
*** ChampSim Multicore Out-of-Order Simulator ***

Warmup Instructions: 50000000
Simulation Instructions: 1500000000
Number of CPUs: 1
Off-chip DRAM Size: 4 GiB Channels: 1 Width: 64-bit Data Rate: 3200 MT/s

VirtualMemory physical capacity: 8588881920 num_ppages: 2096895
VirtualMemory page size: 4096 log2_page_size: 12

CPU 0 runs /s/traces/champsim_traces/400.perlbench-41B.champsimtrace.xz
CPU 0 Bimodal branch predictor
Basic BTB sets: 1024 ways: 8 indirect buffer size: 4096 RAS size: 64
Initializing LRU.
Initializing LRU.
Initializing LRU.
Initializing LRU.
Initializing rdLRU.
Initializing LRU.
Heartbeat CPU 0 instructions: 2000003 cycles: 500244 heartbeat IPC: 3.99805 cumulative IPC: 3.99805 (Simulation time: 0 hr 1 min 6 sec) 
Heartbeat CPU 0 instructions: 4000000 cycles: 1000539 heartbeat IPC: 3.99764 cumulative IPC: 3.99785 (Simulation time: 0 hr 1 min 55 sec) 
Heartbeat CPU 0 instructions: 6000000 cycles: 1500638 heartbeat IPC: 3.99921 cumulative IPC: 3.9983 (Simulation time: 0 hr 2 min 42 sec) 
Heartbeat CPU 0 instructions: 8000000 cycles: 2000852 heartbeat IPC: 3.99829 cumulative IPC: 3.9983 (Simulation time: 0 hr 3 min 31 sec) 
Heartbeat CPU 0 instructions: 10000001 cycles: 2501336 heartbeat IPC: 3.99613 cumulative IPC: 3.99786 (Simulation time: 0 hr 4 min 20 sec) 
Heartbeat CPU 0 instructions: 12000003 cycles: 3001581 heartbeat IPC: 3.99804 cumulative IPC: 3.99789 (Simulation time: 0 hr 5 min 8 sec) 
Heartbeat CPU 0 instructions: 14000000 cycles: 3604533 heartbeat IPC: 3.31701 cumulative IPC: 3.884 (Simulation time: 0 hr 6 min 19 sec) 
Heartbeat CPU 0 instructions: 16000002 cycles: 4104890 heartbeat IPC: 3.99715 cumulative IPC: 3.89779 (Simulation time: 0 hr 7 min 12 sec) 
Heartbeat CPU 0 instructions: 18000001 cycles: 4605580 heartbeat IPC: 3.99449 cumulative IPC: 3.9083 (Simulation time: 0 hr 8 min 3 sec) 
Heartbeat CPU 0 instructions: 20000003 cycles: 5105989 heartbeat IPC: 3.99673 cumulative IPC: 3.91697 (Simulation time: 0 hr 8 min 48 sec) 
Heartbeat CPU 0 instructions: 22000003 cycles: 5605989 heartbeat IPC: 4 cumulative IPC: 3.92438 (Simulation time: 0 hr 9 min 37 sec) 
Heartbeat CPU 0 instructions: 24000003 cycles: 6105989 heartbeat IPC: 4 cumulative IPC: 3.93057 (Simulation time: 0 hr 10 min 23 sec) 
Heartbeat CPU 0 instructions: 26000003 cycles: 6605989 heartbeat IPC: 4 cumulative IPC: 3.93582 (Simulation time: 0 hr 11 min 7 sec) 
Heartbeat CPU 0 instructions: 28000003 cycles: 7105989 heartbeat IPC: 4 cumulative IPC: 3.94034 (Simulation time: 0 hr 11 min 56 sec) 
Heartbeat CPU 0 instructions: 30000003 cycles: 7605989 heartbeat IPC: 4 cumulative IPC: 3.94426 (Simulation time: 0 hr 12 min 44 sec) 
Heartbeat CPU 0 instructions: 32000003 cycles: 8105989 heartbeat IPC: 4 cumulative IPC: 3.9477 (Simulation time: 0 hr 13 min 29 sec) 
Heartbeat CPU 0 instructions: 34000003 cycles: 8605989 heartbeat IPC: 4 cumulative IPC: 3.95074 (Simulation time: 0 hr 14 min 17 sec) 
Heartbeat CPU 0 instructions: 36000003 cycles: 9105989 heartbeat IPC: 4 cumulative IPC: 3.95344 (Simulation time: 0 hr 15 min 2 sec) 
Heartbeat CPU 0 instructions: 38000003 cycles: 9605989 heartbeat IPC: 4 cumulative IPC: 3.95587 (Simulation time: 0 hr 15 min 49 sec) 
Heartbeat CPU 0 instructions: 40000003 cycles: 10105989 heartbeat IPC: 4 cumulative IPC: 3.95805 (Simulation time: 0 hr 16 min 36 sec) 
Heartbeat CPU 0 instructions: 42000003 cycles: 10605989 heartbeat IPC: 4 cumulative IPC: 3.96003 (Simulation time: 0 hr 17 min 24 sec) 
Heartbeat CPU 0 instructions: 44000003 cycles: 11105989 heartbeat IPC: 4 cumulative IPC: 3.96183 (Simulation time: 0 hr 18 min 11 sec) 
Heartbeat CPU 0 instructions: 46000003 cycles: 11605989 heartbeat IPC: 4 cumulative IPC: 3.96347 (Simulation time: 0 hr 18 min 59 sec) 
Heartbeat CPU 0 instructions: 48000003 cycles: 12105989 heartbeat IPC: 4 cumulative IPC: 3.96498 (Simulation time: 0 hr 19 min 45 sec) 
Heartbeat CPU 0 instructions: 50000003 cycles: 12605989 heartbeat IPC: 4 cumulative IPC: 3.96637 (Simulation time: 0 hr 20 min 30 sec) 

Warmup complete CPU 0 instructions: 50000003 cycles: 12605989 (Simulation time: 0 hr 20 min 30 sec) 

Heartbeat CPU 0 instructions: 52000000 cycles: 14411575 heartbeat IPC: 1.10767 cumulative IPC: 1.10767 (Simulation time: 0 hr 21 min 30 sec) 

Region of Interest Statistics
cpu0_DTLB TOTAL     ACCESS:     417198  HIT:     417040  MISS:        158
cpu0_DTLB LOAD      ACCESS:     293127  HIT:     292994  MISS:        133
cpu0_DTLB RFO       ACCESS:     124071  HIT:     124046  MISS:         25
cpu0_DTLB PREFETCH  ACCESS:          0  HIT:          0  MISS:          0
cpu0_DTLB WRITEBACK ACCESS:          0  HIT:          0  MISS:          0
cpu0_ITLB TOTAL     ACCESS:     188075  HIT:     188075  MISS:          0
cpu0_ITLB LOAD      ACCESS:     188075  HIT:     188075  MISS:          0
cpu0_ITLB RFO       ACCESS:          0  HIT:          0  MISS:          0
cpu0_ITLB PREFETCH  ACCESS:          0  HIT:          0  MISS:          0
cpu0_ITLB WRITEBACK ACCESS:          0  HIT:          0  MISS:          0
cpu0_L1I TOTAL     ACCESS:      62321  HIT:      62219  MISS:        102
cpu0_L1I LOAD      ACCESS:      62321  HIT:      62219  MISS:        102
cpu0_L1I RFO       ACCESS:          0  HIT:          0  MISS:          0
cpu0_L1I PREFETCH  ACCESS:          0  HIT:          0  MISS:          0
cpu0_L1I WRITEBACK ACCESS:          0  HIT:          0  MISS:          0
cpu0_STLB TOTAL     ACCESS:        158  HIT:        147  MISS:         11
cpu0_STLB LOAD      ACCESS:        133  HIT:        124  MISS:          9
cpu0_STLB RFO       ACCESS:         25  HIT:         23  MISS:          2
cpu0_STLB PREFETCH  ACCESS:          0  HIT:          0  MISS:          0
cpu0_STLB WRITEBACK ACCESS:          0  HIT:          0  MISS:          0
cpu0_L1D TOTAL     ACCESS:     479091  HIT:     478908  MISS:        183
cpu0_L1D LOAD      ACCESS:     269299  HIT:     269123  MISS:        176
cpu0_L1D RFO       ACCESS:     209781  HIT:     209775  MISS:          6
cpu0_L1D PREFETCH  ACCESS:          0  HIT:          0  MISS:          0
cpu0_L1D WRITEBACK ACCESS:          0  HIT:          0  MISS:          0
cpu0_L2C TOTAL     ACCESS:        299  HIT:        117  MISS:        182
cpu0_L2C LOAD      ACCESS:        278  HIT:        102  MISS:        176
cpu0_L2C RFO       ACCESS:          6  HIT:          0  MISS:          6
cpu0_L2C PREFETCH  ACCESS:          0  HIT:          0  MISS:          0
cpu0_L2C WRITEBACK ACCESS:         14  HIT:         14  MISS:          0
LLC TOTAL     ACCESS:        230  HIT:         23  MISS:        207
LLC LOAD      ACCESS:        176  HIT:          0  MISS:        176
LLC RFO       ACCESS:          6  HIT:          0  MISS:          6
LLC PREFETCH  ACCESS:          0  HIT:          0  MISS:          0
LLC WRITEBACK ACCESS:         48  HIT:         23  MISS:         25
Heartbeat CPU 0 instructions: 54000004 cycles: 16239429 heartbeat IPC: 1.09418 cumulative IPC: 1.10089 (Simulation time: 0 hr 22 min 22 sec) 

Region of Interest Statistics
cpu0_DTLB TOTAL     ACCESS:     821656  HIT:     820993  MISS:        663
cpu0_DTLB LOAD      ACCESS:     566112  HIT:     565554  MISS:        558
cpu0_DTLB RFO       ACCESS:     255544  HIT:     255439  MISS:        105
cpu0_DTLB PREFETCH  ACCESS:          0  HIT:          0  MISS:          0
cpu0_DTLB WRITEBACK ACCESS:          0  HIT:          0  MISS:          0
cpu0_ITLB TOTAL     ACCESS:     356894  HIT:     356894  MISS:          0
cpu0_ITLB LOAD      ACCESS:     356894  HIT:     356894  MISS:          0
cpu0_ITLB RFO       ACCESS:          0  HIT:          0  MISS:          0
cpu0_ITLB PREFETCH  ACCESS:          0  HIT:          0  MISS:          0
cpu0_ITLB WRITEBACK ACCESS:          0  HIT:          0  MISS:          0
cpu0_L1I TOTAL     ACCESS:     155625  HIT:     155186  MISS:        439
cpu0_L1I LOAD      ACCESS:     155625  HIT:     155186  MISS:        439
cpu0_L1I RFO       ACCESS:          0  HIT:          0  MISS:          0
cpu0_L1I PREFETCH  ACCESS:          0  HIT:          0  MISS:          0
cpu0_L1I WRITEBACK ACCESS:          0  HIT:          0  MISS:          0
cpu0_STLB TOTAL     ACCESS:        663  HIT:        629  MISS:         34
cpu0_STLB LOAD      ACCESS:        558  HIT:        528  MISS:         30
cpu0_STLB RFO       ACCESS:        105  HIT:        101  MISS:          4
cpu0_STLB PREFETCH  ACCESS:          0  HIT:          0  MISS:          0
cpu0_STLB WRITEBACK ACCESS:          0  HIT:          0  MISS:          0
cpu0_L1D TOTAL     ACCESS:     986061  HIT:     985287  MISS:        774
cpu0_L1D LOAD      ACCESS:     524010  HIT:     523263  MISS:        747
cpu0_L1D RFO       ACCESS:     462017  HIT:     461991  MISS:         26
cpu0_L1D PREFETCH  ACCESS:          0  HIT:          0  MISS:          0
cpu0_L1D WRITEBACK ACCESS:          0  HIT:          0  MISS:          0
cpu0_L2C TOTAL     ACCESS:       1293  HIT:        511  MISS:        782
cpu0_L2C LOAD      ACCESS:       1186  HIT:        428  MISS:        758
cpu0_L2C RFO       ACCESS:         26  HIT:          2  MISS:         24
cpu0_L2C PREFETCH  ACCESS:          0  HIT:          0  MISS:          0
cpu0_L2C WRITEBACK ACCESS:         80  HIT:         80  MISS:          0
LLC TOTAL     ACCESS:        972  HIT:        121  MISS:        851
LLC LOAD      ACCESS:        758  HIT:         10  MISS:        748
LLC RFO       ACCESS:         24  HIT:          2  MISS:         22
LLC PREFETCH  ACCESS:          0  HIT:          0  MISS:          0
LLC WRITEBACK ACCESS:        190  HIT:        109  MISS:         81
Heartbeat CPU 0 instructions: 56000002 cycles: 17897113 heartbeat IPC: 1.2065 cumulative IPC: 1.13397 (Simulation time: 0 hr 23 min 14 sec) 

Region of Interest Statistics
cpu0_DTLB TOTAL     ACCESS:    1203605  HIT:    1202302  MISS:       1303
cpu0_DTLB LOAD      ACCESS:     825784  HIT:     824691  MISS:       1093
cpu0_DTLB RFO       ACCESS:     377821  HIT:     377611  MISS:        210
cpu0_DTLB PREFETCH  ACCESS:          0  HIT:          0  MISS:          0
cpu0_DTLB WRITEBACK ACCESS:          0  HIT:          0  MISS:          0
cpu0_ITLB TOTAL     ACCESS:     509831  HIT:     509831  MISS:          0
cpu0_ITLB LOAD      ACCESS:     509831  HIT:     509831  MISS:          0
cpu0_ITLB RFO       ACCESS:          0  HIT:          0  MISS:          0
cpu0_ITLB PREFETCH  ACCESS:          0  HIT:          0  MISS:          0
cpu0_ITLB WRITEBACK ACCESS:          0  HIT:          0  MISS:          0
cpu0_L1I TOTAL     ACCESS:     266209  HIT:     265390  MISS:        819
cpu0_L1I LOAD      ACCESS:     266209  HIT:     265390  MISS:        819
cpu0_L1I RFO       ACCESS:          0  HIT:          0  MISS:          0
cpu0_L1I PREFETCH  ACCESS:          0  HIT:          0  MISS:          0
cpu0_L1I WRITEBACK ACCESS:          0  HIT:          0  MISS:          0
cpu0_STLB TOTAL     ACCESS:       1303  HIT:       1237  MISS:         66
cpu0_STLB LOAD      ACCESS:       1093  HIT:       1034  MISS:         59
cpu0_STLB RFO       ACCESS:        210  HIT:        203  MISS:          7
cpu0_STLB PREFETCH  ACCESS:          0  HIT:          0  MISS:          0
cpu0_STLB WRITEBACK ACCESS:          0  HIT:          0  MISS:          0
cpu0_L1D TOTAL     ACCESS:    1468492  HIT:    1466924  MISS:       1568
cpu0_L1D LOAD      ACCESS:     764409  HIT:     762890  MISS:       1519
cpu0_L1D RFO       ACCESS:     704017  HIT:     703970  MISS:         47
cpu0_L1D PREFETCH  ACCESS:          0  HIT:          0  MISS:          0
cpu0_L1D WRITEBACK ACCESS:          0  HIT:          0  MISS:          0
cpu0_L2C TOTAL     ACCESS:       2555  HIT:        990  MISS:       1565
cpu0_L2C LOAD      ACCESS:       2338  HIT:        815  MISS:       1523
cpu0_L2C RFO       ACCESS:         47  HIT:          5  MISS:         42
cpu0_L2C PREFETCH  ACCESS:          0  HIT:          0  MISS:          0
cpu0_L2C WRITEBACK ACCESS:        168  HIT:        168  MISS:          0
LLC TOTAL     ACCESS:       1883  HIT:        218  MISS:       1665
LLC LOAD      ACCESS:       1523  HIT:         13  MISS:       1510
LLC RFO       ACCESS:         42  HIT:          2  MISS:         40
LLC PREFETCH  ACCESS:          0  HIT:          0  MISS:          0
LLC WRITEBACK ACCESS:        318  HIT:        203  MISS:        115
Heartbeat CPU 0 instructions: 58000000 cycles: 19600551 heartbeat IPC: 1.1741 cumulative IPC: 1.14375 (Simulation time: 0 hr 24 min 5 sec) 

Region of Interest Statistics
cpu0_DTLB TOTAL     ACCESS:    1599624  HIT:    1597906  MISS:       1718
cpu0_DTLB LOAD      ACCESS:    1097297  HIT:    1095850  MISS:       1447
cpu0_DTLB RFO       ACCESS:     502327  HIT:     502056  MISS:        271
cpu0_DTLB PREFETCH  ACCESS:          0  HIT:          0  MISS:          0
cpu0_DTLB WRITEBACK ACCESS:          0  HIT:          0  MISS:          0
cpu0_ITLB TOTAL     ACCESS:     674078  HIT:     674078  MISS:          0
cpu0_ITLB LOAD      ACCESS:     674078  HIT:     674078  MISS:          0
cpu0_ITLB RFO       ACCESS:          0  HIT:          0  MISS:          0
cpu0_ITLB PREFETCH  ACCESS:          0  HIT:          0  MISS:          0
cpu0_ITLB WRITEBACK ACCESS:          0  HIT:          0  MISS:          0
cpu0_L1I TOTAL     ACCESS:     362044  HIT:     361004  MISS:       1040
cpu0_L1I LOAD      ACCESS:     362044  HIT:     361004  MISS:       1040
cpu0_L1I RFO       ACCESS:          0  HIT:          0  MISS:          0
cpu0_L1I PREFETCH  ACCESS:          0  HIT:          0  MISS:          0
cpu0_L1I WRITEBACK ACCESS:          0  HIT:          0  MISS:          0
cpu0_STLB TOTAL     ACCESS:       1718  HIT:       1635  MISS:         83
cpu0_STLB LOAD      ACCESS:       1447  HIT:       1373  MISS:         74
cpu0_STLB RFO       ACCESS:        271  HIT:        262  MISS:          9
cpu0_STLB PREFETCH  ACCESS:          0  HIT:          0  MISS:          0
cpu0_STLB WRITEBACK ACCESS:          0  HIT:          0  MISS:          0
cpu0_L1D TOTAL     ACCESS:    1953115  HIT:    1951055  MISS:       2060
cpu0_L1D LOAD      ACCESS:    1014804  HIT:    1012808  MISS:       1996
cpu0_L1D RFO       ACCESS:     938228  HIT:     938166  MISS:         62
cpu0_L1D PREFETCH  ACCESS:          0  HIT:          0  MISS:          0
cpu0_L1D WRITEBACK ACCESS:          0  HIT:          0  MISS:          0
cpu0_L2C TOTAL     ACCESS:       3316  HIT:       1261  MISS:       2055
cpu0_L2C LOAD      ACCESS:       3036  HIT:       1036  MISS:       2000
cpu0_L2C RFO       ACCESS:         62  HIT:          7  MISS:         55
cpu0_L2C PREFETCH  ACCESS:          0  HIT:          0  MISS:          0
cpu0_L2C WRITEBACK ACCESS:        216  HIT:        216  MISS:          0
LLC TOTAL     ACCESS:       2454  HIT:        274  MISS:       2180
LLC LOAD      ACCESS:       2000  HIT:         16  MISS:       1984
LLC RFO       ACCESS:         55  HIT:          2  MISS:         53
LLC PREFETCH  ACCESS:          0  HIT:          0  MISS:          0
LLC WRITEBACK ACCESS:        399  HIT:        256  MISS:        143
Heartbeat CPU 0 instructions: 60000001 cycles: 21350846 heartbeat IPC: 1.14267 cumulative IPC: 1.14353 (Simulation time: 0 hr 25 min 2 sec) 

Region of Interest Statistics
cpu0_DTLB TOTAL     ACCESS:    2006154  HIT:    2004190  MISS:       1964
cpu0_DTLB LOAD      ACCESS:    1380253  HIT:    1378604  MISS:       1649
cpu0_DTLB RFO       ACCESS:     625901  HIT:     625586  MISS:        315
cpu0_DTLB PREFETCH  ACCESS:          0  HIT:          0  MISS:          0
cpu0_DTLB WRITEBACK ACCESS:          0  HIT:          0  MISS:          0
cpu0_ITLB TOTAL     ACCESS:     852334  HIT:     852334  MISS:          0
cpu0_ITLB LOAD      ACCESS:     852334  HIT:     852334  MISS:          0
cpu0_ITLB RFO       ACCESS:          0  HIT:          0  MISS:          0
cpu0_ITLB PREFETCH  ACCESS:          0  HIT:          0  MISS:          0
cpu0_ITLB WRITEBACK ACCESS:          0  HIT:          0  MISS:          0
cpu0_L1I TOTAL     ACCESS:     440197  HIT:     439002  MISS:       1195
cpu0_L1I LOAD      ACCESS:     440197  HIT:     439002  MISS:       1195
cpu0_L1I RFO       ACCESS:          0  HIT:          0  MISS:          0
cpu0_L1I PREFETCH  ACCESS:          0  HIT:          0  MISS:          0
cpu0_L1I WRITEBACK ACCESS:          0  HIT:          0  MISS:          0
cpu0_STLB TOTAL     ACCESS:       1964  HIT:       1870  MISS:         94
cpu0_STLB LOAD      ACCESS:       1649  HIT:       1565  MISS:         84
cpu0_STLB RFO       ACCESS:        315  HIT:        305  MISS:         10
cpu0_STLB PREFETCH  ACCESS:          0  HIT:          0  MISS:          0
cpu0_STLB WRITEBACK ACCESS:          0  HIT:          0  MISS:          0
cpu0_L1D TOTAL     ACCESS:    2432979  HIT:    2430632  MISS:       2347
cpu0_L1D LOAD      ACCESS:    1274681  HIT:    1272406  MISS:       2275
cpu0_L1D RFO       ACCESS:    1158204  HIT:    1158134  MISS:         70
cpu0_L1D PREFETCH  ACCESS:          0  HIT:          0  MISS:          0
cpu0_L1D WRITEBACK ACCESS:          0  HIT:          0  MISS:          0
cpu0_L2C TOTAL     ACCESS:       3780  HIT:       1439  MISS:       2341
cpu0_L2C LOAD      ACCESS:       3470  HIT:       1192  MISS:       2278
cpu0_L2C RFO       ACCESS:         70  HIT:          7  MISS:         63
cpu0_L2C PREFETCH  ACCESS:          0  HIT:          0  MISS:          0
cpu0_L2C WRITEBACK ACCESS:        238  HIT:        238  MISS:          0
LLC TOTAL     ACCESS:       2792  HIT:        310  MISS:       2482
LLC LOAD      ACCESS:       2278  HIT:         16  MISS:       2262
LLC RFO       ACCESS:         63  HIT:          2  MISS:         61
LLC PREFETCH  ACCESS:          0  HIT:          0  MISS:          0
LLC WRITEBACK ACCESS:        451  HIT:        292  MISS:        159
Heartbeat CPU 0 instructions: 62000002 cycles: 23157497 heartbeat IPC: 1.10702 cumulative IPC: 1.13728 (Simulation time: 0 hr 25 min 51 sec) 

Region of Interest Statistics
cpu0_DTLB TOTAL     ACCESS:    2409612  HIT:    2407213  MISS:       2399
cpu0_DTLB LOAD      ACCESS:    1651725  HIT:    1649707  MISS:       2018
cpu0_DTLB RFO       ACCESS:     757887  HIT:     757506  MISS:        381
cpu0_DTLB PREFETCH  ACCESS:          0  HIT:          0  MISS:          0
cpu0_DTLB WRITEBACK ACCESS:          0  HIT:          0  MISS:          0
cpu0_ITLB TOTAL     ACCESS:    1022289  HIT:    1022289  MISS:          0
cpu0_ITLB LOAD      ACCESS:    1022289  HIT:    1022289  MISS:          0
cpu0_ITLB RFO       ACCESS:          0  HIT:          0  MISS:          0
cpu0_ITLB PREFETCH  ACCESS:          0  HIT:          0  MISS:          0
cpu0_ITLB WRITEBACK ACCESS:          0  HIT:          0  MISS:          0
cpu0_L1I TOTAL     ACCESS:     542958  HIT:     541526  MISS:       1432
cpu0_L1I LOAD      ACCESS:     542958  HIT:     541526  MISS:       1432
cpu0_L1I RFO       ACCESS:          0  HIT:          0  MISS:          0
cpu0_L1I PREFETCH  ACCESS:          0  HIT:          0  MISS:          0
cpu0_L1I WRITEBACK ACCESS:          0  HIT:          0  MISS:          0
cpu0_STLB TOTAL     ACCESS:       2399  HIT:       2284  MISS:        115
cpu0_STLB LOAD      ACCESS:       2018  HIT:       1915  MISS:        103
cpu0_STLB RFO       ACCESS:        381  HIT:        369  MISS:         12
cpu0_STLB PREFETCH  ACCESS:          0  HIT:          0  MISS:          0
cpu0_STLB WRITEBACK ACCESS:          0  HIT:          0  MISS:          0
cpu0_L1D TOTAL     ACCESS:    2945579  HIT:    2942697  MISS:       2882
cpu0_L1D LOAD      ACCESS:    1530488  HIT:    1527693  MISS:       2795
cpu0_L1D RFO       ACCESS:    1414976  HIT:    1414891  MISS:         85
cpu0_L1D PREFETCH  ACCESS:          0  HIT:          0  MISS:          0
cpu0_L1D WRITEBACK ACCESS:          0  HIT:          0  MISS:          0
cpu0_L2C TOTAL     ACCESS:       4611  HIT:       1740  MISS:       2871
cpu0_L2C LOAD      ACCESS:       4227  HIT:       1432  MISS:       2795
cpu0_L2C RFO       ACCESS:         85  HIT:          9  MISS:         76
cpu0_L2C PREFETCH  ACCESS:          0  HIT:          0  MISS:          0
cpu0_L2C WRITEBACK ACCESS:        297  HIT:        297  MISS:          0
LLC TOTAL     ACCESS:       3409  HIT:        372  MISS:       3037
LLC LOAD      ACCESS:       2795  HIT:         17  MISS:       2778
LLC RFO       ACCESS:         76  HIT:          2  MISS:         74
LLC PREFETCH  ACCESS:          0  HIT:          0  MISS:          0
LLC WRITEBACK ACCESS:        538  HIT:        353  MISS:        185
Heartbeat CPU 0 instructions: 64000000 cycles: 25157226 heartbeat IPC: 1.00013 cumulative IPC: 1.11543 (Simulation time: 0 hr 26 min 41 sec) 

Region of Interest Statistics
cpu0_DTLB TOTAL     ACCESS:    2835771  HIT:    2833119  MISS:       2652
cpu0_DTLB LOAD      ACCESS:    1930849  HIT:    1928620  MISS:       2229
cpu0_DTLB RFO       ACCESS:     904922  HIT:     904499  MISS:        423
cpu0_DTLB PREFETCH  ACCESS:          0  HIT:          0  MISS:          0
cpu0_DTLB WRITEBACK ACCESS:          0  HIT:          0  MISS:          0
cpu0_ITLB TOTAL     ACCESS:    1221505  HIT:    1221505  MISS:          0
cpu0_ITLB LOAD      ACCESS:    1221505  HIT:    1221505  MISS:          0
cpu0_ITLB RFO       ACCESS:          0  HIT:          0  MISS:          0
cpu0_ITLB PREFETCH  ACCESS:          0  HIT:          0  MISS:          0
cpu0_ITLB WRITEBACK ACCESS:          0  HIT:          0  MISS:          0
cpu0_L1I TOTAL     ACCESS:     604738  HIT:     603104  MISS:       1634
cpu0_L1I LOAD      ACCESS:     604738  HIT:     603104  MISS:       1634
cpu0_L1I RFO       ACCESS:          0  HIT:          0  MISS:          0
cpu0_L1I PREFETCH  ACCESS:          0  HIT:          0  MISS:          0
cpu0_L1I WRITEBACK ACCESS:          0  HIT:          0  MISS:          0
cpu0_STLB TOTAL     ACCESS:       2652  HIT:       2520  MISS:        132
cpu0_STLB LOAD      ACCESS:       2229  HIT:       2111  MISS:        118
cpu0_STLB RFO       ACCESS:        423  HIT:        409  MISS:         14
cpu0_STLB PREFETCH  ACCESS:          0  HIT:          0  MISS:          0
cpu0_STLB WRITEBACK ACCESS:          0  HIT:          0  MISS:          0
cpu0_L1D TOTAL     ACCESS:    3491249  HIT:    3488033  MISS:       3216
cpu0_L1D LOAD      ACCESS:    1796933  HIT:    1793818  MISS:       3115
cpu0_L1D RFO       ACCESS:    1694184  HIT:    1694085  MISS:         99
cpu0_L1D PREFETCH  ACCESS:          0  HIT:          0  MISS:          0
cpu0_L1D WRITEBACK ACCESS:          0  HIT:          0  MISS:          0
cpu0_L2C TOTAL     ACCESS:       5188  HIT:       1992  MISS:       3196
cpu0_L2C LOAD      ACCESS:       4749  HIT:       1639  MISS:       3110
cpu0_L2C RFO       ACCESS:         99  HIT:         13  MISS:         86
cpu0_L2C PREFETCH  ACCESS:          0  HIT:          0  MISS:          0
cpu0_L2C WRITEBACK ACCESS:        338  HIT:        338  MISS:          0
LLC TOTAL     ACCESS:       3783  HIT:        404  MISS:       3379
LLC LOAD      ACCESS:       3110  HIT:         19  MISS:       3091
LLC RFO       ACCESS:         86  HIT:          2  MISS:         84
LLC PREFETCH  ACCESS:          0  HIT:          0  MISS:          0
LLC WRITEBACK ACCESS:        587  HIT:        383  MISS:        204
Heartbeat CPU 0 instructions: 66000000 cycles: 26911565 heartbeat IPC: 1.14003 cumulative IPC: 1.11844 (Simulation time: 0 hr 27 min 40 sec) 

Region of Interest Statistics
cpu0_DTLB TOTAL     ACCESS:    3260710  HIT:    3257736  MISS:       2974
cpu0_DTLB LOAD      ACCESS:    2203634  HIT:    2201139  MISS:       2495
cpu0_DTLB RFO       ACCESS:    1057076  HIT:    1056597  MISS:        479
cpu0_DTLB PREFETCH  ACCESS:          0  HIT:          0  MISS:          0
cpu0_DTLB WRITEBACK ACCESS:          0  HIT:          0  MISS:          0
cpu0_ITLB TOTAL     ACCESS:    1405515  HIT:    1405515  MISS:          0
cpu0_ITLB LOAD      ACCESS:    1405515  HIT:    1405515  MISS:          0
cpu0_ITLB RFO       ACCESS:          0  HIT:          0  MISS:          0
cpu0_ITLB PREFETCH  ACCESS:          0  HIT:          0  MISS:          0
cpu0_ITLB WRITEBACK ACCESS:          0  HIT:          0  MISS:          0
cpu0_L1I TOTAL     ACCESS:     667937  HIT:     666137  MISS:       1800
cpu0_L1I LOAD      ACCESS:     667937  HIT:     666137  MISS:       1800
cpu0_L1I RFO       ACCESS:          0  HIT:          0  MISS:          0
cpu0_L1I PREFETCH  ACCESS:          0  HIT:          0  MISS:          0
cpu0_L1I WRITEBACK ACCESS:          0  HIT:          0  MISS:          0
cpu0_STLB TOTAL     ACCESS:       2974  HIT:       2814  MISS:        160
cpu0_STLB LOAD      ACCESS:       2495  HIT:       2351  MISS:        144
cpu0_STLB RFO       ACCESS:        479  HIT:        463  MISS:         16
cpu0_STLB PREFETCH  ACCESS:          0  HIT:          0  MISS:          0
cpu0_STLB WRITEBACK ACCESS:          0  HIT:          0  MISS:          0
cpu0_L1D TOTAL     ACCESS:    4052928  HIT:    4049265  MISS:       3663
cpu0_L1D LOAD      ACCESS:    2060688  HIT:    2057136  MISS:       3552
cpu0_L1D RFO       ACCESS:    1992080  HIT:    1991971  MISS:        109
cpu0_L1D PREFETCH  ACCESS:          0  HIT:          0  MISS:          0
cpu0_L1D WRITEBACK ACCESS:          0  HIT:          0  MISS:          0
cpu0_L2C TOTAL     ACCESS:       5844  HIT:       2198  MISS:       3646
cpu0_L2C LOAD      ACCESS:       5352  HIT:       1802  MISS:       3550
cpu0_L2C RFO       ACCESS:        109  HIT:         14  MISS:         95
cpu0_L2C PREFETCH  ACCESS:          0  HIT:          0  MISS:          0
cpu0_L2C WRITEBACK ACCESS:        381  HIT:        380  MISS:          1
LLC TOTAL     ACCESS:       4311  HIT:        460  MISS:       3851
LLC LOAD      ACCESS:       3550  HIT:         22  MISS:       3528
LLC RFO       ACCESS:         95  HIT:          2  MISS:         93
LLC PREFETCH  ACCESS:          0  HIT:          0  MISS:          0
LLC WRITEBACK ACCESS:        666  HIT:        436  MISS:        230
Heartbeat CPU 0 instructions: 68000000 cycles: 28682246 heartbeat IPC: 1.12951 cumulative IPC: 1.11966 (Simulation time: 0 hr 28 min 41 sec) 

Region of Interest Statistics
cpu0_DTLB TOTAL     ACCESS:    3677093  HIT:    3673888  MISS:       3205
cpu0_DTLB LOAD      ACCESS:    2472470  HIT:    2469791  MISS:       2679
cpu0_DTLB RFO       ACCESS:    1204623  HIT:    1204097  MISS:        526
cpu0_DTLB PREFETCH  ACCESS:          0  HIT:          0  MISS:          0
cpu0_DTLB WRITEBACK ACCESS:          0  HIT:          0  MISS:          0
cpu0_ITLB TOTAL     ACCESS:    1583705  HIT:    1583705  MISS:          0
cpu0_ITLB LOAD      ACCESS:    1583705  HIT:    1583705  MISS:          0
cpu0_ITLB RFO       ACCESS:          0  HIT:          0  MISS:          0
cpu0_ITLB PREFETCH  ACCESS:          0  HIT:          0  MISS:          0
cpu0_ITLB WRITEBACK ACCESS:          0  HIT:          0  MISS:          0
cpu0_L1I TOTAL     ACCESS:     794896  HIT:     792833  MISS:       2063
cpu0_L1I LOAD      ACCESS:     794896  HIT:     792833  MISS:       2063
cpu0_L1I RFO       ACCESS:          0  HIT:          0  MISS:          0
cpu0_L1I PREFETCH  ACCESS:          0  HIT:          0  MISS:          0
cpu0_L1I WRITEBACK ACCESS:          0  HIT:          0  MISS:          0
cpu0_STLB TOTAL     ACCESS:       3205  HIT:       3030  MISS:        175
cpu0_STLB LOAD      ACCESS:       2679  HIT:       2522  MISS:        157
cpu0_STLB RFO       ACCESS:        526  HIT:        508  MISS:         18
cpu0_STLB PREFETCH  ACCESS:          0  HIT:          0  MISS:          0
cpu0_STLB WRITEBACK ACCESS:          0  HIT:          0  MISS:          0
cpu0_L1D TOTAL     ACCESS:    4622887  HIT:    4618861  MISS:       4026
cpu0_L1D LOAD      ACCESS:    2327899  HIT:    2324026  MISS:       3873
cpu0_L1D RFO       ACCESS:    2294813  HIT:    2294665  MISS:        148
cpu0_L1D PREFETCH  ACCESS:          0  HIT:          0  MISS:          0
cpu0_L1D WRITEBACK ACCESS:          0  HIT:          0  MISS:          0
cpu0_L2C TOTAL     ACCESS:       6506  HIT:       2506  MISS:       4000
cpu0_L2C LOAD      ACCESS:       5936  HIT:       2059  MISS:       3877
cpu0_L2C RFO       ACCESS:        148  HIT:         27  MISS:        121
cpu0_L2C PREFETCH  ACCESS:          0  HIT:          0  MISS:          0
cpu0_L2C WRITEBACK ACCESS:        417  HIT:        416  MISS:          1
LLC TOTAL     ACCESS:       4714  HIT:        510  MISS:       4204
LLC LOAD      ACCESS:       3877  HIT:         31  MISS:       3846
LLC RFO       ACCESS:        121  HIT:          9  MISS:        112
LLC PREFETCH  ACCESS:          0  HIT:          0  MISS:          0
LLC WRITEBACK ACCESS:        715  HIT:        470  MISS:        245
Heartbeat CPU 0 instructions: 70000003 cycles: 30759482 heartbeat IPC: 0.962819 cumulative IPC: 1.10172 (Simulation time: 0 hr 30 min 3 sec) 

Region of Interest Statistics
cpu0_DTLB TOTAL     ACCESS:    4094689  HIT:    4091417  MISS:       3272
cpu0_DTLB LOAD      ACCESS:    2767663  HIT:    2764929  MISS:       2734
cpu0_DTLB RFO       ACCESS:    1327026  HIT:    1326488  MISS:        538
cpu0_DTLB PREFETCH  ACCESS:          0  HIT:          0  MISS:          0
cpu0_DTLB WRITEBACK ACCESS:          0  HIT:          0  MISS:          0
cpu0_ITLB TOTAL     ACCESS:    1787308  HIT:    1787308  MISS:          0
cpu0_ITLB LOAD      ACCESS:    1787308  HIT:    1787308  MISS:          0
cpu0_ITLB RFO       ACCESS:          0  HIT:          0  MISS:          0
cpu0_ITLB PREFETCH  ACCESS:          0  HIT:          0  MISS:          0
cpu0_ITLB WRITEBACK ACCESS:          0  HIT:          0  MISS:          0
cpu0_L1I TOTAL     ACCESS:     859549  HIT:     857456  MISS:       2093
cpu0_L1I LOAD      ACCESS:     859549  HIT:     857456  MISS:       2093
cpu0_L1I RFO       ACCESS:          0  HIT:          0  MISS:          0
cpu0_L1I PREFETCH  ACCESS:          0  HIT:          0  MISS:          0
cpu0_L1I WRITEBACK ACCESS:          0  HIT:          0  MISS:          0
cpu0_STLB TOTAL     ACCESS:       3272  HIT:       3089  MISS:        183
cpu0_STLB LOAD      ACCESS:       2734  HIT:       2571  MISS:        163
cpu0_STLB RFO       ACCESS:        538  HIT:        518  MISS:         20
cpu0_STLB PREFETCH  ACCESS:          0  HIT:          0  MISS:          0
cpu0_STLB WRITEBACK ACCESS:          0  HIT:          0  MISS:          0
cpu0_L1D TOTAL     ACCESS:    5080026  HIT:    5075904  MISS:       4122
cpu0_L1D LOAD      ACCESS:    2602682  HIT:    2598716  MISS:       3966
cpu0_L1D RFO       ACCESS:    2477161  HIT:    2477010  MISS:        151
cpu0_L1D PREFETCH  ACCESS:          0  HIT:          0  MISS:          0
cpu0_L1D WRITEBACK ACCESS:          0  HIT:          0  MISS:          0
cpu0_L2C TOTAL     ACCESS:       6639  HIT:       2545  MISS:       4094
cpu0_L2C LOAD      ACCESS:       6059  HIT:       2091  MISS:       3968
cpu0_L2C RFO       ACCESS:        151  HIT:         27  MISS:        124
cpu0_L2C PREFETCH  ACCESS:          0  HIT:          0  MISS:          0
cpu0_L2C WRITEBACK ACCESS:        424  HIT:        423  MISS:          1
LLC TOTAL     ACCESS:       4825  HIT:        520  MISS:       4305
LLC LOAD      ACCESS:       3968  HIT:         31  MISS:       3937
LLC RFO       ACCESS:        124  HIT:          9  MISS:        115
LLC PREFETCH  ACCESS:          0  HIT:          0  MISS:          0
LLC WRITEBACK ACCESS:        732  HIT:        480  MISS:        252
Heartbeat CPU 0 instructions: 72000000 cycles: 32401960 heartbeat IPC: 1.21767 cumulative IPC: 1.11134 (Simulation time: 0 hr 30 min 53 sec) 

Region of Interest Statistics
cpu0_DTLB TOTAL     ACCESS:    4477711  HIT:    4474008  MISS:       3703
cpu0_DTLB LOAD      ACCESS:    3027055  HIT:    3023967  MISS:       3088
cpu0_DTLB RFO       ACCESS:    1450656  HIT:    1450041  MISS:        615
cpu0_DTLB PREFETCH  ACCESS:          0  HIT:          0  MISS:          0
cpu0_DTLB WRITEBACK ACCESS:          0  HIT:          0  MISS:          0
cpu0_ITLB TOTAL     ACCESS:    1943081  HIT:    1943081  MISS:          0
cpu0_ITLB LOAD      ACCESS:    1943081  HIT:    1943081  MISS:          0
cpu0_ITLB RFO       ACCESS:          0  HIT:          0  MISS:          0
cpu0_ITLB PREFETCH  ACCESS:          0  HIT:          0  MISS:          0
cpu0_ITLB WRITEBACK ACCESS:          0  HIT:          0  MISS:          0
cpu0_L1I TOTAL     ACCESS:     971383  HIT:     968967  MISS:       2416
cpu0_L1I LOAD      ACCESS:     971383  HIT:     968967  MISS:       2416
cpu0_L1I RFO       ACCESS:          0  HIT:          0  MISS:          0
cpu0_L1I PREFETCH  ACCESS:          0  HIT:          0  MISS:          0
cpu0_L1I WRITEBACK ACCESS:          0  HIT:          0  MISS:          0
cpu0_STLB TOTAL     ACCESS:       3703  HIT:       3495  MISS:        208
cpu0_STLB LOAD      ACCESS:       3088  HIT:       2902  MISS:        186
cpu0_STLB RFO       ACCESS:        615  HIT:        593  MISS:         22
cpu0_STLB PREFETCH  ACCESS:          0  HIT:          0  MISS:          0
cpu0_STLB WRITEBACK ACCESS:          0  HIT:          0  MISS:          0
cpu0_L1D TOTAL     ACCESS:    5566971  HIT:    5562198  MISS:       4773
cpu0_L1D LOAD      ACCESS:    2845165  HIT:    2840582  MISS:       4583
cpu0_L1D RFO       ACCESS:    2721598  HIT:    2721413  MISS:        185
cpu0_L1D PREFETCH  ACCESS:          0  HIT:          0  MISS:          0
cpu0_L1D WRITEBACK ACCESS:          0  HIT:          0  MISS:          0
cpu0_L2C TOTAL     ACCESS:       7700  HIT:       2968  MISS:       4732
cpu0_L2C LOAD      ACCESS:       6999  HIT:       2417  MISS:       4582
cpu0_L2C RFO       ACCESS:        185  HIT:         38  MISS:        147
cpu0_L2C PREFETCH  ACCESS:          0  HIT:          0  MISS:          0
cpu0_L2C WRITEBACK ACCESS:        511  HIT:        509  MISS:          2
LLC TOTAL     ACCESS:       5545  HIT:        588  MISS:       4957
LLC LOAD      ACCESS:       4582  HIT:         37  MISS:       4545
LLC RFO       ACCESS:        147  HIT:          9  MISS:        138
LLC PREFETCH  ACCESS:          0  HIT:          0  MISS:          0
LLC WRITEBACK ACCESS:        815  HIT:        542  MISS:        273
Heartbeat CPU 0 instructions: 74000002 cycles: 34403984 heartbeat IPC: 0.99899 cumulative IPC: 1.10102 (Simulation time: 0 hr 31 min 49 sec) 

Region of Interest Statistics
cpu0_DTLB TOTAL     ACCESS:    4904617  HIT:    4900691  MISS:       3926
cpu0_DTLB LOAD      ACCESS:    3308268  HIT:    3304994  MISS:       3274
cpu0_DTLB RFO       ACCESS:    1596349  HIT:    1595697  MISS:        652
cpu0_DTLB PREFETCH  ACCESS:          0  HIT:          0  MISS:          0
cpu0_DTLB WRITEBACK ACCESS:          0  HIT:          0  MISS:          0
cpu0_ITLB TOTAL     ACCESS:    2147062  HIT:    2147062  MISS:          0
cpu0_ITLB LOAD      ACCESS:    2147062  HIT:    2147062  MISS:          0
cpu0_ITLB RFO       ACCESS:          0  HIT:          0  MISS:          0
cpu0_ITLB PREFETCH  ACCESS:          0  HIT:          0  MISS:          0
cpu0_ITLB WRITEBACK ACCESS:          0  HIT:          0  MISS:          0
cpu0_L1I TOTAL     ACCESS:    1025809  HIT:    1023152  MISS:       2657
cpu0_L1I LOAD      ACCESS:    1025809  HIT:    1023152  MISS:       2657
cpu0_L1I RFO       ACCESS:          0  HIT:          0  MISS:          0
cpu0_L1I PREFETCH  ACCESS:          0  HIT:          0  MISS:          0
cpu0_L1I WRITEBACK ACCESS:          0  HIT:          0  MISS:          0
cpu0_STLB TOTAL     ACCESS:       3926  HIT:       3705  MISS:        221
cpu0_STLB LOAD      ACCESS:       3274  HIT:       3076  MISS:        198
cpu0_STLB RFO       ACCESS:        652  HIT:        629  MISS:         23
cpu0_STLB PREFETCH  ACCESS:          0  HIT:          0  MISS:          0
cpu0_STLB WRITEBACK ACCESS:          0  HIT:          0  MISS:          0
cpu0_L1D TOTAL     ACCESS:    6108199  HIT:    6103093  MISS:       5106
cpu0_L1D LOAD      ACCESS:    3112649  HIT:    3107748  MISS:       4901
cpu0_L1D RFO       ACCESS:    2995329  HIT:    2995129  MISS:        200
cpu0_L1D PREFETCH  ACCESS:          0  HIT:          0  MISS:          0
cpu0_L1D WRITEBACK ACCESS:          0  HIT:          0  MISS:          0
cpu0_L2C TOTAL     ACCESS:       8323  HIT:       3262  MISS:       5061
cpu0_L2C LOAD      ACCESS:       7558  HIT:       2657  MISS:       4901
cpu0_L2C RFO       ACCESS:        200  HIT:         43  MISS:        157
cpu0_L2C PREFETCH  ACCESS:          0  HIT:          0  MISS:          0
cpu0_L2C WRITEBACK ACCESS:        560  HIT:        558  MISS:          2
LLC TOTAL     ACCESS:       5926  HIT:        629  MISS:       5297
LLC LOAD      ACCESS:       4901  HIT:         40  MISS:       4861
LLC RFO       ACCESS:        157  HIT:          9  MISS:        148
LLC PREFETCH  ACCESS:          0  HIT:          0  MISS:          0
LLC WRITEBACK ACCESS:        867  HIT:        580  MISS:        287
Heartbeat CPU 0 instructions: 76000002 cycles: 36456113 heartbeat IPC: 0.974598 cumulative IPC: 1.09014 (Simulation time: 0 hr 32 min 48 sec) 

Region of Interest Statistics
cpu0_DTLB TOTAL     ACCESS:    5337530  HIT:    5333415  MISS:       4115
cpu0_DTLB LOAD      ACCESS:    3589824  HIT:    3586396  MISS:       3428
cpu0_DTLB RFO       ACCESS:    1747706  HIT:    1747019  MISS:        687
cpu0_DTLB PREFETCH  ACCESS:          0  HIT:          0  MISS:          0
cpu0_DTLB WRITEBACK ACCESS:          0  HIT:          0  MISS:          0
cpu0_ITLB TOTAL     ACCESS:    2377312  HIT:    2377312  MISS:          0
cpu0_ITLB LOAD      ACCESS:    2377312  HIT:    2377312  MISS:          0
cpu0_ITLB RFO       ACCESS:          0  HIT:          0  MISS:          0
cpu0_ITLB PREFETCH  ACCESS:          0  HIT:          0  MISS:          0
cpu0_ITLB WRITEBACK ACCESS:          0  HIT:          0  MISS:          0
cpu0_L1I TOTAL     ACCESS:    1053551  HIT:    1050781  MISS:       2770
cpu0_L1I LOAD      ACCESS:    1053551  HIT:    1050781  MISS:       2770
cpu0_L1I RFO       ACCESS:          0  HIT:          0  MISS:          0
cpu0_L1I PREFETCH  ACCESS:          0  HIT:          0  MISS:          0
cpu0_L1I WRITEBACK ACCESS:          0  HIT:          0  MISS:          0
cpu0_STLB TOTAL     ACCESS:       4115  HIT:       3881  MISS:        234
cpu0_STLB LOAD      ACCESS:       3428  HIT:       3218  MISS:        210
cpu0_STLB RFO       ACCESS:        687  HIT:        663  MISS:         24
cpu0_STLB PREFETCH  ACCESS:          0  HIT:          0  MISS:          0
cpu0_STLB WRITEBACK ACCESS:          0  HIT:          0  MISS:          0
cpu0_L1D TOTAL     ACCESS:    6661970  HIT:    6656591  MISS:       5379
cpu0_L1D LOAD      ACCESS:    3384302  HIT:    3379135  MISS:       5167
cpu0_L1D RFO       ACCESS:    3277434  HIT:    3277227  MISS:        207
cpu0_L1D PREFETCH  ACCESS:          0  HIT:          0  MISS:          0
cpu0_L1D WRITEBACK ACCESS:          0  HIT:          0  MISS:          0
cpu0_L2C TOTAL     ACCESS:       8740  HIT:       3409  MISS:       5331
cpu0_L2C LOAD      ACCESS:       7937  HIT:       2773  MISS:       5164
cpu0_L2C RFO       ACCESS:        207  HIT:         43  MISS:        164
cpu0_L2C PREFETCH  ACCESS:          0  HIT:          0  MISS:          0
cpu0_L2C WRITEBACK ACCESS:        591  HIT:        589  MISS:          2
LLC TOTAL     ACCESS:       6226  HIT:        654  MISS:       5572
LLC LOAD      ACCESS:       5164  HIT:         41  MISS:       5123
LLC RFO       ACCESS:        164  HIT:          9  MISS:        155
LLC PREFETCH  ACCESS:          0  HIT:          0  MISS:          0
LLC WRITEBACK ACCESS:        897  HIT:        604  MISS:        293
Heartbeat CPU 0 instructions: 78000002 cycles: 38095203 heartbeat IPC: 1.22019 cumulative IPC: 1.0985 (Simulation time: 0 hr 33 min 41 sec) 

Region of Interest Statistics
cpu0_DTLB TOTAL     ACCESS:    5716953  HIT:    5712253  MISS:       4700
cpu0_DTLB LOAD      ACCESS:    3851061  HIT:    3847146  MISS:       3915
cpu0_DTLB RFO       ACCESS:    1865892  HIT:    1865107  MISS:        785
cpu0_DTLB PREFETCH  ACCESS:          0  HIT:          0  MISS:          0
cpu0_DTLB WRITEBACK ACCESS:          0  HIT:          0  MISS:          0
cpu0_ITLB TOTAL     ACCESS:    2532211  HIT:    2532211  MISS:          0
cpu0_ITLB LOAD      ACCESS:    2532211  HIT:    2532211  MISS:          0
cpu0_ITLB RFO       ACCESS:          0  HIT:          0  MISS:          0
cpu0_ITLB PREFETCH  ACCESS:          0  HIT:          0  MISS:          0
cpu0_ITLB WRITEBACK ACCESS:          0  HIT:          0  MISS:          0
cpu0_L1I TOTAL     ACCESS:    1160854  HIT:    1157750  MISS:       3104
cpu0_L1I LOAD      ACCESS:    1160854  HIT:    1157750  MISS:       3104
cpu0_L1I RFO       ACCESS:          0  HIT:          0  MISS:          0
cpu0_L1I PREFETCH  ACCESS:          0  HIT:          0  MISS:          0
cpu0_L1I WRITEBACK ACCESS:          0  HIT:          0  MISS:          0
cpu0_STLB TOTAL     ACCESS:       4700  HIT:       4436  MISS:        264
cpu0_STLB LOAD      ACCESS:       3915  HIT:       3678  MISS:        237
cpu0_STLB RFO       ACCESS:        785  HIT:        758  MISS:         27
cpu0_STLB PREFETCH  ACCESS:          0  HIT:          0  MISS:          0
cpu0_STLB WRITEBACK ACCESS:          0  HIT:          0  MISS:          0
cpu0_L1D TOTAL     ACCESS:    7135990  HIT:    7129830  MISS:       6160
cpu0_L1D LOAD      ACCESS:    3625062  HIT:    3619134  MISS:       5928
cpu0_L1D RFO       ACCESS:    3510664  HIT:    3510438  MISS:        226
cpu0_L1D PREFETCH  ACCESS:          0  HIT:          0  MISS:          0
cpu0_L1D WRITEBACK ACCESS:          0  HIT:          0  MISS:          0
cpu0_L2C TOTAL     ACCESS:       9939  HIT:       3837  MISS:       6102
cpu0_L2C LOAD      ACCESS:       9032  HIT:       3116  MISS:       5916
cpu0_L2C RFO       ACCESS:        226  HIT:         43  MISS:        183
cpu0_L2C PREFETCH  ACCESS:          0  HIT:          0  MISS:          0
cpu0_L2C WRITEBACK ACCESS:        675  HIT:        673  MISS:          2
LLC TOTAL     ACCESS:       7105  HIT:        739  MISS:       6366
LLC LOAD      ACCESS:       5916  HIT:         43  MISS:       5873
LLC RFO       ACCESS:        183  HIT:          9  MISS:        174
LLC PREFETCH  ACCESS:          0  HIT:          0  MISS:          0
LLC WRITEBACK ACCESS:       1005  HIT:        687  MISS:        318
Heartbeat CPU 0 instructions: 80000000 cycles: 40005515 heartbeat IPC: 1.04695 cumulative IPC: 1.09491 (Simulation time: 0 hr 34 min 37 sec) 

Region of Interest Statistics
cpu0_DTLB TOTAL     ACCESS:    6166969  HIT:    6162090  MISS:       4879
cpu0_DTLB LOAD      ACCESS:    4148750  HIT:    4144683  MISS:       4067
cpu0_DTLB RFO       ACCESS:    2018219  HIT:    2017407  MISS:        812
cpu0_DTLB PREFETCH  ACCESS:          0  HIT:          0  MISS:          0
cpu0_DTLB WRITEBACK ACCESS:          0  HIT:          0  MISS:          0
cpu0_ITLB TOTAL     ACCESS:    2739195  HIT:    2739195  MISS:          0
cpu0_ITLB LOAD      ACCESS:    2739195  HIT:    2739195  MISS:          0
cpu0_ITLB RFO       ACCESS:          0  HIT:          0  MISS:          0
cpu0_ITLB PREFETCH  ACCESS:          0  HIT:          0  MISS:          0
cpu0_ITLB WRITEBACK ACCESS:          0  HIT:          0  MISS:          0
cpu0_L1I TOTAL     ACCESS:    1195783  HIT:    1192560  MISS:       3223
cpu0_L1I LOAD      ACCESS:    1195783  HIT:    1192560  MISS:       3223
cpu0_L1I RFO       ACCESS:          0  HIT:          0  MISS:          0
cpu0_L1I PREFETCH  ACCESS:          0  HIT:          0  MISS:          0
cpu0_L1I WRITEBACK ACCESS:          0  HIT:          0  MISS:          0
cpu0_STLB TOTAL     ACCESS:       4879  HIT:       4607  MISS:        272
cpu0_STLB LOAD      ACCESS:       4067  HIT:       3824  MISS:        243
cpu0_STLB RFO       ACCESS:        812  HIT:        783  MISS:         29
cpu0_STLB PREFETCH  ACCESS:          0  HIT:          0  MISS:          0
cpu0_STLB WRITEBACK ACCESS:          0  HIT:          0  MISS:          0
cpu0_L1D TOTAL     ACCESS:    7697333  HIT:    7690943  MISS:       6390
cpu0_L1D LOAD      ACCESS:    3907755  HIT:    3901611  MISS:       6144
cpu0_L1D RFO       ACCESS:    3789306  HIT:    3789066  MISS:        240
cpu0_L1D PREFETCH  ACCESS:          0  HIT:          0  MISS:          0
cpu0_L1D WRITEBACK ACCESS:          0  HIT:          0  MISS:          0
cpu0_L2C TOTAL     ACCESS:      10314  HIT:       3990  MISS:       6324
cpu0_L2C LOAD      ACCESS:       9367  HIT:       3237  MISS:       6130
cpu0_L2C RFO       ACCESS:        240  HIT:         49  MISS:        191
cpu0_L2C PREFETCH  ACCESS:          0  HIT:          0  MISS:          0
cpu0_L2C WRITEBACK ACCESS:        701  HIT:        699  MISS:          2
LLC TOTAL     ACCESS:       7360  HIT:        764  MISS:       6596
LLC LOAD      ACCESS:       6130  HIT:         44  MISS:       6086
LLC RFO       ACCESS:        191  HIT:          9  MISS:        182
LLC PREFETCH  ACCESS:          0  HIT:          0  MISS:          0
LLC WRITEBACK ACCESS:       1038  HIT:        711  MISS:        327
Heartbeat CPU 0 instructions: 82000000 cycles: 41978145 heartbeat IPC: 1.01387 cumulative IPC: 1.08947 (Simulation time: 0 hr 35 min 38 sec) 

Region of Interest Statistics
cpu0_DTLB TOTAL     ACCESS:    6609321  HIT:    6604232  MISS:       5089
cpu0_DTLB LOAD      ACCESS:    4456087  HIT:    4451836  MISS:       4251
cpu0_DTLB RFO       ACCESS:    2153234  HIT:    2152396  MISS:        838
cpu0_DTLB PREFETCH  ACCESS:          0  HIT:          0  MISS:          0
cpu0_DTLB WRITEBACK ACCESS:          0  HIT:          0  MISS:          0
cpu0_ITLB TOTAL     ACCESS:    2946290  HIT:    2946290  MISS:          0
cpu0_ITLB LOAD      ACCESS:    2946290  HIT:    2946290  MISS:          0
cpu0_ITLB RFO       ACCESS:          0  HIT:          0  MISS:          0
cpu0_ITLB PREFETCH  ACCESS:          0  HIT:          0  MISS:          0
cpu0_ITLB WRITEBACK ACCESS:          0  HIT:          0  MISS:          0
cpu0_L1I TOTAL     ACCESS:    1233478  HIT:    1230128  MISS:       3350
cpu0_L1I LOAD      ACCESS:    1233478  HIT:    1230128  MISS:       3350
cpu0_L1I RFO       ACCESS:          0  HIT:          0  MISS:          0
cpu0_L1I PREFETCH  ACCESS:          0  HIT:          0  MISS:          0
cpu0_L1I WRITEBACK ACCESS:          0  HIT:          0  MISS:          0
cpu0_STLB TOTAL     ACCESS:       5089  HIT:       4807  MISS:        282
cpu0_STLB LOAD      ACCESS:       4251  HIT:       3998  MISS:        253
cpu0_STLB RFO       ACCESS:        838  HIT:        809  MISS:         29
cpu0_STLB PREFETCH  ACCESS:          0  HIT:          0  MISS:          0
cpu0_STLB WRITEBACK ACCESS:          0  HIT:          0  MISS:          0
cpu0_L1D TOTAL     ACCESS:    8208955  HIT:    8202301  MISS:       6654
cpu0_L1D LOAD      ACCESS:    4189181  HIT:    4182778  MISS:       6403
cpu0_L1D RFO       ACCESS:    4019492  HIT:    4019247  MISS:        245
cpu0_L1D PREFETCH  ACCESS:          0  HIT:          0  MISS:          0
cpu0_L1D WRITEBACK ACCESS:          0  HIT:          0  MISS:          0
cpu0_L2C TOTAL     ACCESS:      10725  HIT:       4138  MISS:       6587
cpu0_L2C LOAD      ACCESS:       9753  HIT:       3365  MISS:       6388
cpu0_L2C RFO       ACCESS:        245  HIT:         49  MISS:        196
cpu0_L2C PREFETCH  ACCESS:          0  HIT:          0  MISS:          0
cpu0_L2C WRITEBACK ACCESS:        721  HIT:        719  MISS:          2
LLC TOTAL     ACCESS:       7656  HIT:        794  MISS:       6862
LLC LOAD      ACCESS:       6388  HIT:         45  MISS:       6343
LLC RFO       ACCESS:        196  HIT:          9  MISS:        187
LLC PREFETCH  ACCESS:          0  HIT:          0  MISS:          0
LLC WRITEBACK ACCESS:       1071  HIT:        740  MISS:        331
Heartbeat CPU 0 instructions: 84000000 cycles: 43942091 heartbeat IPC: 1.01836 cumulative IPC: 1.08501 (Simulation time: 0 hr 36 min 35 sec) 

Region of Interest Statistics
cpu0_DTLB TOTAL     ACCESS:    7054046  HIT:    7048648  MISS:       5398
cpu0_DTLB LOAD      ACCESS:    4750998  HIT:    4746492  MISS:       4506
cpu0_DTLB RFO       ACCESS:    2303048  HIT:    2302156  MISS:        892
cpu0_DTLB PREFETCH  ACCESS:          0  HIT:          0  MISS:          0
cpu0_DTLB WRITEBACK ACCESS:          0  HIT:          0  MISS:          0
cpu0_ITLB TOTAL     ACCESS:    3142408  HIT:    3142408  MISS:          0
cpu0_ITLB LOAD      ACCESS:    3142408  HIT:    3142408  MISS:          0
cpu0_ITLB RFO       ACCESS:          0  HIT:          0  MISS:          0
cpu0_ITLB PREFETCH  ACCESS:          0  HIT:          0  MISS:          0
cpu0_ITLB WRITEBACK ACCESS:          0  HIT:          0  MISS:          0
cpu0_L1I TOTAL     ACCESS:    1284744  HIT:    1281185  MISS:       3559
cpu0_L1I LOAD      ACCESS:    1284744  HIT:    1281185  MISS:       3559
cpu0_L1I RFO       ACCESS:          0  HIT:          0  MISS:          0
cpu0_L1I PREFETCH  ACCESS:          0  HIT:          0  MISS:          0
cpu0_L1I WRITEBACK ACCESS:          0  HIT:          0  MISS:          0
cpu0_STLB TOTAL     ACCESS:       5398  HIT:       5101  MISS:        297
cpu0_STLB LOAD      ACCESS:       4506  HIT:       4239  MISS:        267
cpu0_STLB RFO       ACCESS:        892  HIT:        862  MISS:         30
cpu0_STLB PREFETCH  ACCESS:          0  HIT:          0  MISS:          0
cpu0_STLB WRITEBACK ACCESS:          0  HIT:          0  MISS:          0
cpu0_L1D TOTAL     ACCESS:    8762818  HIT:    8755736  MISS:       7082
cpu0_L1D LOAD      ACCESS:    4461885  HIT:    4455067  MISS:       6818
cpu0_L1D RFO       ACCESS:    4300636  HIT:    4300379  MISS:        257
cpu0_L1D PREFETCH  ACCESS:          0  HIT:          0  MISS:          0
cpu0_L1D WRITEBACK ACCESS:          0  HIT:          0  MISS:          0
cpu0_L2C TOTAL     ACCESS:      11403  HIT:       4394  MISS:       7009
cpu0_L2C LOAD      ACCESS:      10377  HIT:       3579  MISS:       6798
cpu0_L2C RFO       ACCESS:        257  HIT:         49  MISS:        208
cpu0_L2C PREFETCH  ACCESS:          0  HIT:          0  MISS:          0
cpu0_L2C WRITEBACK ACCESS:        762  HIT:        760  MISS:          2
LLC TOTAL     ACCESS:       8137  HIT:        844  MISS:       7293
LLC LOAD      ACCESS:       6798  HIT:         46  MISS:       6752
LLC RFO       ACCESS:        208  HIT:          9  MISS:        199
LLC PREFETCH  ACCESS:          0  HIT:          0  MISS:          0
LLC WRITEBACK ACCESS:       1130  HIT:        789  MISS:        341
Heartbeat CPU 0 instructions: 86000000 cycles: 45752839 heartbeat IPC: 1.10452 cumulative IPC: 1.08608 (Simulation time: 0 hr 37 min 28 sec) 

Region of Interest Statistics
cpu0_DTLB TOTAL     ACCESS:    7476727  HIT:    7471002  MISS:       5725
cpu0_DTLB LOAD      ACCESS:    5026538  HIT:    5021764  MISS:       4774
cpu0_DTLB RFO       ACCESS:    2450189  HIT:    2449238  MISS:        951
cpu0_DTLB PREFETCH  ACCESS:          0  HIT:          0  MISS:          0
cpu0_DTLB WRITEBACK ACCESS:          0  HIT:          0  MISS:          0
cpu0_ITLB TOTAL     ACCESS:    3321643  HIT:    3321643  MISS:          0
cpu0_ITLB LOAD      ACCESS:    3321643  HIT:    3321643  MISS:          0
cpu0_ITLB RFO       ACCESS:          0  HIT:          0  MISS:          0
cpu0_ITLB PREFETCH  ACCESS:          0  HIT:          0  MISS:          0
cpu0_ITLB WRITEBACK ACCESS:          0  HIT:          0  MISS:          0
cpu0_L1I TOTAL     ACCESS:    1363473  HIT:    1359715  MISS:       3758
cpu0_L1I LOAD      ACCESS:    1363473  HIT:    1359715  MISS:       3758
cpu0_L1I RFO       ACCESS:          0  HIT:          0  MISS:          0
cpu0_L1I PREFETCH  ACCESS:          0  HIT:          0  MISS:          0
cpu0_L1I WRITEBACK ACCESS:          0  HIT:          0  MISS:          0
cpu0_STLB TOTAL     ACCESS:       5725  HIT:       5413  MISS:        312
cpu0_STLB LOAD      ACCESS:       4774  HIT:       4495  MISS:        279
cpu0_STLB RFO       ACCESS:        951  HIT:        918  MISS:         33
cpu0_STLB PREFETCH  ACCESS:          0  HIT:          0  MISS:          0
cpu0_STLB WRITEBACK ACCESS:          0  HIT:          0  MISS:          0
cpu0_L1D TOTAL     ACCESS:    9310686  HIT:    9303169  MISS:       7517
cpu0_L1D LOAD      ACCESS:    4723704  HIT:    4716466  MISS:       7238
cpu0_L1D RFO       ACCESS:    4586670  HIT:    4586400  MISS:        270
cpu0_L1D PREFETCH  ACCESS:          0  HIT:          0  MISS:          0
cpu0_L1D WRITEBACK ACCESS:          0  HIT:          0  MISS:          0
cpu0_L2C TOTAL     ACCESS:      12091  HIT:       4655  MISS:       7436
cpu0_L2C LOAD      ACCESS:      10996  HIT:       3784  MISS:       7212
cpu0_L2C RFO       ACCESS:        270  HIT:         50  MISS:        220
cpu0_L2C PREFETCH  ACCESS:          0  HIT:          0  MISS:          0
cpu0_L2C WRITEBACK ACCESS:        816  HIT:        813  MISS:          3
LLC TOTAL     ACCESS:       8617  HIT:        887  MISS:       7730
LLC LOAD      ACCESS:       7212  HIT:         47  MISS:       7165
LLC RFO       ACCESS:        220  HIT:          9  MISS:        211
LLC PREFETCH  ACCESS:          0  HIT:          0  MISS:          0
LLC WRITEBACK ACCESS:       1184  HIT:        831  MISS:        353
Heartbeat CPU 0 instructions: 88000000 cycles: 47542712 heartbeat IPC: 1.1174 cumulative IPC: 1.08768 (Simulation time: 0 hr 38 min 18 sec) 

Region of Interest Statistics
cpu0_DTLB TOTAL     ACCESS:    7886977  HIT:    7881087  MISS:       5890
cpu0_DTLB LOAD      ACCESS:    5305606  HIT:    5300702  MISS:       4904
cpu0_DTLB RFO       ACCESS:    2581371  HIT:    2580385  MISS:        986
cpu0_DTLB PREFETCH  ACCESS:          0  HIT:          0  MISS:          0
cpu0_DTLB WRITEBACK ACCESS:          0  HIT:          0  MISS:          0
cpu0_ITLB TOTAL     ACCESS:    3498628  HIT:    3498628  MISS:          0
cpu0_ITLB LOAD      ACCESS:    3498628  HIT:    3498628  MISS:          0
cpu0_ITLB RFO       ACCESS:          0  HIT:          0  MISS:          0
cpu0_ITLB PREFETCH  ACCESS:          0  HIT:          0  MISS:          0
cpu0_ITLB WRITEBACK ACCESS:          0  HIT:          0  MISS:          0
cpu0_L1I TOTAL     ACCESS:    1446735  HIT:    1442809  MISS:       3926
cpu0_L1I LOAD      ACCESS:    1446735  HIT:    1442809  MISS:       3926
cpu0_L1I RFO       ACCESS:          0  HIT:          0  MISS:          0
cpu0_L1I PREFETCH  ACCESS:          0  HIT:          0  MISS:          0
cpu0_L1I WRITEBACK ACCESS:          0  HIT:          0  MISS:          0
cpu0_STLB TOTAL     ACCESS:       5890  HIT:       5568  MISS:        322
cpu0_STLB LOAD      ACCESS:       4904  HIT:       4615  MISS:        289
cpu0_STLB RFO       ACCESS:        986  HIT:        953  MISS:         33
cpu0_STLB PREFETCH  ACCESS:          0  HIT:          0  MISS:          0
cpu0_STLB WRITEBACK ACCESS:          0  HIT:          0  MISS:          0
cpu0_L1D TOTAL     ACCESS:    9812560  HIT:    9804791  MISS:       7769
cpu0_L1D LOAD      ACCESS:    4984104  HIT:    4976637  MISS:       7467
cpu0_L1D RFO       ACCESS:    4828134  HIT:    4827841  MISS:        293
cpu0_L1D PREFETCH  ACCESS:          0  HIT:          0  MISS:          0
cpu0_L1D WRITEBACK ACCESS:          0  HIT:          0  MISS:          0
cpu0_L2C TOTAL     ACCESS:      12535  HIT:       4864  MISS:       7671
cpu0_L2C LOAD      ACCESS:      11393  HIT:       3955  MISS:       7438
cpu0_L2C RFO       ACCESS:        293  HIT:         64  MISS:        229
cpu0_L2C PREFETCH  ACCESS:          0  HIT:          0  MISS:          0
cpu0_L2C WRITEBACK ACCESS:        840  HIT:        837  MISS:          3
LLC TOTAL     ACCESS:       8892  HIT:        923  MISS:       7969
LLC LOAD      ACCESS:       7438  HIT:         47  MISS:       7391
LLC RFO       ACCESS:        229  HIT:          9  MISS:        220
LLC PREFETCH  ACCESS:          0  HIT:          0  MISS:          0
LLC WRITEBACK ACCESS:       1224  HIT:        867  MISS:        357
Heartbeat CPU 0 instructions: 90000000 cycles: 49373810 heartbeat IPC: 1.09224 cumulative IPC: 1.08791 (Simulation time: 0 hr 39 min 15 sec) 

Region of Interest Statistics
cpu0_DTLB TOTAL     ACCESS:    8303931  HIT:    8297751  MISS:       6180
cpu0_DTLB LOAD      ACCESS:    5597022  HIT:    5591879  MISS:       5143
cpu0_DTLB RFO       ACCESS:    2706909  HIT:    2705872  MISS:       1037
cpu0_DTLB PREFETCH  ACCESS:          0  HIT:          0  MISS:          0
cpu0_DTLB WRITEBACK ACCESS:          0  HIT:          0  MISS:          0
cpu0_ITLB TOTAL     ACCESS:    3675439  HIT:    3675439  MISS:          0
cpu0_ITLB LOAD      ACCESS:    3675439  HIT:    3675439  MISS:          0
cpu0_ITLB RFO       ACCESS:          0  HIT:          0  MISS:          0
cpu0_ITLB PREFETCH  ACCESS:          0  HIT:          0  MISS:          0
cpu0_ITLB WRITEBACK ACCESS:          0  HIT:          0  MISS:          0
cpu0_L1I TOTAL     ACCESS:    1515468  HIT:    1511288  MISS:       4180
cpu0_L1I LOAD      ACCESS:    1515468  HIT:    1511288  MISS:       4180
cpu0_L1I RFO       ACCESS:          0  HIT:          0  MISS:          0
cpu0_L1I PREFETCH  ACCESS:          0  HIT:          0  MISS:          0
cpu0_L1I WRITEBACK ACCESS:          0  HIT:          0  MISS:          0
cpu0_STLB TOTAL     ACCESS:       6180  HIT:       5845  MISS:        335
cpu0_STLB LOAD      ACCESS:       5143  HIT:       4842  MISS:        301
cpu0_STLB RFO       ACCESS:       1037  HIT:       1003  MISS:         34
cpu0_STLB PREFETCH  ACCESS:          0  HIT:          0  MISS:          0
cpu0_STLB WRITEBACK ACCESS:          0  HIT:          0  MISS:          0
cpu0_L1D TOTAL     ACCESS:   10298029  HIT:   10289841  MISS:       8188
cpu0_L1D LOAD      ACCESS:    5244583  HIT:    5236712  MISS:       7871
cpu0_L1D RFO       ACCESS:    5053111  HIT:    5052803  MISS:        308
cpu0_L1D PREFETCH  ACCESS:          0  HIT:          0  MISS:          0
cpu0_L1D WRITEBACK ACCESS:          0  HIT:          0  MISS:          0
cpu0_L2C TOTAL     ACCESS:      13260  HIT:       5181  MISS:       8079
cpu0_L2C LOAD      ACCESS:      12051  HIT:       4215  MISS:       7836
cpu0_L2C RFO       ACCESS:        308  HIT:         69  MISS:        239
cpu0_L2C PREFETCH  ACCESS:          0  HIT:          0  MISS:          0
cpu0_L2C WRITEBACK ACCESS:        892  HIT:        889  MISS:          3
LLC TOTAL     ACCESS:       9337  HIT:        953  MISS:       8384
LLC LOAD      ACCESS:       7836  HIT:         48  MISS:       7788
LLC RFO       ACCESS:        239  HIT:          9  MISS:        230
LLC PREFETCH  ACCESS:          0  HIT:          0  MISS:          0
LLC WRITEBACK ACCESS:       1261  HIT:        896  MISS:        365
Heartbeat CPU 0 instructions: 92000003 cycles: 51300180 heartbeat IPC: 1.03822 cumulative IPC: 1.08543 (Simulation time: 0 hr 40 min 7 sec) 

Region of Interest Statistics
cpu0_DTLB TOTAL     ACCESS:    8721270  HIT:    8714729  MISS:       6541
cpu0_DTLB LOAD      ACCESS:    5879171  HIT:    5873725  MISS:       5446
cpu0_DTLB RFO       ACCESS:    2842099  HIT:    2841004  MISS:       1095
cpu0_DTLB PREFETCH  ACCESS:          0  HIT:          0  MISS:          0
cpu0_DTLB WRITEBACK ACCESS:          0  HIT:          0  MISS:          0
cpu0_ITLB TOTAL     ACCESS:    3856266  HIT:    3856266  MISS:          0
cpu0_ITLB LOAD      ACCESS:    3856266  HIT:    3856266  MISS:          0
cpu0_ITLB RFO       ACCESS:          0  HIT:          0  MISS:          0
cpu0_ITLB PREFETCH  ACCESS:          0  HIT:          0  MISS:          0
cpu0_ITLB WRITEBACK ACCESS:          0  HIT:          0  MISS:          0
cpu0_L1I TOTAL     ACCESS:    1594765  HIT:    1590352  MISS:       4413
cpu0_L1I LOAD      ACCESS:    1594765  HIT:    1590352  MISS:       4413
cpu0_L1I RFO       ACCESS:          0  HIT:          0  MISS:          0
cpu0_L1I PREFETCH  ACCESS:          0  HIT:          0  MISS:          0
cpu0_L1I WRITEBACK ACCESS:          0  HIT:          0  MISS:          0
cpu0_STLB TOTAL     ACCESS:       6541  HIT:       6193  MISS:        348
cpu0_STLB LOAD      ACCESS:       5446  HIT:       5133  MISS:        313
cpu0_STLB RFO       ACCESS:       1095  HIT:       1060  MISS:         35
cpu0_STLB PREFETCH  ACCESS:          0  HIT:          0  MISS:          0
cpu0_STLB WRITEBACK ACCESS:          0  HIT:          0  MISS:          0
cpu0_L1D TOTAL     ACCESS:   10816274  HIT:   10807662  MISS:       8612
cpu0_L1D LOAD      ACCESS:    5506774  HIT:    5498493  MISS:       8281
cpu0_L1D RFO       ACCESS:    5309152  HIT:    5308830  MISS:        322
cpu0_L1D PREFETCH  ACCESS:          0  HIT:          0  MISS:          0
cpu0_L1D WRITEBACK ACCESS:          0  HIT:          0  MISS:          0
cpu0_L2C TOTAL     ACCESS:      13963  HIT:       5455  MISS:       8508
cpu0_L2C LOAD      ACCESS:      12694  HIT:       4441  MISS:       8253
cpu0_L2C RFO       ACCESS:        322  HIT:         71  MISS:        251
cpu0_L2C PREFETCH  ACCESS:          0  HIT:          0  MISS:          0
cpu0_L2C WRITEBACK ACCESS:        938  HIT:        935  MISS:          3
LLC TOTAL     ACCESS:       9809  HIT:        999  MISS:       8810
LLC LOAD      ACCESS:       8253  HIT:         59  MISS:       8194
LLC RFO       ACCESS:        251  HIT:          9  MISS:        242
LLC PREFETCH  ACCESS:          0  HIT:          0  MISS:          0
LLC WRITEBACK ACCESS:       1304  HIT:        931  MISS:        373
Heartbeat CPU 0 instructions: 94000003 cycles: 53318606 heartbeat IPC: 0.990871 cumulative IPC: 1.08075 (Simulation time: 0 hr 41 min 2 sec) 

Region of Interest Statistics
cpu0_DTLB TOTAL     ACCESS:    9150082  HIT:    9143271  MISS:       6811
cpu0_DTLB LOAD      ACCESS:    6170403  HIT:    6164732  MISS:       5671
cpu0_DTLB RFO       ACCESS:    2979679  HIT:    2978539  MISS:       1140
cpu0_DTLB PREFETCH  ACCESS:          0  HIT:          0  MISS:          0
cpu0_DTLB WRITEBACK ACCESS:          0  HIT:          0  MISS:          0
cpu0_ITLB TOTAL     ACCESS:    4055110  HIT:    4055110  MISS:          0
cpu0_ITLB LOAD      ACCESS:    4055110  HIT:    4055110  MISS:          0
cpu0_ITLB RFO       ACCESS:          0  HIT:          0  MISS:          0
cpu0_ITLB PREFETCH  ACCESS:          0  HIT:          0  MISS:          0
cpu0_ITLB WRITEBACK ACCESS:          0  HIT:          0  MISS:          0
cpu0_L1I TOTAL     ACCESS:    1655243  HIT:    1650672  MISS:       4571
cpu0_L1I LOAD      ACCESS:    1655243  HIT:    1650672  MISS:       4571
cpu0_L1I RFO       ACCESS:          0  HIT:          0  MISS:          0
cpu0_L1I PREFETCH  ACCESS:          0  HIT:          0  MISS:          0
cpu0_L1I WRITEBACK ACCESS:          0  HIT:          0  MISS:          0
cpu0_STLB TOTAL     ACCESS:       6811  HIT:       6446  MISS:        365
cpu0_STLB LOAD      ACCESS:       5671  HIT:       5343  MISS:        328
cpu0_STLB RFO       ACCESS:       1140  HIT:       1103  MISS:         37
cpu0_STLB PREFETCH  ACCESS:          0  HIT:          0  MISS:          0
cpu0_STLB WRITEBACK ACCESS:          0  HIT:          0  MISS:          0
cpu0_L1D TOTAL     ACCESS:   11340524  HIT:   11331527  MISS:       8997
cpu0_L1D LOAD      ACCESS:    5782793  HIT:    5774138  MISS:       8655
cpu0_L1D RFO       ACCESS:    5557366  HIT:    5557034  MISS:        332
cpu0_L1D PREFETCH  ACCESS:          0  HIT:          0  MISS:          0
cpu0_L1D WRITEBACK ACCESS:          0  HIT:          0  MISS:          0
cpu0_L2C TOTAL     ACCESS:      14551  HIT:       5665  MISS:       8886
cpu0_L2C LOAD      ACCESS:      13226  HIT:       4606  MISS:       8620
cpu0_L2C RFO       ACCESS:        332  HIT:         72  MISS:        260
cpu0_L2C PREFETCH  ACCESS:          0  HIT:          0  MISS:          0
cpu0_L2C WRITEBACK ACCESS:        983  HIT:        978  MISS:          5
LLC TOTAL     ACCESS:      10227  HIT:       1038  MISS:       9189
LLC LOAD      ACCESS:       8620  HIT:         63  MISS:       8557
LLC RFO       ACCESS:        260  HIT:          9  MISS:        251
LLC PREFETCH  ACCESS:          0  HIT:          0  MISS:          0
LLC WRITEBACK ACCESS:       1346  HIT:        966  MISS:        380
Heartbeat CPU 0 instructions: 96000004 cycles: 55347375 heartbeat IPC: 0.98582 cumulative IPC: 1.07624 (Simulation time: 0 hr 42 min 0 sec) 

Region of Interest Statistics
cpu0_DTLB TOTAL     ACCESS:    9595711  HIT:    9588763  MISS:       6948
cpu0_DTLB LOAD      ACCESS:    6467080  HIT:    6461299  MISS:       5781
cpu0_DTLB RFO       ACCESS:    3128631  HIT:    3127464  MISS:       1167
cpu0_DTLB PREFETCH  ACCESS:          0  HIT:          0  MISS:          0
cpu0_DTLB WRITEBACK ACCESS:          0  HIT:          0  MISS:          0
cpu0_ITLB TOTAL     ACCESS:    4266734  HIT:    4266734  MISS:          0
cpu0_ITLB LOAD      ACCESS:    4266734  HIT:    4266734  MISS:          0
cpu0_ITLB RFO       ACCESS:          0  HIT:          0  MISS:          0
cpu0_ITLB PREFETCH  ACCESS:          0  HIT:          0  MISS:          0
cpu0_ITLB WRITEBACK ACCESS:          0  HIT:          0  MISS:          0
cpu0_L1I TOTAL     ACCESS:    1697424  HIT:    1692762  MISS:       4662
cpu0_L1I LOAD      ACCESS:    1697424  HIT:    1692762  MISS:       4662
cpu0_L1I RFO       ACCESS:          0  HIT:          0  MISS:          0
cpu0_L1I PREFETCH  ACCESS:          0  HIT:          0  MISS:          0
cpu0_L1I WRITEBACK ACCESS:          0  HIT:          0  MISS:          0
cpu0_STLB TOTAL     ACCESS:       6948  HIT:       6577  MISS:        371
cpu0_STLB LOAD      ACCESS:       5781  HIT:       5447  MISS:        334
cpu0_STLB RFO       ACCESS:       1167  HIT:       1130  MISS:         37
cpu0_STLB PREFETCH  ACCESS:          0  HIT:          0  MISS:          0
cpu0_STLB WRITEBACK ACCESS:          0  HIT:          0  MISS:          0
cpu0_L1D TOTAL     ACCESS:   11890171  HIT:   11880996  MISS:       9175
cpu0_L1D LOAD      ACCESS:    6066504  HIT:    6057678  MISS:       8826
cpu0_L1D RFO       ACCESS:    5823296  HIT:    5822957  MISS:        339
cpu0_L1D PREFETCH  ACCESS:          0  HIT:          0  MISS:          0
cpu0_L1D WRITEBACK ACCESS:          0  HIT:          0  MISS:          0
cpu0_L2C TOTAL     ACCESS:      14837  HIT:       5775  MISS:       9062
cpu0_L2C LOAD      ACCESS:      13488  HIT:       4698  MISS:       8790
cpu0_L2C RFO       ACCESS:        339  HIT:         73  MISS:        266
cpu0_L2C PREFETCH  ACCESS:          0  HIT:          0  MISS:          0
cpu0_L2C WRITEBACK ACCESS:       1000  HIT:        995  MISS:          5
LLC TOTAL     ACCESS:      10420  HIT:       1053  MISS:       9367
LLC LOAD      ACCESS:       8790  HIT:         63  MISS:       8727
LLC RFO       ACCESS:        266  HIT:          9  MISS:        257
LLC PREFETCH  ACCESS:          0  HIT:          0  MISS:          0
LLC WRITEBACK ACCESS:       1363  HIT:        981  MISS:        382
Heartbeat CPU 0 instructions: 98000001 cycles: 57354366 heartbeat IPC: 0.996515 cumulative IPC: 1.07266 (Simulation time: 0 hr 42 min 58 sec) 

Region of Interest Statistics
cpu0_DTLB TOTAL     ACCESS:   10050924  HIT:   10043762  MISS:       7162
cpu0_DTLB LOAD      ACCESS:    6769269  HIT:    6763305  MISS:       5964
cpu0_DTLB RFO       ACCESS:    3281655  HIT:    3280457  MISS:       1198
cpu0_DTLB PREFETCH  ACCESS:          0  HIT:          0  MISS:          0
cpu0_DTLB WRITEBACK ACCESS:          0  HIT:          0  MISS:          0
cpu0_ITLB TOTAL     ACCESS:    4477901  HIT:    4477901  MISS:          0
cpu0_ITLB LOAD      ACCESS:    4477901  HIT:    4477901  MISS:          0
cpu0_ITLB RFO       ACCESS:          0  HIT:          0  MISS:          0
cpu0_ITLB PREFETCH  ACCESS:          0  HIT:          0  MISS:          0
cpu0_ITLB WRITEBACK ACCESS:          0  HIT:          0  MISS:          0
cpu0_L1I TOTAL     ACCESS:    1728745  HIT:    1723981  MISS:       4764
cpu0_L1I LOAD      ACCESS:    1728745  HIT:    1723981  MISS:       4764
cpu0_L1I RFO       ACCESS:          0  HIT:          0  MISS:          0
cpu0_L1I PREFETCH  ACCESS:          0  HIT:          0  MISS:          0
cpu0_L1I WRITEBACK ACCESS:          0  HIT:          0  MISS:          0
cpu0_STLB TOTAL     ACCESS:       7162  HIT:       6776  MISS:        386
cpu0_STLB LOAD      ACCESS:       5964  HIT:       5616  MISS:        348
cpu0_STLB RFO       ACCESS:       1198  HIT:       1160  MISS:         38
cpu0_STLB PREFETCH  ACCESS:          0  HIT:          0  MISS:          0
cpu0_STLB WRITEBACK ACCESS:          0  HIT:          0  MISS:          0
cpu0_L1D TOTAL     ACCESS:   12453034  HIT:   12443566  MISS:       9468
cpu0_L1D LOAD      ACCESS:    6348619  HIT:    6339506  MISS:       9113
cpu0_L1D RFO       ACCESS:    6104029  HIT:    6103685  MISS:        344
cpu0_L1D PREFETCH  ACCESS:          0  HIT:          0  MISS:          0
cpu0_L1D WRITEBACK ACCESS:          0  HIT:          0  MISS:          0
cpu0_L2C TOTAL     ACCESS:      15262  HIT:       5914  MISS:       9348
cpu0_L2C LOAD      ACCESS:      13877  HIT:       4806  MISS:       9071
cpu0_L2C RFO       ACCESS:        344  HIT:         73  MISS:        271
cpu0_L2C PREFETCH  ACCESS:          0  HIT:          0  MISS:          0
cpu0_L2C WRITEBACK ACCESS:       1030  HIT:       1025  MISS:          5
LLC TOTAL     ACCESS:      10733  HIT:       1074  MISS:       9659
LLC LOAD      ACCESS:       9071  HIT:         63  MISS:       9008
LLC RFO       ACCESS:        271  HIT:          9  MISS:        262
LLC PREFETCH  ACCESS:          0  HIT:          0  MISS:          0
LLC WRITEBACK ACCESS:       1390  HIT:       1002  MISS:        388
Heartbeat CPU 0 instructions: 100000001 cycles: 59216878 heartbeat IPC: 1.07382 cumulative IPC: 1.07271 (Simulation time: 0 hr 43 min 53 sec) 

Region of Interest Statistics
cpu0_DTLB TOTAL     ACCESS:   10462737  HIT:   10455175  MISS:       7562
cpu0_DTLB LOAD      ACCESS:    7053065  HIT:    7046775  MISS:       6290
cpu0_DTLB RFO       ACCESS:    3409672  HIT:    3408400  MISS:       1272
cpu0_DTLB PREFETCH  ACCESS:          0  HIT:          0  MISS:          0
cpu0_DTLB WRITEBACK ACCESS:          0  HIT:          0  MISS:          0
cpu0_ITLB TOTAL     ACCESS:    4655442  HIT:    4655442  MISS:          0
cpu0_ITLB LOAD      ACCESS:    4655442  HIT:    4655442  MISS:          0
cpu0_ITLB RFO       ACCESS:          0  HIT:          0  MISS:          0
cpu0_ITLB PREFETCH  ACCESS:          0  HIT:          0  MISS:          0
cpu0_ITLB WRITEBACK ACCESS:          0  HIT:          0  MISS:          0
cpu0_L1I TOTAL     ACCESS:    1805706  HIT:    1800679  MISS:       5027
cpu0_L1I LOAD      ACCESS:    1805706  HIT:    1800679  MISS:       5027
cpu0_L1I RFO       ACCESS:          0  HIT:          0  MISS:          0
cpu0_L1I PREFETCH  ACCESS:          0  HIT:          0  MISS:          0
cpu0_L1I WRITEBACK ACCESS:          0  HIT:          0  MISS:          0
cpu0_STLB TOTAL     ACCESS:       7562  HIT:       7161  MISS:        401
cpu0_STLB LOAD      ACCESS:       6290  HIT:       5929  MISS:        361
cpu0_STLB RFO       ACCESS:       1272  HIT:       1232  MISS:         40
cpu0_STLB PREFETCH  ACCESS:          0  HIT:          0  MISS:          0
cpu0_STLB WRITEBACK ACCESS:          0  HIT:          0  MISS:          0
cpu0_L1D TOTAL     ACCESS:   12949795  HIT:   12939776  MISS:      10019
cpu0_L1D LOAD      ACCESS:    6610648  HIT:    6600998  MISS:       9650
cpu0_L1D RFO       ACCESS:    6338746  HIT:    6338388  MISS:        358
cpu0_L1D PREFETCH  ACCESS:          0  HIT:          0  MISS:          0
cpu0_L1D WRITEBACK ACCESS:          0  HIT:          0  MISS:          0
cpu0_L2C TOTAL     ACCESS:      16131  HIT:       6240  MISS:       9891
cpu0_L2C LOAD      ACCESS:      14677  HIT:       5076  MISS:       9601
cpu0_L2C RFO       ACCESS:        358  HIT:         74  MISS:        284
cpu0_L2C PREFETCH  ACCESS:          0  HIT:          0  MISS:          0
cpu0_L2C WRITEBACK ACCESS:       1085  HIT:       1080  MISS:          5
LLC TOTAL     ACCESS:      11341  HIT:       1129  MISS:      10212
LLC LOAD      ACCESS:       9601  HIT:         71  MISS:       9530
LLC RFO       ACCESS:        284  HIT:          9  MISS:        275
LLC PREFETCH  ACCESS:          0  HIT:          0  MISS:          0
LLC WRITEBACK ACCESS:       1455  HIT:       1049  MISS:        406
Heartbeat CPU 0 instructions: 102000001 cycles: 61151568 heartbeat IPC: 1.03376 cumulative IPC: 1.07116 (Simulation time: 0 hr 44 min 55 sec) 

Region of Interest Statistics
cpu0_DTLB TOTAL     ACCESS:   10891222  HIT:   10883472  MISS:       7750
cpu0_DTLB LOAD      ACCESS:    7365604  HIT:    7359157  MISS:       6447
cpu0_DTLB RFO       ACCESS:    3525618  HIT:    3524315  MISS:       1303
cpu0_DTLB PREFETCH  ACCESS:          0  HIT:          0  MISS:          0
cpu0_DTLB WRITEBACK ACCESS:          0  HIT:          0  MISS:          0
cpu0_ITLB TOTAL     ACCESS:    4853983  HIT:    4853983  MISS:          0
cpu0_ITLB LOAD      ACCESS:    4853983  HIT:    4853983  MISS:          0
cpu0_ITLB RFO       ACCESS:          0  HIT:          0  MISS:          0
cpu0_ITLB PREFETCH  ACCESS:          0  HIT:          0  MISS:          0
cpu0_ITLB WRITEBACK ACCESS:          0  HIT:          0  MISS:          0
cpu0_L1I TOTAL     ACCESS:    1843193  HIT:    1838027  MISS:       5166
cpu0_L1I LOAD      ACCESS:    1843193  HIT:    1838027  MISS:       5166
cpu0_L1I RFO       ACCESS:          0  HIT:          0  MISS:          0
cpu0_L1I PREFETCH  ACCESS:          0  HIT:          0  MISS:          0
cpu0_L1I WRITEBACK ACCESS:          0  HIT:          0  MISS:          0
cpu0_STLB TOTAL     ACCESS:       7750  HIT:       7343  MISS:        407
cpu0_STLB LOAD      ACCESS:       6447  HIT:       6081  MISS:        366
cpu0_STLB RFO       ACCESS:       1303  HIT:       1262  MISS:         41
cpu0_STLB PREFETCH  ACCESS:          0  HIT:          0  MISS:          0
cpu0_STLB WRITEBACK ACCESS:          0  HIT:          0  MISS:          0
cpu0_L1D TOTAL     ACCESS:   13391932  HIT:   13381660  MISS:      10272
cpu0_L1D LOAD      ACCESS:    6883542  HIT:    6873646  MISS:       9896
cpu0_L1D RFO       ACCESS:    6507983  HIT:    6507618  MISS:        365
cpu0_L1D PREFETCH  ACCESS:          0  HIT:          0  MISS:          0
cpu0_L1D WRITEBACK ACCESS:          0  HIT:          0  MISS:          0
cpu0_L2C TOTAL     ACCESS:      16547  HIT:       6408  MISS:      10139
cpu0_L2C LOAD      ACCESS:      15062  HIT:       5219  MISS:       9843
cpu0_L2C RFO       ACCESS:        365  HIT:         75  MISS:        290
cpu0_L2C PREFETCH  ACCESS:          0  HIT:          0  MISS:          0
cpu0_L2C WRITEBACK ACCESS:       1109  HIT:       1104  MISS:          5
LLC TOTAL     ACCESS:      11613  HIT:       1152  MISS:      10461
LLC LOAD      ACCESS:       9843  HIT:         73  MISS:       9770
LLC RFO       ACCESS:        290  HIT:          9  MISS:        281
LLC PREFETCH  ACCESS:          0  HIT:          0  MISS:          0
LLC WRITEBACK ACCESS:       1479  HIT:       1070  MISS:        409
Heartbeat CPU 0 instructions: 104000003 cycles: 62862791 heartbeat IPC: 1.16876 cumulative IPC: 1.07448 (Simulation time: 0 hr 45 min 45 sec) 

Region of Interest Statistics
cpu0_DTLB TOTAL     ACCESS:   11288944  HIT:   11280818  MISS:       8126
cpu0_DTLB LOAD      ACCESS:    7629792  HIT:    7623041  MISS:       6751
cpu0_DTLB RFO       ACCESS:    3659152  HIT:    3657777  MISS:       1375
cpu0_DTLB PREFETCH  ACCESS:          0  HIT:          0  MISS:          0
cpu0_DTLB WRITEBACK ACCESS:          0  HIT:          0  MISS:          0
cpu0_ITLB TOTAL     ACCESS:    5019685  HIT:    5019685  MISS:          0
cpu0_ITLB LOAD      ACCESS:    5019685  HIT:    5019685  MISS:          0
cpu0_ITLB RFO       ACCESS:          0  HIT:          0  MISS:          0
cpu0_ITLB PREFETCH  ACCESS:          0  HIT:          0  MISS:          0
cpu0_ITLB WRITEBACK ACCESS:          0  HIT:          0  MISS:          0
cpu0_L1I TOTAL     ACCESS:    1943954  HIT:    1938550  MISS:       5404
cpu0_L1I LOAD      ACCESS:    1943954  HIT:    1938550  MISS:       5404
cpu0_L1I RFO       ACCESS:          0  HIT:          0  MISS:          0
cpu0_L1I PREFETCH  ACCESS:          0  HIT:          0  MISS:          0
cpu0_L1I WRITEBACK ACCESS:          0  HIT:          0  MISS:          0
cpu0_STLB TOTAL     ACCESS:       8126  HIT:       7705  MISS:        421
cpu0_STLB LOAD      ACCESS:       6751  HIT:       6373  MISS:        378
cpu0_STLB RFO       ACCESS:       1375  HIT:       1332  MISS:         43
cpu0_STLB PREFETCH  ACCESS:          0  HIT:          0  MISS:          0
cpu0_STLB WRITEBACK ACCESS:          0  HIT:          0  MISS:          0
cpu0_L1D TOTAL     ACCESS:   13902228  HIT:   13891505  MISS:      10723
cpu0_L1D LOAD      ACCESS:    7133985  HIT:    7123657  MISS:      10328
cpu0_L1D RFO       ACCESS:    6767822  HIT:    6767438  MISS:        384
cpu0_L1D PREFETCH  ACCESS:          0  HIT:          0  MISS:          0
cpu0_L1D WRITEBACK ACCESS:          0  HIT:          0  MISS:          0
cpu0_L2C TOTAL     ACCESS:      17281  HIT:       6697  MISS:      10584
cpu0_L2C LOAD      ACCESS:      15732  HIT:       5459  MISS:      10273
cpu0_L2C RFO       ACCESS:        384  HIT:         79  MISS:        305
cpu0_L2C PREFETCH  ACCESS:          0  HIT:          0  MISS:          0
cpu0_L2C WRITEBACK ACCESS:       1154  HIT:       1149  MISS:          5
LLC TOTAL     ACCESS:      12114  HIT:       1207  MISS:      10907
LLC LOAD      ACCESS:      10273  HIT:         77  MISS:      10196
LLC RFO       ACCESS:        305  HIT:          9  MISS:        296
LLC PREFETCH  ACCESS:          0  HIT:          0  MISS:          0
LLC WRITEBACK ACCESS:       1535  HIT:       1121  MISS:        414
Heartbeat CPU 0 instructions: 106000001 cycles: 64960577 heartbeat IPC: 0.953385 cumulative IPC: 1.06963 (Simulation time: 0 hr 46 min 38 sec) 

Region of Interest Statistics
cpu0_DTLB TOTAL     ACCESS:   11750479  HIT:   11742349  MISS:       8130
cpu0_DTLB LOAD      ACCESS:    7930410  HIT:    7923655  MISS:       6755
cpu0_DTLB RFO       ACCESS:    3820069  HIT:    3818694  MISS:       1375
cpu0_DTLB PREFETCH  ACCESS:          0  HIT:          0  MISS:          0
cpu0_DTLB WRITEBACK ACCESS:          0  HIT:          0  MISS:          0
cpu0_ITLB TOTAL     ACCESS:    5254510  HIT:    5254510  MISS:          0
cpu0_ITLB LOAD      ACCESS:    5254510  HIT:    5254510  MISS:          0
cpu0_ITLB RFO       ACCESS:          0  HIT:          0  MISS:          0
cpu0_ITLB PREFETCH  ACCESS:          0  HIT:          0  MISS:          0
cpu0_ITLB WRITEBACK ACCESS:          0  HIT:          0  MISS:          0
cpu0_L1I TOTAL     ACCESS:    1953974  HIT:    1948570  MISS:       5404
cpu0_L1I LOAD      ACCESS:    1953974  HIT:    1948570  MISS:       5404
cpu0_L1I RFO       ACCESS:          0  HIT:          0  MISS:          0
cpu0_L1I PREFETCH  ACCESS:          0  HIT:          0  MISS:          0
cpu0_L1I WRITEBACK ACCESS:          0  HIT:          0  MISS:          0
cpu0_STLB TOTAL     ACCESS:       8130  HIT:       7709  MISS:        421
cpu0_STLB LOAD      ACCESS:       6755  HIT:       6377  MISS:        378
cpu0_STLB RFO       ACCESS:       1375  HIT:       1332  MISS:         43
cpu0_STLB PREFETCH  ACCESS:          0  HIT:          0  MISS:          0
cpu0_STLB WRITEBACK ACCESS:          0  HIT:          0  MISS:          0
cpu0_L1D TOTAL     ACCESS:   14478020  HIT:   14467297  MISS:      10723
cpu0_L1D LOAD      ACCESS:    7422901  HIT:    7412573  MISS:      10328
cpu0_L1D RFO       ACCESS:    7054698  HIT:    7054314  MISS:        384
cpu0_L1D PREFETCH  ACCESS:          0  HIT:          0  MISS:          0
cpu0_L1D WRITEBACK ACCESS:          0  HIT:          0  MISS:          0
cpu0_L2C TOTAL     ACCESS:      17281  HIT:       6697  MISS:      10584
cpu0_L2C LOAD      ACCESS:      15732  HIT:       5459  MISS:      10273
cpu0_L2C RFO       ACCESS:        384  HIT:         79  MISS:        305
cpu0_L2C PREFETCH  ACCESS:          0  HIT:          0  MISS:          0
cpu0_L2C WRITEBACK ACCESS:       1154  HIT:       1149  MISS:          5
LLC TOTAL     ACCESS:      12114  HIT:       1207  MISS:      10907
[...]
cpu0_DTLB PREFETCH  ACCESS:          0  HIT:          0  MISS:          0
cpu0_DTLB WRITEBACK ACCESS:          0  HIT:          0  MISS:          0
cpu0_DTLB TRANSLATION ACCESS:          0  HIT:          0  MISS:          0
cpu0_DTLB PREFETCH  REQUESTED:          0  ISSUED:          0  USEFUL:          0  USELESS:          0
cpu0_DTLB AVERAGE MISS LATENCY: 9.42107 cycles
cpu0_ITLB TOTAL     ACCESS:  135246321  HIT:  135101102  MISS:     145219
cpu0_ITLB LOAD      ACCESS:  135246321  HIT:  135101102  MISS:     145219
cpu0_ITLB RFO       ACCESS:          0  HIT:          0  MISS:          0
cpu0_ITLB PREFETCH  ACCESS:          0  HIT:          0  MISS:          0
cpu0_ITLB WRITEBACK ACCESS:          0  HIT:          0  MISS:          0
cpu0_ITLB TRANSLATION ACCESS:          0  HIT:          0  MISS:          0
cpu0_ITLB PREFETCH  REQUESTED:          0  ISSUED:          0  USEFUL:          0  USELESS:          0
cpu0_ITLB AVERAGE MISS LATENCY: 9.35177 cycles
cpu0_L1I TOTAL     ACCESS:   83970339  HIT:   80546233  MISS:    3424106
cpu0_L1I LOAD      ACCESS:   83970339  HIT:   80546233  MISS:    3424106
cpu0_L1I RFO       ACCESS:          0  HIT:          0  MISS:          0
cpu0_L1I PREFETCH  ACCESS:          0  HIT:          0  MISS:          0
cpu0_L1I WRITEBACK ACCESS:          0  HIT:          0  MISS:          0
cpu0_L1I TRANSLATION ACCESS:          0  HIT:          0  MISS:          0
cpu0_L1I PREFETCH  REQUESTED:          0  ISSUED:          0  USEFUL:          0  USELESS:          0
cpu0_L1I AVERAGE MISS LATENCY: 14.4714 cycles
cpu0_STLB TOTAL     ACCESS:    3127666  HIT:    3023039  MISS:     104627
cpu0_STLB LOAD      ACCESS:    2714256  HIT:    2620043  MISS:      94213
cpu0_STLB RFO       ACCESS:     413410  HIT:     402996  MISS:      10414
cpu0_STLB PREFETCH  ACCESS:          0  HIT:          0  MISS:          0
cpu0_STLB WRITEBACK ACCESS:          0  HIT:          0  MISS:          0
cpu0_STLB TRANSLATION ACCESS:          0  HIT:          0  MISS:          0
cpu0_STLB PREFETCH  REQUESTED:          0  ISSUED:          0  USEFUL:          0  USELESS:          0
cpu0_STLB AVERAGE MISS LATENCY: 12.3496 cycles
cpu0_L1D TOTAL     ACCESS:  430840238  HIT:  426741805  MISS:    4098433
cpu0_L1D LOAD      ACCESS:  222323324  HIT:  218568391  MISS:    3754933
cpu0_L1D RFO       ACCESS:  208412596  HIT:  208079441  MISS:     333155
cpu0_L1D PREFETCH  ACCESS:          0  HIT:          0  MISS:          0
cpu0_L1D WRITEBACK ACCESS:          0  HIT:          0  MISS:          0
cpu0_L1D TRANSLATION ACCESS:     104318  HIT:      93973  MISS:      10345
cpu0_L1D PREFETCH  REQUESTED:          0  ISSUED:          0  USEFUL:          0  USELESS:          0
cpu0_L1D AVERAGE MISS LATENCY: 60.6696 cycles
cpu0_L2C TOTAL     ACCESS:    8510204  HIT:    6979133  MISS:    1531071
cpu0_L2C LOAD      ACCESS:    7178974  HIT:    5754663  MISS:    1424311
cpu0_L2C RFO       ACCESS:     333142  HIT:     230836  MISS:     102306
cpu0_L2C PREFETCH  ACCESS:          0  HIT:          0  MISS:          0
cpu0_L2C WRITEBACK ACCESS:     987743  HIT:     983845  MISS:       3898
cpu0_L2C TRANSLATION ACCESS:      10345  HIT:       9789  MISS:        556
cpu0_L2C PREFETCH  REQUESTED:          0  ISSUED:          0  USEFUL:          0  USELESS:          0
cpu0_L2C AVERAGE MISS LATENCY: 140.657 cycles
LLC TOTAL     ACCESS:    1816634  HIT:     453780  MISS:    1362854
LLC LOAD      ACCESS:    1424311  HIT:     263331  MISS:    1160980
LLC RFO       ACCESS:     102301  HIT:      33384  MISS:      68917
LLC PREFETCH  ACCESS:          0  HIT:          0  MISS:          0
LLC WRITEBACK ACCESS:     289466  HIT:     156652  MISS:     132814
LLC TRANSLATION ACCESS:        556  HIT:        413  MISS:        143
LLC PREFETCH  REQUESTED:          0  ISSUED:          0  USEFUL:          0  USELESS:          0
LLC AVERAGE MISS LATENCY: 134.486 cycles
~~~~~~~~~~Reuse Distance Profiler output~~~~~~~~~~
0	93728688	5416144
1	32395440	18215872
2	22547888	11225088
3	14500128	6615200
4	8807808	5793920
5	10068448	6121008
6	13675584	8810944
7	9146032	6900240
8	8698096	4604960
9	7626992	3759360
10	6414400	3474608
11	7015136	3708464
12	9537728	6801488
13	7872928	4992848
14	4930112	3542512
15	10196640	6869760
16	4835024	3796864
17	7476688	5766912
18	3265232	2468816
19	2603056	2198496
20	3415920	2981280
21	3414944	2941024
22	3534064	2281536
23	2864592	1442592
24	3580400	2513696
25	3979120	3476016
26	1989104	1647040
27	3157280	2457296
28	1565904	1032976
29	1539872	1078416
30	2810176	2521376
31	3362144	2848944
32	915216	549600
33	2111696	1288752
34	1294400	899744
35	1807824	926400
36	1380608	487328
37	953936	463232
38	1347184	833776
39	929072	401760
40	1702992	533120
41	1956928	1485952
42	1194480	441120
43	988736	334704
44	1635744	542368
45	1331424	811648
46	1408480	976096
47	1200128	650272
48	1454704	493952
49	1477696	844576
50	860032	468784
51	823136	357296
52	1178576	477376
53	5985200	3934096
54	1826544	1141888
55	4402768	3126560
56	926640	454480
57	2652432	1795984
58	1019840	622240
59	2122352	1229456
60	567616	301968
61	1542752	1001952
62	824960	454432
63	1087680	784960
64	1974176	1291440
66	1012720	589536
68	997520	628480
70	1427296	682112
72	1152304	577632
74	701664	428928
76	994784	785040
78	964864	698288
80	1015104	734064
82	743248	428208
84	821808	498608
86	611424	329312
88	765136	569472
90	814992	604096
92	712864	531616
94	962720	535520
96	635424	367168
98	540912	412208
100	431824	333328
102	717808	577216
104	1087040	655840
106	1373712	828304
108	4185952	2737632
110	1688240	1162752
112	502272	330656
114	441072	330064
116	749760	517776
118	704528	410352
120	1661984	1047712
122	1065568	671904
124	1139840	726896
126	556928	356336
128	877936	554512
132	861488	513328
136	1006032	614128
140	860608	577440
144	649040	446048
148	976816	627056
152	925504	620000
156	626400	461712
160	436240	339440
164	386384	292960
168	518416	399568
172	391392	289040
176	401632	291712
180	548944	373440
184	555488	382080
188	532944	367856
192	581376	375040
196	505952	368672
200	725152	474016
204	425872	285264
208	400336	306384
212	468720	336912
216	610000	432480
220	396224	283008
224	489328	297888
228	277264	179760
232	400304	266032
236	292688	207024
240	544704	309296
244	237792	159184
248	252464	160032
252	303296	213136
256	524016	392352
264	380048	287200
272	326752	222528
280	335888	231856
288	371488	239936
296	333856	247984
304	302624	217600
312	223312	173072
320	227296	166512
328	215344	172272
336	233056	167920
344	271744	195728
352	237680	170960
360	191488	144288
368	177264	138176
376	169664	130176
384	147824	113616
392	135920	102880
400	159952	120128
408	131648	97936
416	105616	75872
424	109776	81536
432	121920	94272
440	122192	94912
448	134752	106304
456	118080	92032
464	111568	83824
472	108320	86976
480	106256	84160
488	102160	83504
496	98176	80144
504	93104	75456
512	208000	166208
528	216032	178400
544	216528	182080
560	178080	141984
576	142960	109760
592	111856	89856
608	116656	91904
624	109920	84768
640	102976	80336
656	88224	65168
672	93536	65984
688	99696	73424
704	94000	72752
720	87392	64208
736	86880	65056
752	83616	60048
768	81888	62624
784	78976	57728
800	71744	55232
816	67216	51824
832	66016	49920
848	63584	49616
864	68752	54064
880	67520	55072
896	68640	53008
912	61616	48464
928	56896	44864
944	61968	48112
960	69712	53472
976	73056	56688
992	74960	57840
1008	74464	58224
1024	132144	106928
1056	123200	100256
1088	112976	91824
1120	109488	89184
1152	82304	66320
1184	85280	69008
1216	96224	74832
1248	91168	72112
1280	92464	78496
1312	89696	70096
1344	84496	63952
1376	74688	61616
1408	81552	65264
1440	111936	88256
1472	101600	82144
1504	89184	72032
1536	98448	80640
1568	83840	69184
1600	81488	68016
1632	108560	92240
1664	75216	60560
1696	55552	42192
1728	59568	45520
1760	51904	39632
1792	53664	40464
1824	53920	40512
1856	57344	44736
1888	52272	43264
1920	53984	45344
1952	54176	44336
1984	59168	46240
2016	47856	38736
2048	89456	69648
2112	84960	64944
2176	81952	64368
2240	81776	63584
2304	73632	58400
2368	72992	57984
2432	82432	63616
2496	76192	57648
2560	78304	60816
2624	73600	59856
2688	79808	64544
2752	78144	63840
2816	101184	85040
2880	88848	73376
2944	65872	55296
3008	58992	48384
3072	56816	46496
3136	51184	41216
3200	50544	42496
3264	54880	45072
3328	50048	41104
3392	54528	45968
3456	60592	51712
3520	79824	69520
3584	60432	52736
3648	52544	45440
3712	53584	46368
3776	62624	54752
3840	45664	37072
3904	48704	39776
3968	48816	39648
4032	44976	36864
4096	78032	65088
4224	68880	56848
4352	62704	51664
4480	69440	57856
4608	64848	53968
4736	59840	49760
4864	54640	45280
4992	57376	47728
5120	51392	41824
5248	54944	44112
5376	50944	42448
5504	53792	45376
5632	56080	49440
5760	63168	56544
5888	66848	59936
6016	53760	47456
6144	58544	52560
6272	47680	41744
6400	38720	32480
6528	42416	36752
6656	51280	44192
6784	47904	41936
6912	40192	34288
7040	42672	36976
7168	45680	40448
7296	45280	40128
7424	35024	30080
7552	32160	28256
7680	39328	34048
7808	39856	34592
7936	39936	34272
8064	45376	39488
8192	81120	71280
8448	88352	78512
8704	75760	66560
8960	84928	75696
9216	78736	71200
9472	54320	48240
9728	70080	64192
9984	61584	55568
10240	56384	50192
10496	64704	57808
10752	52160	45024
11008	42912	38336
11264	44304	39408
11520	40336	35328
11776	38448	34368
12032	37408	33248
12288	35808	31600
12544	38256	33728
12800	48592	43552
13056	50192	46048
13312	40544	36240
13568	37584	33568
13824	41904	37344
14080	38208	34368
14336	42080	38336
14592	35872	31776
14848	41328	36816
15104	44720	40704
15360	42336	38496
15616	36352	33264
15872	34784	32016
16128	35280	32624
16384	90128	83680
16896	76448	70448
17408	76240	70416
17920	59232	54000
18432	63984	57856
18944	68864	62624
19456	70512	65216
19968	73040	67568
20480	64672	60320
20992	55136	50784
21504	50864	47024
22016	54704	49808
22528	50768	45904
23040	46896	42912
23552	40368	36688
24064	28944	26224
24576	32560	29936
25088	31232	28352
25600	29392	26832
26112	38576	35136
26624	42144	37504
27136	29248	26464
27648	25792	23376
28160	22944	21104
28672	19072	17456
29184	23648	21552
29696	25952	23440
30208	21712	19440
30720	27568	25456
31232	26960	24224
31744	34576	31824
32256	23296	21824
32768	38656	36016
33792	32832	29632
34816	27104	25168
35840	28832	26080
36864	61776	53488
37888	44672	39824
38912	21648	19408
39936	21456	19232
40960	18144	16384
41984	18784	17072
43008	18992	17104
44032	16848	15232
45056	17952	15952
46080	20592	18928
47104	16832	15392
48128	27264	25088
49152	22512	20864
50176	22752	20768
51200	26800	24864
52224	45888	43632
53248	22144	20576
54272	20512	19040
55296	21936	20368
56320	17664	16336
57344	14320	12992
58368	14864	12896
59392	12304	11008
60416	17696	16320
61440	13728	12608
62464	12752	11632
63488	10320	9168
64512	11872	10736
65536	25392	23200
67584	31728	30208
69632	18048	16832
71680	18464	16560
73728	24064	22192
75776	22656	20784
77824	20432	18352
79872	21072	19024
81920	20080	17712
83968	17040	15024
86016	21360	19456
88064	20752	19056
90112	32416	30304
92160	11888	10832
94208	12736	11216
96256	14672	13232
98304	12448	11264
100352	12976	11632
102400	12640	11440
104448	12992	11568
106496	12832	11600
108544	11152	10256
110592	8976	8112
112640	10512	9520
114688	7936	7200
116736	11712	10800
118784	7056	6560
120832	7600	6976
122880	6960	6176
124928	7792	7168
126976	8080	7296
129024	8432	7808
131072	18448	16928
135168	22160	20448
139264	14480	13168
143360	11440	10176
147456	8864	7920
151552	9504	8576
155648	8880	8064
159744	9232	8272
163840	15312	14016
167936	20928	19440
172032	11136	9792
176128	12256	10896
180224	12176	11008
184320	7808	6976
188416	8480	7616
192512	6640	5840
196608	11328	10352
200704	10704	9792
204800	8128	7088
208896	6992	6240
212992	7696	6912
217088	8576	7696
221184	8736	7968
225280	7264	6128
229376	6176	5328
233472	5872	5056
237568	7344	6592
241664	11296	10144
245760	9184	8544
249856	6544	6080
253952	6048	5328
258048	4816	4288
262144	10336	9168
270336	10480	9424
278528	11520	10176
286720	8624	7536
294912	10960	9760
303104	9104	8032
311296	9328	8384
319488	6672	5840
327680	6848	5888
335872	6688	5920
344064	8720	7696
352256	5936	5376
360448	8112	7264
368640	5904	5392
376832	5200	4608
385024	4512	4032
393216	6624	5984
401408	4448	4064
409600	3968	3760
417792	5568	4864
425984	5376	4768
434176	5552	4976
442368	3824	3280
450560	2544	2128
458752	3904	3712
466944	4640	4256
475136	4096	3712
483328	2096	1920
491520	3344	2992
499712	4336	3872
507904	4432	4048
516096	3472	2992
524288	6432	5200
540672	5728	4976
557056	5344	4704
573440	5856	5344
589824	4656	4048
606208	5808	5360
622592	3680	3264
638976	3744	3328
655360	3376	3088
671744	4144	3616
688128	2880	2480
704512	3632	3200
720896	3392	2880
737280	2512	2208
753664	3856	3440
770048	3520	3104
786432	2960	2720
802816	2560	2272
819200	3136	2624
835584	2752	2528
851968	3408	3024
868352	3040	2528
884736	3376	3056
901120	1776	1504
917504	2976	2608
933888	2880	2496
950272	1968	1776
966656	3744	3344
983040	1664	1488
999424	1888	1616
1015808	1968	1632
1032192	2528	2048
1048576	4432	3936
1081344	2976	2400
1114112	4832	4400
1146880	4960	4368
1179648	3120	2720
1212416	3456	3056
1245184	5312	4464
1277952	3808	3376
1310720	4320	3776
1343488	5680	4288
1376256	4816	3840
1409024	2752	2448
1441792	2624	2272
1474560	2368	1824
1507328	3488	2816
1540096	3040	2592
1572864	4304	3472
1605632	5664	5040
1638400	4688	4192
1671168	3280	2752
1703936	3424	3008
1736704	2704	2160
1769472	2096	1552
1802240	3376	2672
1835008	2576	2192
1867776	2624	1904
1900544	2560	2192
1933312	3488	3152
1966080	2560	2208
1998848	2240	1936
2031616	2208	2000
2064384	2016	1696
2097152	3376	3024
2162688	3424	3072
2228224	3216	2896
2293760	5760	5376
2359296	3552	3216
2424832	1888	1664
2490368	2016	1600
2555904	1680	1488
2621440	2464	2192
2686976	1872	1648
2752512	1696	1456
2818048	2096	1872
2883584	2976	2512
2949120	2160	1888
3014656	1952	1792
3080192	2304	2064
3145728	1648	1408
3211264	1168	1056
3276800	2128	1712
3342336	1760	1504
3407872	2576	2240
3473408	1504	1408
3538944	1520	1152
3604480	1408	1200
3670016	1392	1344
3735552	1792	1616
3801088	896	736
3866624	1648	1504
3932160	576	528
3997696	816	656
4063232	1040	928
4128768	1184	1024
4194304	1312	928
4325376	1040	880
4456448	544	384
4587520	1072	992
4718592	672	432
4849664	576	416
4980736	1440	1312
5111808	1072	880
5242880	1024	960
5373952	576	560
5505024	1088	1072
5636096	1024	928
5767168	864	784
5898240	1008	864
6029312	1328	1136
6160384	448	400
6291456	1296	1152
6422528	720	688
6553600	736	640
6684672	1264	1120
6815744	960	816
6946816	816	736
7077888	480	400
7208960	928	800
7340032	656	512
7471104	624	560
7602176	944	800
7733248	1184	1024
7864320	880	784
7995392	976	896
8126464	1024	784
8257536	1536	1184
8388608	1376	1120
8650752	2400	2160
8912896	1808	1680
9175040	1792	1600
9437184	3104	2864
9699328	2240	1952
9961472	3952	3632
10223616	3568	3184
10485760	2848	2688
10747904	2800	2464
11010048	4096	3792
11272192	4624	4176
11534336	8928	8432
11796480	3296	2992
12058624	3280	3088
12320768	4032	3792
12582912	5296	4944
12845056	8368	8016
13107200	5664	5184
13369344	6480	6096
13631488	4640	4336
13893632	5712	5376
14155776	6656	6240
14417920	11232	10512
14680064	8848	8224
14942208	16752	14880
15204352	15216	14576
15466496	31184	29600
15728640	19136	18448
15990784	20832	19952
16252928	43744	41824
16515072	24704	23456
16777216	83408	79808
17301504	75616	73200
17825792	24176	23344
18350080	42784	40816
18874368	48848	47568
19398656	15600	14816
19922944	28016	27312
20447232	20528	19792
20971520	5568	5232
21495808	8272	7792
22020096	5456	5168
22544384	8656	8304
23068672	27248	26560
23592960	11712	11376
24117248	8192	7536
24641536	688	640
25165824	14224	13936
25690112	3248	3200
26214400	48	48
26738688	2080	2032
27262976	240	208
27787264	448	416
28311552	816	704
28835840	592	560
29360128	464	400
29884416	96	80
30408704	288	272
30932992	304	304
31457280	144	64
31981568	528	352
32505856	560	448
33030144	1008	864
33554432	512	304
34603008	816	496
35651584	1392	1184
36700160	4112	3664
37748736	3728	3136
38797312	2832	2496
39845888	6288	5376
40894464	5936	4976
41943040	4928	4480
42991616	18272	17152
44040192	10912	9968
45088768	30304	29104
46137344	59312	57264
47185920	2048	1968
48234496	2784	2672
49283072	1216	1136
50331648	2592	2448
51380224	2432	2368
52428800	3792	3456
53477376	3296	3088
54525952	2800	2720
55574528	2320	2240
56623104	3424	3360
57671680	1712	1600
58720256	4224	3680
59768832	2736	2544
60817408	3088	2528
61865984	2544	2432
62914560	3440	3248
63963136	24512	23632
65011712	26816	25216
66060288	1440	1312
67108864	4352	3984
69206016	3808	3552
71303168	5904	5664
73400320	6848	5584
75497472	8224	7600
77594624	32224	30608
79691776	17168	16800
81788928	128	32
83886080	16	16
85983232	64	32
88080384	128	48
90177536	976	880
92274688	2656	2352
94371840	432	304
96468992	1072	928
98566144	16	16
100663296	32	0
102760448	832	768
104857600	32	32
106954752	64	32
109051904	320	288
111149056	1440	1184
113246208	16	0
115343360	64	32
117440512	0	0
119537664	0	0
121634816	0	0
123731968	0	0
125829120	16	0
127926272	112	96
130023424	0	0
132120576	0	0
134217728	32	0
138412032	16	0
142606336	4288	3728
146800640	112	32
150994944	288	144
155189248	1808	1712
159383552	416	64
163577856	128	16
167772160	48	48
171966464	64	0
176160768	32	32
180355072	0	0
184549376	0	0
188743680	96	64
192937984	0	0
197132288	0	0
201326592	16	16
205520896	96	32
209715200	0	0
213909504	0	0
218103808	32	32
222298112	16	16
226492416	16	0
230686720	16	16
234881024	32	32
239075328	48	48
243269632	16	16
247463936	304	272
251658240	16	0
255852544	48	48
260046848	0	0
264241152	16	0
268435456	32	32
276824064	0	0
285212672	0	0
293601280	16	0
301989888	16	16
310378496	0	0
318767104	0	0
327155712	64	0
335544320	0	0
343932928	0	0
352321536	0	0
360710144	0	0
369098752	0	0
377487360	16	16
385875968	0	0
394264576	0	0
402653184	0	0
411041792	0	0
419430400	0	0
427819008	0	0
436207616	0	0
444596224	0	0
452984832	0	0
461373440	0	0
469762048	0	0
478150656	0	0
486539264	0	0
494927872	0	0
503316480	0	0
511705088	0	0
520093696	0	0
528482304	0	0
536870912	0	0
553648128	0	0
570425344	0	0
587202560	0	0
603979776	0	0
620756992	0	0
637534208	0	0
654311424	0	0
671088640	0	0
687865856	0	0
704643072	0	0
721420288	0	0
738197504	0	0
754974720	0	0
771751936	0	0
788529152	0	0
805306368	0	0
822083584	0	0
838860800	0	0
855638016	0	0
872415232	0	0
889192448	0	0
905969664	0	0
922746880	0	0
939524096	0	0
956301312	0	0
973078528	0	0
989855744	0	0
1006632960	0	0
1023410176	0	0
1040187392	0	0
1056964608	0	0
1073741824	0	0
1107296256	0	0
1140850688	0	0
1174405120	0	0
1207959552	0	0
1241513984	0	0
1275068416	0	0
1308622848	0	0
1342177280	0	0
1375731712	0	0
1409286144	0	0
1442840576	0	0
1476395008	0	0
1509949440	0	0
1543503872	0	0
1577058304	0	0
1610612736	0	0
1644167168	0	0
1677721600	0	0
1711276032	0	0
1744830464	0	0
1778384896	0	0
1811939328	0	0
1845493760	0	0
1879048192	0	0
1912602624	0	0
1946157056	0	0
1979711488	0	0
2013265920	0	0
2046820352	0	0
2080374784	0	0
2113929216	0	0
2147483648	0	0
2214592512	0	0
2281701376	0	0
2348810240	0	0
2415919104	0	0
2483027968	0	0
2550136832	0	0
2617245696	0	0
2684354560	0	0
2751463424	0	0
2818572288	0	0
2885681152	0	0
2952790016	0	0
3019898880	0	0
3087007744	0	0
3154116608	0	0
3221225472	0	0
3288334336	0	0
3355443200	0	0
3422552064	0	0
3489660928	0	0
3556769792	0	0
3623878656	0	0
3690987520	0	0
3758096384	0	0
3825205248	0	0
3892314112	0	0
3959422976	0	0
4026531840	0	0
4093640704	0	0
4160749568	0	0
4227858432	0	0
~~~~~~~~~~Reuse Distance Profiler output end~~~~~~~~~~

Sampler size:6820

DRAM Statistics
 CHANNEL 0
 RQ ROW_BUFFER_HIT:     194035  ROW_BUFFER_MISS:    1035982
 DBUS AVG_CONGESTED_CYCLE:    3.83806
 WQ ROW_BUFFER_HIT:     110354  ROW_BUFFER_MISS:      99920  FULL:          0


CPU 0 Branch Prediction Accuracy: 93.8745% MPKI: 12.6821 Average ROB Occupancy at Mispredict: 41.1164
Branch type MPKI
BRANCH_DIRECT_JUMP: 0.000793333
BRANCH_INDIRECT: 0.369914
BRANCH_CONDITIONAL: 11.8252
BRANCH_DIRECT_CALL: 0.00117267
BRANCH_INDIRECT_CALL: 0.478497
BRANCH_RETURN: 0.00652267

