
*** ChampSim Multicore Out-of-Order Simulator ***

Warmup Instructions: 50000000
Simulation Instructions: 1500000000
Number of CPUs: 1
Off-chip DRAM Size: 4 GiB Channels: 1 Width: 64-bit Data Rate: 3200 MT/s

VirtualMemory physical capacity: 8588881920 num_ppages: 2096895
VirtualMemory page size: 4096 log2_page_size: 12

CPU 0 runs /s/traces/champsim_traces/401.bzip2-7B.champsimtrace.xz
CPU 0 Bimodal branch predictor
Basic BTB sets: 1024 ways: 8 indirect buffer size: 4096 RAS size: 64
Initializing LRU.
Initializing LRU.
Initializing LRU.
Initializing LRU.
Initializing rdLRU.
Initializing LRU.
Heartbeat CPU 0 instructions: 2000001 cycles: 612027 heartbeat IPC: 3.26783 cumulative IPC: 3.26783 (Simulation time: 0 hr 0 min 55 sec) 
Heartbeat CPU 0 instructions: 4000004 cycles: 1207282 heartbeat IPC: 3.35991 cumulative IPC: 3.31323 (Simulation time: 0 hr 1 min 46 sec) 
Heartbeat CPU 0 instructions: 6000002 cycles: 1801574 heartbeat IPC: 3.36535 cumulative IPC: 3.33042 (Simulation time: 0 hr 2 min 37 sec) 
Heartbeat CPU 0 instructions: 8000002 cycles: 2422373 heartbeat IPC: 3.22165 cumulative IPC: 3.30255 (Simulation time: 0 hr 3 min 36 sec) 
Heartbeat CPU 0 instructions: 10000000 cycles: 2993460 heartbeat IPC: 3.50209 cumulative IPC: 3.34062 (Simulation time: 0 hr 4 min 24 sec) 
Heartbeat CPU 0 instructions: 12000001 cycles: 3588957 heartbeat IPC: 3.35854 cumulative IPC: 3.34359 (Simulation time: 0 hr 5 min 18 sec) 
Heartbeat CPU 0 instructions: 14000001 cycles: 4167585 heartbeat IPC: 3.45645 cumulative IPC: 3.35926 (Simulation time: 0 hr 6 min 4 sec) 
Heartbeat CPU 0 instructions: 16000001 cycles: 4740685 heartbeat IPC: 3.48979 cumulative IPC: 3.37504 (Simulation time: 0 hr 6 min 55 sec) 
Heartbeat CPU 0 instructions: 18000001 cycles: 5283465 heartbeat IPC: 3.68473 cumulative IPC: 3.40686 (Simulation time: 0 hr 7 min 36 sec) 
Heartbeat CPU 0 instructions: 20000003 cycles: 5799706 heartbeat IPC: 3.87416 cumulative IPC: 3.44845 (Simulation time: 0 hr 8 min 22 sec) 
Heartbeat CPU 0 instructions: 22000000 cycles: 6306599 heartbeat IPC: 3.9456 cumulative IPC: 3.48841 (Simulation time: 0 hr 9 min 3 sec) 
Heartbeat CPU 0 instructions: 24000001 cycles: 6834587 heartbeat IPC: 3.78797 cumulative IPC: 3.51155 (Simulation time: 0 hr 9 min 49 sec) 
Heartbeat CPU 0 instructions: 26000003 cycles: 7336611 heartbeat IPC: 3.98388 cumulative IPC: 3.54387 (Simulation time: 0 hr 10 min 36 sec) 
Heartbeat CPU 0 instructions: 28000001 cycles: 7867188 heartbeat IPC: 3.76948 cumulative IPC: 3.55909 (Simulation time: 0 hr 11 min 35 sec) 
Heartbeat CPU 0 instructions: 30000000 cycles: 8389956 heartbeat IPC: 3.82579 cumulative IPC: 3.5757 (Simulation time: 0 hr 12 min 30 sec) 
Heartbeat CPU 0 instructions: 32000002 cycles: 8954332 heartbeat IPC: 3.54374 cumulative IPC: 3.57369 (Simulation time: 0 hr 13 min 31 sec) 
Heartbeat CPU 0 instructions: 34000000 cycles: 9543857 heartbeat IPC: 3.39256 cumulative IPC: 3.5625 (Simulation time: 0 hr 14 min 29 sec) 
Heartbeat CPU 0 instructions: 36000003 cycles: 10112361 heartbeat IPC: 3.51801 cumulative IPC: 3.56 (Simulation time: 0 hr 15 min 26 sec) 
Heartbeat CPU 0 instructions: 38000001 cycles: 10661085 heartbeat IPC: 3.64482 cumulative IPC: 3.56437 (Simulation time: 0 hr 16 min 25 sec) 
Heartbeat CPU 0 instructions: 40000000 cycles: 11326790 heartbeat IPC: 3.00433 cumulative IPC: 3.53145 (Simulation time: 0 hr 17 min 40 sec) 
Heartbeat CPU 0 instructions: 42000002 cycles: 12032638 heartbeat IPC: 2.83347 cumulative IPC: 3.49051 (Simulation time: 0 hr 18 min 53 sec) 
Heartbeat CPU 0 instructions: 44000000 cycles: 12725970 heartbeat IPC: 2.88462 cumulative IPC: 3.4575 (Simulation time: 0 hr 20 min 0 sec) 
Heartbeat CPU 0 instructions: 46000003 cycles: 13317580 heartbeat IPC: 3.38061 cumulative IPC: 3.45408 (Simulation time: 0 hr 20 min 59 sec) 
Heartbeat CPU 0 instructions: 48000001 cycles: 13883934 heartbeat IPC: 3.53136 cumulative IPC: 3.45723 (Simulation time: 0 hr 21 min 54 sec) 
Heartbeat CPU 0 instructions: 50000001 cycles: 14455349 heartbeat IPC: 3.50008 cumulative IPC: 3.45893 (Simulation time: 0 hr 22 min 51 sec) 

Warmup complete CPU 0 instructions: 50000001 cycles: 14455349 (Simulation time: 0 hr 22 min 51 sec) 

Heartbeat CPU 0 instructions: 52000000 cycles: 16047253 heartbeat IPC: 1.25636 cumulative IPC: 1.25636 (Simulation time: 0 hr 23 min 40 sec) 

Region of Interest Statistics
cpu0_DTLB TOTAL     ACCESS:     545488  HIT:     545052  MISS:        436
cpu0_DTLB LOAD      ACCESS:     394458  HIT:     394023  MISS:        435
cpu0_DTLB RFO       ACCESS:     151030  HIT:     151029  MISS:          1
cpu0_DTLB PREFETCH  ACCESS:          0  HIT:          0  MISS:          0
cpu0_DTLB WRITEBACK ACCESS:          0  HIT:          0  MISS:          0
cpu0_ITLB TOTAL     ACCESS:     228201  HIT:     228201  MISS:          0
cpu0_ITLB LOAD      ACCESS:     228201  HIT:     228201  MISS:          0
cpu0_ITLB RFO       ACCESS:          0  HIT:          0  MISS:          0
cpu0_ITLB PREFETCH  ACCESS:          0  HIT:          0  MISS:          0
cpu0_ITLB WRITEBACK ACCESS:          0  HIT:          0  MISS:          0
cpu0_L1I TOTAL     ACCESS:         86  HIT:         86  MISS:          0
cpu0_L1I LOAD      ACCESS:         86  HIT:         86  MISS:          0
cpu0_L1I RFO       ACCESS:          0  HIT:          0  MISS:          0
cpu0_L1I PREFETCH  ACCESS:          0  HIT:          0  MISS:          0
cpu0_L1I WRITEBACK ACCESS:          0  HIT:          0  MISS:          0
cpu0_STLB TOTAL     ACCESS:        436  HIT:        436  MISS:          0
cpu0_STLB LOAD      ACCESS:        435  HIT:        435  MISS:          0
cpu0_STLB RFO       ACCESS:          1  HIT:          1  MISS:          0
cpu0_STLB PREFETCH  ACCESS:          0  HIT:          0  MISS:          0
cpu0_STLB WRITEBACK ACCESS:          0  HIT:          0  MISS:          0
cpu0_L1D TOTAL     ACCESS:     757543  HIT:     742205  MISS:      15338
cpu0_L1D LOAD      ACCESS:     457321  HIT:     441988  MISS:      15333
cpu0_L1D RFO       ACCESS:     300222  HIT:     300217  MISS:          5
cpu0_L1D PREFETCH  ACCESS:          0  HIT:          0  MISS:          0
cpu0_L1D WRITEBACK ACCESS:          0  HIT:          0  MISS:          0
cpu0_L2C TOTAL     ACCESS:      16432  HIT:      16432  MISS:          0
cpu0_L2C LOAD      ACCESS:      15333  HIT:      15333  MISS:          0
cpu0_L2C RFO       ACCESS:          5  HIT:          5  MISS:          0
cpu0_L2C PREFETCH  ACCESS:          0  HIT:          0  MISS:          0
cpu0_L2C WRITEBACK ACCESS:       1094  HIT:       1094  MISS:          0
Heartbeat CPU 0 instructions: 54000002 cycles: 17632229 heartbeat IPC: 1.26185 cumulative IPC: 1.2591 (Simulation time: 0 hr 24 min 29 sec) 

Region of Interest Statistics
cpu0_DTLB TOTAL     ACCESS:    1081461  HIT:    1080165  MISS:       1296
cpu0_DTLB LOAD      ACCESS:     783727  HIT:     782434  MISS:       1293
cpu0_DTLB RFO       ACCESS:     297734  HIT:     297731  MISS:          3
cpu0_DTLB PREFETCH  ACCESS:          0  HIT:          0  MISS:          0
cpu0_DTLB WRITEBACK ACCESS:          0  HIT:          0  MISS:          0
cpu0_ITLB TOTAL     ACCESS:     450903  HIT:     450903  MISS:          0
cpu0_ITLB LOAD      ACCESS:     450903  HIT:     450903  MISS:          0
cpu0_ITLB RFO       ACCESS:          0  HIT:          0  MISS:          0
cpu0_ITLB PREFETCH  ACCESS:          0  HIT:          0  MISS:          0
cpu0_ITLB WRITEBACK ACCESS:          0  HIT:          0  MISS:          0
cpu0_L1I TOTAL     ACCESS:        173  HIT:        173  MISS:          0
cpu0_L1I LOAD      ACCESS:        173  HIT:        173  MISS:          0
cpu0_L1I RFO       ACCESS:          0  HIT:          0  MISS:          0
cpu0_L1I PREFETCH  ACCESS:          0  HIT:          0  MISS:          0
cpu0_L1I WRITEBACK ACCESS:          0  HIT:          0  MISS:          0
cpu0_STLB TOTAL     ACCESS:       1296  HIT:       1296  MISS:          0
cpu0_STLB LOAD      ACCESS:       1293  HIT:       1293  MISS:          0
cpu0_STLB RFO       ACCESS:          3  HIT:          3  MISS:          0
cpu0_STLB PREFETCH  ACCESS:          0  HIT:          0  MISS:          0
cpu0_STLB WRITEBACK ACCESS:          0  HIT:          0  MISS:          0
cpu0_L1D TOTAL     ACCESS:    1494212  HIT:    1462189  MISS:      32023
cpu0_L1D LOAD      ACCESS:     902200  HIT:     870193  MISS:      32007
cpu0_L1D RFO       ACCESS:     592012  HIT:     591996  MISS:         16
cpu0_L1D PREFETCH  ACCESS:          0  HIT:          0  MISS:          0
cpu0_L1D WRITEBACK ACCESS:          0  HIT:          0  MISS:          0
cpu0_L2C TOTAL     ACCESS:      34368  HIT:      34134  MISS:        234
cpu0_L2C LOAD      ACCESS:      32006  HIT:      31772  MISS:        234
cpu0_L2C RFO       ACCESS:         16  HIT:         16  MISS:          0
cpu0_L2C PREFETCH  ACCESS:          0  HIT:          0  MISS:          0
cpu0_L2C WRITEBACK ACCESS:       2346  HIT:       2346  MISS:          0
LLC TOTAL     ACCESS:        399  HIT:        367  MISS:         32
LLC LOAD      ACCESS:        234  HIT:        202  MISS:         32
LLC RFO       ACCESS:          0  HIT:          0  MISS:          0
LLC PREFETCH  ACCESS:          0  HIT:          0  MISS:          0
LLC WRITEBACK ACCESS:        165  HIT:        165  MISS:          0
Heartbeat CPU 0 instructions: 56000002 cycles: 18811781 heartbeat IPC: 1.69556 cumulative IPC: 1.37727 (Simulation time: 0 hr 25 min 20 sec) 

Region of Interest Statistics
cpu0_DTLB TOTAL     ACCESS:    1535195  HIT:    1529479  MISS:       5716
cpu0_DTLB LOAD      ACCESS:    1144163  HIT:    1139646  MISS:       4517
cpu0_DTLB RFO       ACCESS:     391032  HIT:     389833  MISS:       1199
cpu0_DTLB PREFETCH  ACCESS:          0  HIT:          0  MISS:          0
cpu0_DTLB WRITEBACK ACCESS:          0  HIT:          0  MISS:          0
cpu0_ITLB TOTAL     ACCESS:     633205  HIT:     633205  MISS:          0
cpu0_ITLB LOAD      ACCESS:     633205  HIT:     633205  MISS:          0
cpu0_ITLB RFO       ACCESS:          0  HIT:          0  MISS:          0
cpu0_ITLB PREFETCH  ACCESS:          0  HIT:          0  MISS:          0
cpu0_ITLB WRITEBACK ACCESS:          0  HIT:          0  MISS:          0
cpu0_L1I TOTAL     ACCESS:        308  HIT:        308  MISS:          0
cpu0_L1I LOAD      ACCESS:        308  HIT:        308  MISS:          0
cpu0_L1I RFO       ACCESS:          0  HIT:          0  MISS:          0
cpu0_L1I PREFETCH  ACCESS:          0  HIT:          0  MISS:          0
cpu0_L1I WRITEBACK ACCESS:          0  HIT:          0  MISS:          0
cpu0_STLB TOTAL     ACCESS:       5716  HIT:       5714  MISS:          2
cpu0_STLB LOAD      ACCESS:       4517  HIT:       4515  MISS:          2
cpu0_STLB RFO       ACCESS:       1199  HIT:       1199  MISS:          0
cpu0_STLB PREFETCH  ACCESS:          0  HIT:          0  MISS:          0
cpu0_STLB WRITEBACK ACCESS:          0  HIT:          0  MISS:          0
cpu0_L1D TOTAL     ACCESS:    2001430  HIT:    1940624  MISS:      60806
cpu0_L1D LOAD      ACCESS:    1228193  HIT:    1175454  MISS:      52739
cpu0_L1D RFO       ACCESS:     773235  HIT:     765170  MISS:       8065
cpu0_L1D PREFETCH  ACCESS:          0  HIT:          0  MISS:          0
cpu0_L1D WRITEBACK ACCESS:          0  HIT:          0  MISS:          0
cpu0_L2C TOTAL     ACCESS:      72164  HIT:      59138  MISS:      13026
cpu0_L2C LOAD      ACCESS:      52738  HIT:      47271  MISS:       5467
cpu0_L2C RFO       ACCESS:       8065  HIT:        508  MISS:       7557
cpu0_L2C PREFETCH  ACCESS:          0  HIT:          0  MISS:          0
cpu0_L2C WRITEBACK ACCESS:      11359  HIT:      11358  MISS:          1
LLC TOTAL     ACCESS:      19656  HIT:      19307  MISS:        349
LLC LOAD      ACCESS:       5467  HIT:       5163  MISS:        304
LLC RFO       ACCESS:       7555  HIT:       7510  MISS:         45
LLC PREFETCH  ACCESS:          0  HIT:          0  MISS:          0
LLC WRITEBACK ACCESS:       6633  HIT:       6633  MISS:          0
Heartbeat CPU 0 instructions: 58000003 cycles: 19988697 heartbeat IPC: 1.69936 cumulative IPC: 1.44578 (Simulation time: 0 hr 26 min 11 sec) 

Region of Interest Statistics
cpu0_DTLB TOTAL     ACCESS:    1990594  HIT:    1978586  MISS:      12008
cpu0_DTLB LOAD      ACCESS:    1502682  HIT:    1494168  MISS:       8514
cpu0_DTLB RFO       ACCESS:     487912  HIT:     484418  MISS:       3494
cpu0_DTLB PREFETCH  ACCESS:          0  HIT:          0  MISS:          0
cpu0_DTLB WRITEBACK ACCESS:          0  HIT:          0  MISS:          0
cpu0_ITLB TOTAL     ACCESS:     818997  HIT:     818997  MISS:          0
cpu0_ITLB LOAD      ACCESS:     818997  HIT:     818997  MISS:          0
cpu0_ITLB RFO       ACCESS:          0  HIT:          0  MISS:          0
cpu0_ITLB PREFETCH  ACCESS:          0  HIT:          0  MISS:          0
cpu0_ITLB WRITEBACK ACCESS:          0  HIT:          0  MISS:          0
cpu0_L1I TOTAL     ACCESS:        495  HIT:        495  MISS:          0
cpu0_L1I LOAD      ACCESS:        495  HIT:        495  MISS:          0
cpu0_L1I RFO       ACCESS:          0  HIT:          0  MISS:          0
cpu0_L1I PREFETCH  ACCESS:          0  HIT:          0  MISS:          0
cpu0_L1I WRITEBACK ACCESS:          0  HIT:          0  MISS:          0
cpu0_STLB TOTAL     ACCESS:      12008  HIT:      11995  MISS:         13
cpu0_STLB LOAD      ACCESS:       8514  HIT:       8508  MISS:          6
cpu0_STLB RFO       ACCESS:       3494  HIT:       3487  MISS:          7
cpu0_STLB PREFETCH  ACCESS:          0  HIT:          0  MISS:          0
cpu0_STLB WRITEBACK ACCESS:          0  HIT:          0  MISS:          0
cpu0_L1D TOTAL     ACCESS:    2492995  HIT:    2404864  MISS:      88131
cpu0_L1D LOAD      ACCESS:    1543110  HIT:    1470845  MISS:      72265
cpu0_L1D RFO       ACCESS:     949873  HIT:     934013  MISS:      15860
cpu0_L1D PREFETCH  ACCESS:          0  HIT:          0  MISS:          0
cpu0_L1D WRITEBACK ACCESS:          0  HIT:          0  MISS:          0
cpu0_L2C TOTAL     ACCESS:     108288  HIT:      84460  MISS:      23828
cpu0_L2C LOAD      ACCESS:      72262  HIT:      62036  MISS:      10226
cpu0_L2C RFO       ACCESS:      15860  HIT:       2262  MISS:      13598
cpu0_L2C PREFETCH  ACCESS:          0  HIT:          0  MISS:          0
cpu0_L2C WRITEBACK ACCESS:      20160  HIT:      20158  MISS:          2
LLC TOTAL     ACCESS:      36720  HIT:      35593  MISS:       1127
LLC LOAD      ACCESS:      10226  HIT:       9642  MISS:        584
LLC RFO       ACCESS:      13595  HIT:      13052  MISS:        543
LLC PREFETCH  ACCESS:          0  HIT:          0  MISS:          0
LLC WRITEBACK ACCESS:      12897  HIT:      12897  MISS:          0
Heartbeat CPU 0 instructions: 60000000 cycles: 21209822 heartbeat IPC: 1.63783 cumulative IPC: 1.4805 (Simulation time: 0 hr 27 min 1 sec) 

Region of Interest Statistics
cpu0_DTLB TOTAL     ACCESS:    2447785  HIT:    2429928  MISS:      17857
cpu0_DTLB LOAD      ACCESS:    1858984  HIT:    1846699  MISS:      12285
cpu0_DTLB RFO       ACCESS:     588801  HIT:     583229  MISS:       5572
cpu0_DTLB PREFETCH  ACCESS:          0  HIT:          0  MISS:          0
cpu0_DTLB WRITEBACK ACCESS:          0  HIT:          0  MISS:          0
cpu0_ITLB TOTAL     ACCESS:    1015132  HIT:    1015132  MISS:          0
cpu0_ITLB LOAD      ACCESS:    1015132  HIT:    1015132  MISS:          0
cpu0_ITLB RFO       ACCESS:          0  HIT:          0  MISS:          0
cpu0_ITLB PREFETCH  ACCESS:          0  HIT:          0  MISS:          0
cpu0_ITLB WRITEBACK ACCESS:          0  HIT:          0  MISS:          0
cpu0_L1I TOTAL     ACCESS:        621  HIT:        621  MISS:          0
cpu0_L1I LOAD      ACCESS:        621  HIT:        621  MISS:          0
cpu0_L1I RFO       ACCESS:          0  HIT:          0  MISS:          0
cpu0_L1I PREFETCH  ACCESS:          0  HIT:          0  MISS:          0
cpu0_L1I WRITEBACK ACCESS:          0  HIT:          0  MISS:          0
cpu0_STLB TOTAL     ACCESS:      17857  HIT:      17835  MISS:         22
cpu0_STLB LOAD      ACCESS:      12285  HIT:      12276  MISS:          9
cpu0_STLB RFO       ACCESS:       5572  HIT:       5559  MISS:         13
cpu0_STLB PREFETCH  ACCESS:          0  HIT:          0  MISS:          0
cpu0_STLB WRITEBACK ACCESS:          0  HIT:          0  MISS:          0
cpu0_L1D TOTAL     ACCESS:    3001059  HIT:    2888742  MISS:     112317
cpu0_L1D LOAD      ACCESS:    1864361  HIT:    1775555  MISS:      88806
cpu0_L1D RFO       ACCESS:    1136677  HIT:    1113177  MISS:      23500
cpu0_L1D PREFETCH  ACCESS:          0  HIT:          0  MISS:          0
cpu0_L1D WRITEBACK ACCESS:          0  HIT:          0  MISS:          0
cpu0_L2C TOTAL     ACCESS:     140947  HIT:     106679  MISS:      34268
cpu0_L2C LOAD      ACCESS:      88800  HIT:      73854  MISS:      14946
cpu0_L2C RFO       ACCESS:      23499  HIT:       4182  MISS:      19317
cpu0_L2C PREFETCH  ACCESS:          0  HIT:          0  MISS:          0
cpu0_L2C WRITEBACK ACCESS:      28637  HIT:      28635  MISS:          2
LLC TOTAL     ACCESS:      53357  HIT:      51482  MISS:       1875
LLC LOAD      ACCESS:      14946  HIT:      14095  MISS:        851
LLC RFO       ACCESS:      19314  HIT:      18290  MISS:       1024
LLC PREFETCH  ACCESS:          0  HIT:          0  MISS:          0
LLC WRITEBACK ACCESS:      19094  HIT:      19094  MISS:          0
Heartbeat CPU 0 instructions: 62000004 cycles: 22426621 heartbeat IPC: 1.64366 cumulative IPC: 1.50541 (Simulation time: 0 hr 27 min 54 sec) 

Region of Interest Statistics
cpu0_DTLB TOTAL     ACCESS:    2900050  HIT:    2869440  MISS:      30610
cpu0_DTLB LOAD      ACCESS:    2213595  HIT:    2191284  MISS:      22311
cpu0_DTLB RFO       ACCESS:     686455  HIT:     678156  MISS:       8299
cpu0_DTLB PREFETCH  ACCESS:          0  HIT:          0  MISS:          0
cpu0_DTLB WRITEBACK ACCESS:          0  HIT:          0  MISS:          0
cpu0_ITLB TOTAL     ACCESS:    1205121  HIT:    1205121  MISS:          0
cpu0_ITLB LOAD      ACCESS:    1205121  HIT:    1205121  MISS:          0
cpu0_ITLB RFO       ACCESS:          0  HIT:          0  MISS:          0
cpu0_ITLB PREFETCH  ACCESS:          0  HIT:          0  MISS:          0
cpu0_ITLB WRITEBACK ACCESS:          0  HIT:          0  MISS:          0
cpu0_L1I TOTAL     ACCESS:       1922  HIT:       1922  MISS:          0
cpu0_L1I LOAD      ACCESS:       1922  HIT:       1922  MISS:          0
cpu0_L1I RFO       ACCESS:          0  HIT:          0  MISS:          0
cpu0_L1I PREFETCH  ACCESS:          0  HIT:          0  MISS:          0
cpu0_L1I WRITEBACK ACCESS:          0  HIT:          0  MISS:          0
cpu0_STLB TOTAL     ACCESS:      30610  HIT:      30572  MISS:         38
cpu0_STLB LOAD      ACCESS:      22311  HIT:      22300  MISS:         11
cpu0_STLB RFO       ACCESS:       8299  HIT:       8272  MISS:         27
cpu0_STLB PREFETCH  ACCESS:          0  HIT:          0  MISS:          0
cpu0_STLB WRITEBACK ACCESS:          0  HIT:          0  MISS:          0
cpu0_L1D TOTAL     ACCESS:    3503661  HIT:    3370344  MISS:     133317
cpu0_L1D LOAD      ACCESS:    2186269  HIT:    2082561  MISS:     103708
cpu0_L1D RFO       ACCESS:    1317356  HIT:    1287766  MISS:      29590
cpu0_L1D PREFETCH  ACCESS:          0  HIT:          0  MISS:          0
cpu0_L1D WRITEBACK ACCESS:          0  HIT:          0  MISS:          0
cpu0_L2C TOTAL     ACCESS:     168072  HIT:     123841  MISS:      44231
cpu0_L2C LOAD      ACCESS:     103701  HIT:      83548  MISS:      20153
cpu0_L2C RFO       ACCESS:      29586  HIT:       5513  MISS:      24073
cpu0_L2C PREFETCH  ACCESS:          0  HIT:          0  MISS:          0
cpu0_L2C WRITEBACK ACCESS:      34766  HIT:      34764  MISS:          2
LLC TOTAL     ACCESS:      68806  HIT:      66208  MISS:       2598
LLC LOAD      ACCESS:      20152  HIT:      19021  MISS:       1131
LLC RFO       ACCESS:      24071  HIT:      22604  MISS:       1467
LLC PREFETCH  ACCESS:          0  HIT:          0  MISS:          0
LLC WRITEBACK ACCESS:      24580  HIT:      24580  MISS:          0
Heartbeat CPU 0 instructions: 64000002 cycles: 23599606 heartbeat IPC: 1.70505 cumulative IPC: 1.53102 (Simulation time: 0 hr 28 min 39 sec) 

Region of Interest Statistics
cpu0_DTLB TOTAL     ACCESS:    3336350  HIT:    3297972  MISS:      38378
cpu0_DTLB LOAD      ACCESS:    2560854  HIT:    2532291  MISS:      28563
cpu0_DTLB RFO       ACCESS:     775496  HIT:     765681  MISS:       9815
cpu0_DTLB PREFETCH  ACCESS:          0  HIT:          0  MISS:          0
cpu0_DTLB WRITEBACK ACCESS:          0  HIT:          0  MISS:          0
cpu0_ITLB TOTAL     ACCESS:    1386735  HIT:    1386735  MISS:          0
cpu0_ITLB LOAD      ACCESS:    1386735  HIT:    1386735  MISS:          0
cpu0_ITLB RFO       ACCESS:          0  HIT:          0  MISS:          0
cpu0_ITLB PREFETCH  ACCESS:          0  HIT:          0  MISS:          0
cpu0_ITLB WRITEBACK ACCESS:          0  HIT:          0  MISS:          0
cpu0_L1I TOTAL     ACCESS:       2071  HIT:       2071  MISS:          0
cpu0_L1I LOAD      ACCESS:       2071  HIT:       2071  MISS:          0
cpu0_L1I RFO       ACCESS:          0  HIT:          0  MISS:          0
cpu0_L1I PREFETCH  ACCESS:          0  HIT:          0  MISS:          0
cpu0_L1I WRITEBACK ACCESS:          0  HIT:          0  MISS:          0
cpu0_STLB TOTAL     ACCESS:      38378  HIT:      38337  MISS:         41
cpu0_STLB LOAD      ACCESS:      28563  HIT:      28549  MISS:         14
cpu0_STLB RFO       ACCESS:       9815  HIT:       9788  MISS:         27
cpu0_STLB PREFETCH  ACCESS:          0  HIT:          0  MISS:          0
cpu0_STLB WRITEBACK ACCESS:          0  HIT:          0  MISS:          0
cpu0_L1D TOTAL     ACCESS:    3993610  HIT:    3844295  MISS:     149315
cpu0_L1D LOAD      ACCESS:    2498295  HIT:    2381368  MISS:     116927
cpu0_L1D RFO       ACCESS:    1495276  HIT:    1462909  MISS:      32367
cpu0_L1D PREFETCH  ACCESS:          0  HIT:          0  MISS:          0
cpu0_L1D WRITEBACK ACCESS:          0  HIT:          0  MISS:          0
cpu0_L2C TOTAL     ACCESS:     188211  HIT:     138417  MISS:      49794
cpu0_L2C LOAD      ACCESS:     116918  HIT:      93029  MISS:      23889
cpu0_L2C RFO       ACCESS:      32363  HIT:       6465  MISS:      25898
cpu0_L2C PREFETCH  ACCESS:          0  HIT:          0  MISS:          0
cpu0_L2C WRITEBACK ACCESS:      38909  HIT:      38906  MISS:          3
LLC TOTAL     ACCESS:      77972  HIT:      75110  MISS:       2862
LLC LOAD      ACCESS:      23888  HIT:      22493  MISS:       1395
LLC RFO       ACCESS:      25894  HIT:      24427  MISS:       1467
LLC PREFETCH  ACCESS:          0  HIT:          0  MISS:          0
LLC WRITEBACK ACCESS:      28186  HIT:      28186  MISS:          0
Heartbeat CPU 0 instructions: 66000001 cycles: 24669081 heartbeat IPC: 1.87008 cumulative IPC: 1.56652 (Simulation time: 0 hr 29 min 27 sec) 

Region of Interest Statistics
cpu0_DTLB TOTAL     ACCESS:    3803730  HIT:    3754685  MISS:      49045
cpu0_DTLB LOAD      ACCESS:    2926359  HIT:    2892189  MISS:      34170
cpu0_DTLB RFO       ACCESS:     877371  HIT:     862496  MISS:      14875
cpu0_DTLB PREFETCH  ACCESS:          0  HIT:          0  MISS:          0
cpu0_DTLB WRITEBACK ACCESS:          0  HIT:          0  MISS:          0
cpu0_ITLB TOTAL     ACCESS:    1561758  HIT:    1561758  MISS:          0
cpu0_ITLB LOAD      ACCESS:    1561758  HIT:    1561758  MISS:          0
cpu0_ITLB RFO       ACCESS:          0  HIT:          0  MISS:          0
cpu0_ITLB PREFETCH  ACCESS:          0  HIT:          0  MISS:          0
cpu0_ITLB WRITEBACK ACCESS:          0  HIT:          0  MISS:          0
cpu0_L1I TOTAL     ACCESS:       4102  HIT:       4102  MISS:          0
cpu0_L1I LOAD      ACCESS:       4102  HIT:       4102  MISS:          0
cpu0_L1I RFO       ACCESS:          0  HIT:          0  MISS:          0
cpu0_L1I PREFETCH  ACCESS:          0  HIT:          0  MISS:          0
cpu0_L1I WRITEBACK ACCESS:          0  HIT:          0  MISS:          0
cpu0_STLB TOTAL     ACCESS:      49045  HIT:      48986  MISS:         59
cpu0_STLB LOAD      ACCESS:      34170  HIT:      34153  MISS:         17
cpu0_STLB RFO       ACCESS:      14875  HIT:      14833  MISS:         42
cpu0_STLB PREFETCH  ACCESS:          0  HIT:          0  MISS:          0
cpu0_STLB WRITEBACK ACCESS:          0  HIT:          0  MISS:          0
cpu0_L1D TOTAL     ACCESS:    4460524  HIT:    4265322  MISS:     195202
cpu0_L1D LOAD      ACCESS:    2806621  HIT:    2664672  MISS:     141949
cpu0_L1D RFO       ACCESS:    1653846  HIT:    1600627  MISS:      53219
cpu0_L1D PREFETCH  ACCESS:          0  HIT:          0  MISS:          0
cpu0_L1D WRITEBACK ACCESS:          0  HIT:          0  MISS:          0
cpu0_L2C TOTAL     ACCESS:     255863  HIT:     177767  MISS:      78096
cpu0_L2C LOAD      ACCESS:     141940  HIT:     106436  MISS:      35504
cpu0_L2C RFO       ACCESS:      53208  HIT:      10627  MISS:      42581
cpu0_L2C PREFETCH  ACCESS:          0  HIT:          0  MISS:          0
cpu0_L2C WRITEBACK ACCESS:      60681  HIT:      60676  MISS:          5
LLC TOTAL     ACCESS:     121962  HIT:     117920  MISS:       4042
LLC LOAD      ACCESS:      35503  HIT:      33863  MISS:       1640
LLC RFO       ACCESS:      42577  HIT:      40175  MISS:       2402
LLC PREFETCH  ACCESS:          0  HIT:          0  MISS:          0
LLC WRITEBACK ACCESS:      43876  HIT:      43876  MISS:          0
Heartbeat CPU 0 instructions: 68000000 cycles: 25909540 heartbeat IPC: 1.61231 cumulative IPC: 1.57148 (Simulation time: 0 hr 30 min 10 sec) 

Region of Interest Statistics
cpu0_DTLB TOTAL     ACCESS:    4264003  HIT:    4207260  MISS:      56743
cpu0_DTLB LOAD      ACCESS:    3291000  HIT:    3249537  MISS:      41463
cpu0_DTLB RFO       ACCESS:     973003  HIT:     957723  MISS:      15280
cpu0_DTLB PREFETCH  ACCESS:          0  HIT:          0  MISS:          0
cpu0_DTLB WRITEBACK ACCESS:          0  HIT:          0  MISS:          0
cpu0_ITLB TOTAL     ACCESS:    1753995  HIT:    1753995  MISS:          0
cpu0_ITLB LOAD      ACCESS:    1753995  HIT:    1753995  MISS:          0
cpu0_ITLB RFO       ACCESS:          0  HIT:          0  MISS:          0
cpu0_ITLB PREFETCH  ACCESS:          0  HIT:          0  MISS:          0
cpu0_ITLB WRITEBACK ACCESS:          0  HIT:          0  MISS:          0
cpu0_L1I TOTAL     ACCESS:       4278  HIT:       4278  MISS:          0
cpu0_L1I LOAD      ACCESS:       4278  HIT:       4278  MISS:          0
cpu0_L1I RFO       ACCESS:          0  HIT:          0  MISS:          0
cpu0_L1I PREFETCH  ACCESS:          0  HIT:          0  MISS:          0
cpu0_L1I WRITEBACK ACCESS:          0  HIT:          0  MISS:          0
cpu0_STLB TOTAL     ACCESS:      56743  HIT:      56675  MISS:         68
cpu0_STLB LOAD      ACCESS:      41463  HIT:      41444  MISS:         19
cpu0_STLB RFO       ACCESS:      15280  HIT:      15231  MISS:         49
cpu0_STLB PREFETCH  ACCESS:          0  HIT:          0  MISS:          0
cpu0_STLB WRITEBACK ACCESS:          0  HIT:          0  MISS:          0
cpu0_L1D TOTAL     ACCESS:    4960567  HIT:    4747960  MISS:     212607
cpu0_L1D LOAD      ACCESS:    3133112  HIT:    2976048  MISS:     157064
cpu0_L1D RFO       ACCESS:    1827389  HIT:    1771885  MISS:      55504
cpu0_L1D PREFETCH  ACCESS:          0  HIT:          0  MISS:          0
cpu0_L1D WRITEBACK ACCESS:          0  HIT:          0  MISS:          0
cpu0_L2C TOTAL     ACCESS:     275580  HIT:     189991  MISS:      85589
cpu0_L2C LOAD      ACCESS:     157055  HIT:     115696  MISS:      41359
cpu0_L2C RFO       ACCESS:      55493  HIT:      11274  MISS:      44219
cpu0_L2C PREFETCH  ACCESS:          0  HIT:          0  MISS:          0
cpu0_L2C WRITEBACK ACCESS:      62993  HIT:      62988  MISS:          5
LLC TOTAL     ACCESS:     134477  HIT:     129641  MISS:       4836
LLC LOAD      ACCESS:      41358  HIT:      39463  MISS:       1895
LLC RFO       ACCESS:      44215  HIT:      41274  MISS:       2941
LLC PREFETCH  ACCESS:          0  HIT:          0  MISS:          0
LLC WRITEBACK ACCESS:      48898  HIT:      48898  MISS:          0
Heartbeat CPU 0 instructions: 70000000 cycles: 27092568 heartbeat IPC: 1.69058 cumulative IPC: 1.58263 (Simulation time: 0 hr 30 min 57 sec) 

Region of Interest Statistics
cpu0_DTLB TOTAL     ACCESS:    4703643  HIT:    4639200  MISS:      64443
cpu0_DTLB LOAD      ACCESS:    3641374  HIT:    3595686  MISS:      45688
cpu0_DTLB RFO       ACCESS:    1062269  HIT:    1043514  MISS:      18755
cpu0_DTLB PREFETCH  ACCESS:          0  HIT:          0  MISS:          0
cpu0_DTLB WRITEBACK ACCESS:          0  HIT:          0  MISS:          0
cpu0_ITLB TOTAL     ACCESS:    1944040  HIT:    1944040  MISS:          0
cpu0_ITLB LOAD      ACCESS:    1944040  HIT:    1944040  MISS:          0
cpu0_ITLB RFO       ACCESS:          0  HIT:          0  MISS:          0
cpu0_ITLB PREFETCH  ACCESS:          0  HIT:          0  MISS:          0
cpu0_ITLB WRITEBACK ACCESS:          0  HIT:          0  MISS:          0
cpu0_L1I TOTAL     ACCESS:       4431  HIT:       4431  MISS:          0
cpu0_L1I LOAD      ACCESS:       4431  HIT:       4431  MISS:          0
cpu0_L1I RFO       ACCESS:          0  HIT:          0  MISS:          0
cpu0_L1I PREFETCH  ACCESS:          0  HIT:          0  MISS:          0
cpu0_L1I WRITEBACK ACCESS:          0  HIT:          0  MISS:          0
cpu0_STLB TOTAL     ACCESS:      64443  HIT:      64372  MISS:         71
cpu0_STLB LOAD      ACCESS:      45688  HIT:      45666  MISS:         22
cpu0_STLB RFO       ACCESS:      18755  HIT:      18706  MISS:         49
cpu0_STLB PREFETCH  ACCESS:          0  HIT:          0  MISS:          0
cpu0_STLB WRITEBACK ACCESS:          0  HIT:          0  MISS:          0
cpu0_L1D TOTAL     ACCESS:    5443143  HIT:    5208392  MISS:     234751
cpu0_L1D LOAD      ACCESS:    3438550  HIT:    3267952  MISS:     170598
cpu0_L1D RFO       ACCESS:    2004524  HIT:    1940412  MISS:      64112
cpu0_L1D PREFETCH  ACCESS:          0  HIT:          0  MISS:          0
cpu0_L1D WRITEBACK ACCESS:          0  HIT:          0  MISS:          0
cpu0_L2C TOTAL     ACCESS:     307693  HIT:     211158  MISS:      96535
cpu0_L2C LOAD      ACCESS:     170587  HIT:     124740  MISS:      45847
cpu0_L2C RFO       ACCESS:      64100  HIT:      13425  MISS:      50675
cpu0_L2C PREFETCH  ACCESS:          0  HIT:          0  MISS:          0
cpu0_L2C WRITEBACK ACCESS:      72965  HIT:      72959  MISS:          6
LLC TOTAL     ACCESS:     151936  HIT:     146829  MISS:       5107
LLC LOAD      ACCESS:      45846  HIT:      43680  MISS:       2166
LLC RFO       ACCESS:      50669  HIT:      47728  MISS:       2941
LLC PREFETCH  ACCESS:          0  HIT:          0  MISS:          0
LLC WRITEBACK ACCESS:      55414  HIT:      55414  MISS:          0
Heartbeat CPU 0 instructions: 72000001 cycles: 27890427 heartbeat IPC: 2.50671 cumulative IPC: 1.6375 (Simulation time: 0 hr 31 min 53 sec) 

Region of Interest Statistics
cpu0_DTLB TOTAL     ACCESS:    5144621  HIT:    5073077  MISS:      71544
cpu0_DTLB LOAD      ACCESS:    4006152  HIT:    3957192  MISS:      48960
cpu0_DTLB RFO       ACCESS:    1138469  HIT:    1115885  MISS:      22584
cpu0_DTLB PREFETCH  ACCESS:          0  HIT:          0  MISS:          0
cpu0_DTLB WRITEBACK ACCESS:          0  HIT:          0  MISS:          0
cpu0_ITLB TOTAL     ACCESS:    2046896  HIT:    2046896  MISS:          0
cpu0_ITLB LOAD      ACCESS:    2046896  HIT:    2046896  MISS:          0
cpu0_ITLB RFO       ACCESS:          0  HIT:          0  MISS:          0
cpu0_ITLB PREFETCH  ACCESS:          0  HIT:          0  MISS:          0
cpu0_ITLB WRITEBACK ACCESS:          0  HIT:          0  MISS:          0
cpu0_L1I TOTAL     ACCESS:       5136  HIT:       5136  MISS:          0
cpu0_L1I LOAD      ACCESS:       5136  HIT:       5136  MISS:          0
cpu0_L1I RFO       ACCESS:          0  HIT:          0  MISS:          0
cpu0_L1I PREFETCH  ACCESS:          0  HIT:          0  MISS:          0
cpu0_L1I WRITEBACK ACCESS:          0  HIT:          0  MISS:          0
cpu0_STLB TOTAL     ACCESS:      71544  HIT:      71455  MISS:         89
cpu0_STLB LOAD      ACCESS:      48960  HIT:      48925  MISS:         35
cpu0_STLB RFO       ACCESS:      22584  HIT:      22530  MISS:         54
cpu0_STLB PREFETCH  ACCESS:          0  HIT:          0  MISS:          0
cpu0_STLB WRITEBACK ACCESS:          0  HIT:          0  MISS:          0
cpu0_L1D TOTAL     ACCESS:    5817735  HIT:    5523632  MISS:     294103
cpu0_L1D LOAD      ACCESS:    3688674  HIT:    3471020  MISS:     217654
cpu0_L1D RFO       ACCESS:    2128974  HIT:    2052571  MISS:      76403
cpu0_L1D PREFETCH  ACCESS:          0  HIT:          0  MISS:          0
cpu0_L1D WRITEBACK ACCESS:          0  HIT:          0  MISS:          0
cpu0_L2C TOTAL     ACCESS:     383260  HIT:     255157  MISS:     128103
cpu0_L2C LOAD      ACCESS:     217642  HIT:     147660  MISS:      69982
cpu0_L2C RFO       ACCESS:      76387  HIT:      18280  MISS:      58107
cpu0_L2C PREFETCH  ACCESS:          0  HIT:          0  MISS:          0
cpu0_L2C WRITEBACK ACCESS:      89185  HIT:      89179  MISS:          6
LLC TOTAL     ACCESS:     196178  HIT:     189679  MISS:       6499
LLC LOAD      ACCESS:      69981  HIT:      66785  MISS:       3196
LLC RFO       ACCESS:      58100  HIT:      54797  MISS:       3303
LLC PREFETCH  ACCESS:          0  HIT:          0  MISS:          0
LLC WRITEBACK ACCESS:      68089  HIT:      68089  MISS:          0
Heartbeat CPU 0 instructions: 74000002 cycles: 28911207 heartbeat IPC: 1.95929 cumulative IPC: 1.66023 (Simulation time: 0 hr 32 min 44 sec) 

Region of Interest Statistics
cpu0_DTLB TOTAL     ACCESS:    5577842  HIT:    5506198  MISS:      71644
cpu0_DTLB LOAD      ACCESS:    4357389  HIT:    4308330  MISS:      49059
cpu0_DTLB RFO       ACCESS:    1220453  HIT:    1197868  MISS:      22585
cpu0_DTLB PREFETCH  ACCESS:          0  HIT:          0  MISS:          0
cpu0_DTLB WRITEBACK ACCESS:          0  HIT:          0  MISS:          0
cpu0_ITLB TOTAL     ACCESS:    2216482  HIT:    2216482  MISS:          0
cpu0_ITLB LOAD      ACCESS:    2216482  HIT:    2216482  MISS:          0
cpu0_ITLB RFO       ACCESS:          0  HIT:          0  MISS:          0
cpu0_ITLB PREFETCH  ACCESS:          0  HIT:          0  MISS:          0
cpu0_ITLB WRITEBACK ACCESS:          0  HIT:          0  MISS:          0
cpu0_L1I TOTAL     ACCESS:       5227  HIT:       5227  MISS:          0
cpu0_L1I LOAD      ACCESS:       5227  HIT:       5227  MISS:          0
cpu0_L1I RFO       ACCESS:          0  HIT:          0  MISS:          0
cpu0_L1I PREFETCH  ACCESS:          0  HIT:          0  MISS:          0
cpu0_L1I WRITEBACK ACCESS:          0  HIT:          0  MISS:          0
cpu0_STLB TOTAL     ACCESS:      71644  HIT:      71555  MISS:         89
cpu0_STLB LOAD      ACCESS:      49059  HIT:      49024  MISS:         35
cpu0_STLB RFO       ACCESS:      22585  HIT:      22531  MISS:         54
cpu0_STLB PREFETCH  ACCESS:          0  HIT:          0  MISS:          0
cpu0_STLB WRITEBACK ACCESS:          0  HIT:          0  MISS:          0
cpu0_L1D TOTAL     ACCESS:    6279272  HIT:    5967928  MISS:     311344
cpu0_L1D LOAD      ACCESS:    3986708  HIT:    3751840  MISS:     234868
cpu0_L1D RFO       ACCESS:    2292477  HIT:    2216047  MISS:      76430
cpu0_L1D PREFETCH  ACCESS:          0  HIT:          0  MISS:          0
cpu0_L1D WRITEBACK ACCESS:          0  HIT:          0  MISS:          0
cpu0_L2C TOTAL     ACCESS:     402161  HIT:     271161  MISS:     131000
cpu0_L2C LOAD      ACCESS:     234856  HIT:     161977  MISS:      72879
cpu0_L2C RFO       ACCESS:      76414  HIT:      18307  MISS:      58107
cpu0_L2C PREFETCH  ACCESS:          0  HIT:          0  MISS:          0
cpu0_L2C WRITEBACK ACCESS:      90845  HIT:      90839  MISS:          6
LLC TOTAL     ACCESS:     199464  HIT:     192965  MISS:       6499
LLC LOAD      ACCESS:      72878  HIT:      69682  MISS:       3196
LLC RFO       ACCESS:      58100  HIT:      54797  MISS:       3303
LLC PREFETCH  ACCESS:          0  HIT:          0  MISS:          0
LLC WRITEBACK ACCESS:      68478  HIT:      68478  MISS:          0
Heartbeat CPU 0 instructions: 76000001 cycles: 29915281 heartbeat IPC: 1.99188 cumulative IPC: 1.68177 (Simulation time: 0 hr 33 min 29 sec) 

Region of Interest Statistics
cpu0_DTLB TOTAL     ACCESS:    6010639  HIT:    5938831  MISS:      71808
cpu0_DTLB LOAD      ACCESS:    4706494  HIT:    4657273  MISS:      49221
cpu0_DTLB RFO       ACCESS:    1304145  HIT:    1281558  MISS:      22587
cpu0_DTLB PREFETCH  ACCESS:          0  HIT:          0  MISS:          0
cpu0_DTLB WRITEBACK ACCESS:          0  HIT:          0  MISS:          0
cpu0_ITLB TOTAL     ACCESS:    2408419  HIT:    2408419  MISS:          0
cpu0_ITLB LOAD      ACCESS:    2408419  HIT:    2408419  MISS:          0
cpu0_ITLB RFO       ACCESS:          0  HIT:          0  MISS:          0
cpu0_ITLB PREFETCH  ACCESS:          0  HIT:          0  MISS:          0
cpu0_ITLB WRITEBACK ACCESS:          0  HIT:          0  MISS:          0
cpu0_L1I TOTAL     ACCESS:       5234  HIT:       5234  MISS:          0
cpu0_L1I LOAD      ACCESS:       5234  HIT:       5234  MISS:          0
cpu0_L1I RFO       ACCESS:          0  HIT:          0  MISS:          0
cpu0_L1I PREFETCH  ACCESS:          0  HIT:          0  MISS:          0
cpu0_L1I WRITEBACK ACCESS:          0  HIT:          0  MISS:          0
cpu0_STLB TOTAL     ACCESS:      71808  HIT:      71719  MISS:         89
cpu0_STLB LOAD      ACCESS:      49221  HIT:      49186  MISS:         35
cpu0_STLB RFO       ACCESS:      22587  HIT:      22533  MISS:         54
cpu0_STLB PREFETCH  ACCESS:          0  HIT:          0  MISS:          0
cpu0_STLB WRITEBACK ACCESS:          0  HIT:          0  MISS:          0
cpu0_L1D TOTAL     ACCESS:    6747650  HIT:    6412457  MISS:     335193
cpu0_L1D LOAD      ACCESS:    4284688  HIT:    4026032  MISS:     258656
cpu0_L1D RFO       ACCESS:    2462875  HIT:    2386384  MISS:      76491
cpu0_L1D PREFETCH  ACCESS:          0  HIT:          0  MISS:          0
cpu0_L1D WRITEBACK ACCESS:          0  HIT:          0  MISS:          0
cpu0_L2C TOTAL     ACCESS:     427737  HIT:     293262  MISS:     134475
cpu0_L2C LOAD      ACCESS:     258644  HIT:     182290  MISS:      76354
cpu0_L2C RFO       ACCESS:      76475  HIT:      18368  MISS:      58107
cpu0_L2C PREFETCH  ACCESS:          0  HIT:          0  MISS:          0
cpu0_L2C WRITEBACK ACCESS:      92572  HIT:      92566  MISS:          6
LLC TOTAL     ACCESS:     203278  HIT:     196779  MISS:       6499
LLC LOAD      ACCESS:      76353  HIT:      73157  MISS:       3196
LLC RFO       ACCESS:      58100  HIT:      54797  MISS:       3303
LLC PREFETCH  ACCESS:          0  HIT:          0  MISS:          0
LLC WRITEBACK ACCESS:      68817  HIT:      68817  MISS:          0
Heartbeat CPU 0 instructions: 78000002 cycles: 30871052 heartbeat IPC: 2.09255 cumulative IPC: 1.70568 (Simulation time: 0 hr 34 min 25 sec) 

Region of Interest Statistics
cpu0_DTLB TOTAL     ACCESS:    6446347  HIT:    6374136  MISS:      72211
cpu0_DTLB LOAD      ACCESS:    5057556  HIT:    5007939  MISS:      49617
cpu0_DTLB RFO       ACCESS:    1388791  HIT:    1366197  MISS:      22594
cpu0_DTLB PREFETCH  ACCESS:          0  HIT:          0  MISS:          0
cpu0_DTLB WRITEBACK ACCESS:          0  HIT:          0  MISS:          0
cpu0_ITLB TOTAL     ACCESS:    2518248  HIT:    2518248  MISS:          0
cpu0_ITLB LOAD      ACCESS:    2518248  HIT:    2518248  MISS:          0
cpu0_ITLB RFO       ACCESS:          0  HIT:          0  MISS:          0
cpu0_ITLB PREFETCH  ACCESS:          0  HIT:          0  MISS:          0
cpu0_ITLB WRITEBACK ACCESS:          0  HIT:          0  MISS:          0
cpu0_L1I TOTAL     ACCESS:       6531  HIT:       6531  MISS:          0
cpu0_L1I LOAD      ACCESS:       6531  HIT:       6531  MISS:          0
cpu0_L1I RFO       ACCESS:          0  HIT:          0  MISS:          0
cpu0_L1I PREFETCH  ACCESS:          0  HIT:          0  MISS:          0
cpu0_L1I WRITEBACK ACCESS:          0  HIT:          0  MISS:          0
cpu0_STLB TOTAL     ACCESS:      72211  HIT:      72122  MISS:         89
cpu0_STLB LOAD      ACCESS:      49617  HIT:      49582  MISS:         35
cpu0_STLB RFO       ACCESS:      22594  HIT:      22540  MISS:         54
cpu0_STLB PREFETCH  ACCESS:          0  HIT:          0  MISS:          0
cpu0_STLB WRITEBACK ACCESS:          0  HIT:          0  MISS:          0
cpu0_L1D TOTAL     ACCESS:    7190437  HIT:    6810571  MISS:     379866
cpu0_L1D LOAD      ACCESS:    4567562  HIT:    4264258  MISS:     303304
cpu0_L1D RFO       ACCESS:    2622788  HIT:    2546272  MISS:      76516
cpu0_L1D PREFETCH  ACCESS:          0  HIT:          0  MISS:          0
cpu0_L1D WRITEBACK ACCESS:          0  HIT:          0  MISS:          0
cpu0_L2C TOTAL     ACCESS:     476743  HIT:     340567  MISS:     136176
cpu0_L2C LOAD      ACCESS:     303292  HIT:     225237  MISS:      78055
cpu0_L2C RFO       ACCESS:      76500  HIT:      18393  MISS:      58107
cpu0_L2C PREFETCH  ACCESS:          0  HIT:          0  MISS:          0
cpu0_L2C WRITEBACK ACCESS:      96905  HIT:      96899  MISS:          6
LLC TOTAL     ACCESS:     205692  HIT:     199193  MISS:       6499
LLC LOAD      ACCESS:      78052  HIT:      74856  MISS:       3196
LLC RFO       ACCESS:      58100  HIT:      54797  MISS:       3303
LLC PREFETCH  ACCESS:          0  HIT:          0  MISS:          0
LLC WRITEBACK ACCESS:      69532  HIT:      69532  MISS:          0
Heartbeat CPU 0 instructions: 80000000 cycles: 32279140 heartbeat IPC: 1.42036 cumulative IPC: 1.68314 (Simulation time: 0 hr 35 min 15 sec) 

Region of Interest Statistics
cpu0_DTLB TOTAL     ACCESS:    6904622  HIT:    6831429  MISS:      73193
cpu0_DTLB LOAD      ACCESS:    5423656  HIT:    5373057  MISS:      50599
cpu0_DTLB RFO       ACCESS:    1480966  HIT:    1458372  MISS:      22594
cpu0_DTLB PREFETCH  ACCESS:          0  HIT:          0  MISS:          0
cpu0_DTLB WRITEBACK ACCESS:          0  HIT:          0  MISS:          0
cpu0_ITLB TOTAL     ACCESS:    2727548  HIT:    2727548  MISS:          0
cpu0_ITLB LOAD      ACCESS:    2727548  HIT:    2727548  MISS:          0
cpu0_ITLB RFO       ACCESS:          0  HIT:          0  MISS:          0
cpu0_ITLB PREFETCH  ACCESS:          0  HIT:          0  MISS:          0
cpu0_ITLB WRITEBACK ACCESS:          0  HIT:          0  MISS:          0
cpu0_L1I TOTAL     ACCESS:       6732  HIT:       6732  MISS:          0
cpu0_L1I LOAD      ACCESS:       6732  HIT:       6732  MISS:          0
cpu0_L1I RFO       ACCESS:          0  HIT:          0  MISS:          0
cpu0_L1I PREFETCH  ACCESS:          0  HIT:          0  MISS:          0
cpu0_L1I WRITEBACK ACCESS:          0  HIT:          0  MISS:          0
cpu0_STLB TOTAL     ACCESS:      73193  HIT:      73104  MISS:         89
cpu0_STLB LOAD      ACCESS:      50599  HIT:      50564  MISS:         35
cpu0_STLB RFO       ACCESS:      22594  HIT:      22540  MISS:         54
cpu0_STLB PREFETCH  ACCESS:          0  HIT:          0  MISS:          0
cpu0_STLB WRITEBACK ACCESS:          0  HIT:          0  MISS:          0
cpu0_L1D TOTAL     ACCESS:    7688217  HIT:    7278998  MISS:     409219
cpu0_L1D LOAD      ACCESS:    4881711  HIT:    4549054  MISS:     332657
cpu0_L1D RFO       ACCESS:    2806419  HIT:    2729903  MISS:      76516
cpu0_L1D PREFETCH  ACCESS:          0  HIT:          0  MISS:          0
cpu0_L1D WRITEBACK ACCESS:          0  HIT:          0  MISS:          0
cpu0_L2C TOTAL     ACCESS:     508634  HIT:     372232  MISS:     136402
cpu0_L2C LOAD      ACCESS:     332644  HIT:     254363  MISS:      78281
cpu0_L2C RFO       ACCESS:      76500  HIT:      18393  MISS:      58107
cpu0_L2C PREFETCH  ACCESS:          0  HIT:          0  MISS:          0
cpu0_L2C WRITEBACK ACCESS:      99444  HIT:      99438  MISS:          6
LLC TOTAL     ACCESS:     206006  HIT:     199507  MISS:       6499
LLC LOAD      ACCESS:      78278  HIT:      75082  MISS:       3196
LLC RFO       ACCESS:      58100  HIT:      54797  MISS:       3303
LLC PREFETCH  ACCESS:          0  HIT:          0  MISS:          0
LLC WRITEBACK ACCESS:      69620  HIT:      69620  MISS:          0
Heartbeat CPU 0 instructions: 82000001 cycles: 33535280 heartbeat IPC: 1.59218 cumulative IPC: 1.67715 (Simulation time: 0 hr 36 min 6 sec) 

Region of Interest Statistics
cpu0_DTLB TOTAL     ACCESS:    7360887  HIT:    7286614  MISS:      74273
cpu0_DTLB LOAD      ACCESS:    5794669  HIT:    5742990  MISS:      51679
cpu0_DTLB RFO       ACCESS:    1566218  HIT:    1543624  MISS:      22594
cpu0_DTLB PREFETCH  ACCESS:          0  HIT:          0  MISS:          0
cpu0_DTLB WRITEBACK ACCESS:          0  HIT:          0  MISS:          0
cpu0_ITLB TOTAL     ACCESS:    2929505  HIT:    2929505  MISS:          0
cpu0_ITLB LOAD      ACCESS:    2929505  HIT:    2929505  MISS:          0
cpu0_ITLB RFO       ACCESS:          0  HIT:          0  MISS:          0
cpu0_ITLB PREFETCH  ACCESS:          0  HIT:          0  MISS:          0
cpu0_ITLB WRITEBACK ACCESS:          0  HIT:          0  MISS:          0
cpu0_L1I TOTAL     ACCESS:       6754  HIT:       6754  MISS:          0
cpu0_L1I LOAD      ACCESS:       6754  HIT:       6754  MISS:          0
cpu0_L1I RFO       ACCESS:          0  HIT:          0  MISS:          0
cpu0_L1I PREFETCH  ACCESS:          0  HIT:          0  MISS:          0
cpu0_L1I WRITEBACK ACCESS:          0  HIT:          0  MISS:          0
cpu0_STLB TOTAL     ACCESS:      74273  HIT:      74184  MISS:         89
cpu0_STLB LOAD      ACCESS:      51679  HIT:      51644  MISS:         35
cpu0_STLB RFO       ACCESS:      22594  HIT:      22540  MISS:         54
cpu0_STLB PREFETCH  ACCESS:          0  HIT:          0  MISS:          0
cpu0_STLB WRITEBACK ACCESS:          0  HIT:          0  MISS:          0
cpu0_L1D TOTAL     ACCESS:    8175715  HIT:    7755418  MISS:     420297
cpu0_L1D LOAD      ACCESS:    5198147  HIT:    4854412  MISS:     343735
cpu0_L1D RFO       ACCESS:    2977481  HIT:    2900965  MISS:      76516
cpu0_L1D PREFETCH  ACCESS:          0  HIT:          0  MISS:          0
cpu0_L1D WRITEBACK ACCESS:          0  HIT:          0  MISS:          0
cpu0_L2C TOTAL     ACCESS:     520459  HIT:     383858  MISS:     136601
cpu0_L2C LOAD      ACCESS:     343722  HIT:     265242  MISS:      78480
cpu0_L2C RFO       ACCESS:      76500  HIT:      18393  MISS:      58107
cpu0_L2C PREFETCH  ACCESS:          0  HIT:          0  MISS:          0
cpu0_L2C WRITEBACK ACCESS:     100191  HIT:     100185  MISS:          6
LLC TOTAL     ACCESS:     206325  HIT:     199826  MISS:       6499
LLC LOAD      ACCESS:      78477  HIT:      75281  MISS:       3196
LLC RFO       ACCESS:      58100  HIT:      54797  MISS:       3303
LLC PREFETCH  ACCESS:          0  HIT:          0  MISS:          0
LLC WRITEBACK ACCESS:      69740  HIT:      69740  MISS:          0
Heartbeat CPU 0 instructions: 84000002 cycles: 34754177 heartbeat IPC: 1.64083 cumulative IPC: 1.67497 (Simulation time: 0 hr 36 min 51 sec) 

Region of Interest Statistics
cpu0_DTLB TOTAL     ACCESS:    7813963  HIT:    7739033  MISS:      74930
cpu0_DTLB LOAD      ACCESS:    6166407  HIT:    6114071  MISS:      52336
cpu0_DTLB RFO       ACCESS:    1647556  HIT:    1624962  MISS:      22594
cpu0_DTLB PREFETCH  ACCESS:          0  HIT:          0  MISS:          0
cpu0_DTLB WRITEBACK ACCESS:          0  HIT:          0  MISS:          0
cpu0_ITLB TOTAL     ACCESS:    3128702  HIT:    3128702  MISS:          0
cpu0_ITLB LOAD      ACCESS:    3128702  HIT:    3128702  MISS:          0
cpu0_ITLB RFO       ACCESS:          0  HIT:          0  MISS:          0
cpu0_ITLB PREFETCH  ACCESS:          0  HIT:          0  MISS:          0
cpu0_ITLB WRITEBACK ACCESS:          0  HIT:          0  MISS:          0
cpu0_L1I TOTAL     ACCESS:       6763  HIT:       6763  MISS:          0
cpu0_L1I LOAD      ACCESS:       6763  HIT:       6763  MISS:          0
cpu0_L1I RFO       ACCESS:          0  HIT:          0  MISS:          0
cpu0_L1I PREFETCH  ACCESS:          0  HIT:          0  MISS:          0
cpu0_L1I WRITEBACK ACCESS:          0  HIT:          0  MISS:          0
cpu0_STLB TOTAL     ACCESS:      74930  HIT:      74841  MISS:         89
cpu0_STLB LOAD      ACCESS:      52336  HIT:      52301  MISS:         35
cpu0_STLB RFO       ACCESS:      22594  HIT:      22540  MISS:         54
cpu0_STLB PREFETCH  ACCESS:          0  HIT:          0  MISS:          0
cpu0_STLB WRITEBACK ACCESS:          0  HIT:          0  MISS:          0
cpu0_L1D TOTAL     ACCESS:    8651860  HIT:    8225595  MISS:     426265
cpu0_L1D LOAD      ACCESS:    5510302  HIT:    5160599  MISS:     349703
cpu0_L1D RFO       ACCESS:    3141471  HIT:    3064955  MISS:      76516
cpu0_L1D PREFETCH  ACCESS:          0  HIT:          0  MISS:          0
cpu0_L1D WRITEBACK ACCESS:          0  HIT:          0  MISS:          0
cpu0_L2C TOTAL     ACCESS:     526860  HIT:     390059  MISS:     136801
cpu0_L2C LOAD      ACCESS:     349690  HIT:     271010  MISS:      78680
cpu0_L2C RFO       ACCESS:      76500  HIT:      18393  MISS:      58107
cpu0_L2C PREFETCH  ACCESS:          0  HIT:          0  MISS:          0
cpu0_L2C WRITEBACK ACCESS:     100624  HIT:     100618  MISS:          6
LLC TOTAL     ACCESS:     206637  HIT:     200138  MISS:       6499
LLC LOAD      ACCESS:      78677  HIT:      75481  MISS:       3196
LLC RFO       ACCESS:      58100  HIT:      54797  MISS:       3303
LLC PREFETCH  ACCESS:          0  HIT:          0  MISS:          0
LLC WRITEBACK ACCESS:      69852  HIT:      69852  MISS:          0
Heartbeat CPU 0 instructions: 86000002 cycles: 35941406 heartbeat IPC: 1.68459 cumulative IPC: 1.67551 (Simulation time: 0 hr 37 min 40 sec) 

Region of Interest Statistics
cpu0_DTLB TOTAL     ACCESS:    8265508  HIT:    8190136  MISS:      75372
cpu0_DTLB LOAD      ACCESS:    6539322  HIT:    6486544  MISS:      52778
cpu0_DTLB RFO       ACCESS:    1726186  HIT:    1703592  MISS:      22594
cpu0_DTLB PREFETCH  ACCESS:          0  HIT:          0  MISS:          0
cpu0_DTLB WRITEBACK ACCESS:          0  HIT:          0  MISS:          0
cpu0_ITLB TOTAL     ACCESS:    3324282  HIT:    3324282  MISS:          0
cpu0_ITLB LOAD      ACCESS:    3324282  HIT:    3324282  MISS:          0
cpu0_ITLB RFO       ACCESS:          0  HIT:          0  MISS:          0
cpu0_ITLB PREFETCH  ACCESS:          0  HIT:          0  MISS:          0
cpu0_ITLB WRITEBACK ACCESS:          0  HIT:          0  MISS:          0
cpu0_L1I TOTAL     ACCESS:       6763  HIT:       6763  MISS:          0
cpu0_L1I LOAD      ACCESS:       6763  HIT:       6763  MISS:          0
cpu0_L1I RFO       ACCESS:          0  HIT:          0  MISS:          0
cpu0_L1I PREFETCH  ACCESS:          0  HIT:          0  MISS:          0
cpu0_L1I WRITEBACK ACCESS:          0  HIT:          0  MISS:          0
cpu0_STLB TOTAL     ACCESS:      75372  HIT:      75283  MISS:         89
cpu0_STLB LOAD      ACCESS:      52778  HIT:      52743  MISS:         35
cpu0_STLB RFO       ACCESS:      22594  HIT:      22540  MISS:         54
cpu0_STLB PREFETCH  ACCESS:          0  HIT:          0  MISS:          0
cpu0_STLB WRITEBACK ACCESS:          0  HIT:          0  MISS:          0
cpu0_L1D TOTAL     ACCESS:    9114209  HIT:    8682622  MISS:     431587
cpu0_L1D LOAD      ACCESS:    5814317  HIT:    5459292  MISS:     355025
cpu0_L1D RFO       ACCESS:    3299805  HIT:    3223289  MISS:      76516
cpu0_L1D PREFETCH  ACCESS:          0  HIT:          0  MISS:          0
cpu0_L1D WRITEBACK ACCESS:          0  HIT:          0  MISS:          0
cpu0_L2C TOTAL     ACCESS:     532569  HIT:     395602  MISS:     136967
cpu0_L2C LOAD      ACCESS:     355012  HIT:     276166  MISS:      78846
cpu0_L2C RFO       ACCESS:      76500  HIT:      18393  MISS:      58107
cpu0_L2C PREFETCH  ACCESS:          0  HIT:          0  MISS:          0
cpu0_L2C WRITEBACK ACCESS:     101011  HIT:     101005  MISS:          6
LLC TOTAL     ACCESS:     206867  HIT:     200368  MISS:       6499
LLC LOAD      ACCESS:      78843  HIT:      75647  MISS:       3196
LLC RFO       ACCESS:      58100  HIT:      54797  MISS:       3303
LLC PREFETCH  ACCESS:          0  HIT:          0  MISS:          0
LLC WRITEBACK ACCESS:      69916  HIT:      69916  MISS:          0
Heartbeat CPU 0 instructions: 88000002 cycles: 37140911 heartbeat IPC: 1.66735 cumulative IPC: 1.67507 (Simulation time: 0 hr 38 min 23 sec) 

Region of Interest Statistics
cpu0_DTLB TOTAL     ACCESS:    8702143  HIT:    8626487  MISS:      75656
cpu0_DTLB LOAD      ACCESS:    6896790  HIT:    6843728  MISS:      53062
cpu0_DTLB RFO       ACCESS:    1805353  HIT:    1782759  MISS:      22594
cpu0_DTLB PREFETCH  ACCESS:          0  HIT:          0  MISS:          0
cpu0_DTLB WRITEBACK ACCESS:          0  HIT:          0  MISS:          0
cpu0_ITLB TOTAL     ACCESS:    3526067  HIT:    3526067  MISS:          0
cpu0_ITLB LOAD      ACCESS:    3526067  HIT:    3526067  MISS:          0
cpu0_ITLB RFO       ACCESS:          0  HIT:          0  MISS:          0
cpu0_ITLB PREFETCH  ACCESS:          0  HIT:          0  MISS:          0
cpu0_ITLB WRITEBACK ACCESS:          0  HIT:          0  MISS:          0
cpu0_L1I TOTAL     ACCESS:       6763  HIT:       6763  MISS:          0
cpu0_L1I LOAD      ACCESS:       6763  HIT:       6763  MISS:          0
cpu0_L1I RFO       ACCESS:          0  HIT:          0  MISS:          0
cpu0_L1I PREFETCH  ACCESS:          0  HIT:          0  MISS:          0
cpu0_L1I WRITEBACK ACCESS:          0  HIT:          0  MISS:          0
cpu0_STLB TOTAL     ACCESS:      75656  HIT:      75567  MISS:         89
cpu0_STLB LOAD      ACCESS:      53062  HIT:      53027  MISS:         35
cpu0_STLB RFO       ACCESS:      22594  HIT:      22540  MISS:         54
cpu0_STLB PREFETCH  ACCESS:          0  HIT:          0  MISS:          0
cpu0_STLB WRITEBACK ACCESS:          0  HIT:          0  MISS:          0
cpu0_L1D TOTAL     ACCESS:    9562745  HIT:    9124460  MISS:     438285
cpu0_L1D LOAD      ACCESS:    6104598  HIT:    5742875  MISS:     361723
cpu0_L1D RFO       ACCESS:    3458060  HIT:    3381544  MISS:      76516
cpu0_L1D PREFETCH  ACCESS:          0  HIT:          0  MISS:          0
cpu0_L1D WRITEBACK ACCESS:          0  HIT:          0  MISS:          0
cpu0_L2C TOTAL     ACCESS:     539741  HIT:     402469  MISS:     137272
cpu0_L2C LOAD      ACCESS:     361710  HIT:     282559  MISS:      79151
cpu0_L2C RFO       ACCESS:      76500  HIT:      18393  MISS:      58107
cpu0_L2C PREFETCH  ACCESS:          0  HIT:          0  MISS:          0
cpu0_L2C WRITEBACK ACCESS:     101485  HIT:     101479  MISS:          6
LLC TOTAL     ACCESS:     207345  HIT:     200846  MISS:       6499
LLC LOAD      ACCESS:      79148  HIT:      75952  MISS:       3196
LLC RFO       ACCESS:      58100  HIT:      54797  MISS:       3303
LLC PREFETCH  ACCESS:          0  HIT:          0  MISS:          0
LLC WRITEBACK ACCESS:      70089  HIT:      70089  MISS:          0
Heartbeat CPU 0 instructions: 90000000 cycles: 38111391 heartbeat IPC: 2.06083 cumulative IPC: 1.6909 (Simulation time: 0 hr 39 min 13 sec) 

Region of Interest Statistics
cpu0_DTLB TOTAL     ACCESS:    9148924  HIT:    9071338  MISS:      77586
cpu0_DTLB LOAD      ACCESS:    7251066  HIT:    7197287  MISS:      53779
cpu0_DTLB RFO       ACCESS:    1897858  HIT:    1874051  MISS:      23807
cpu0_DTLB PREFETCH  ACCESS:          0  HIT:          0  MISS:          0
cpu0_DTLB WRITEBACK ACCESS:          0  HIT:          0  MISS:          0
cpu0_ITLB TOTAL     ACCESS:    3689132  HIT:    3689132  MISS:          0
cpu0_ITLB LOAD      ACCESS:    3689132  HIT:    3689132  MISS:          0
cpu0_ITLB RFO       ACCESS:          0  HIT:          0  MISS:          0
cpu0_ITLB PREFETCH  ACCESS:          0  HIT:          0  MISS:          0
cpu0_ITLB WRITEBACK ACCESS:          0  HIT:          0  MISS:          0
cpu0_L1I TOTAL     ACCESS:       8494  HIT:       8494  MISS:          0
cpu0_L1I LOAD      ACCESS:       8494  HIT:       8494  MISS:          0
cpu0_L1I RFO       ACCESS:          0  HIT:          0  MISS:          0
cpu0_L1I PREFETCH  ACCESS:          0  HIT:          0  MISS:          0
cpu0_L1I WRITEBACK ACCESS:          0  HIT:          0  MISS:          0
cpu0_STLB TOTAL     ACCESS:      77586  HIT:      77467  MISS:        119
cpu0_STLB LOAD      ACCESS:      53779  HIT:      53729  MISS:         50
cpu0_STLB RFO       ACCESS:      23807  HIT:      23738  MISS:         69
cpu0_STLB PREFETCH  ACCESS:          0  HIT:          0  MISS:          0
cpu0_STLB WRITEBACK ACCESS:          0  HIT:          0  MISS:          0
cpu0_L1D TOTAL     ACCESS:    9974020  HIT:    9494500  MISS:     479520
cpu0_L1D LOAD      ACCESS:    6374306  HIT:    5986079  MISS:     388227
cpu0_L1D RFO       ACCESS:    3599598  HIT:    3508360  MISS:      91238
cpu0_L1D PREFETCH  ACCESS:          0  HIT:          0  MISS:          0
cpu0_L1D WRITEBACK ACCESS:          0  HIT:          0  MISS:          0
cpu0_L2C TOTAL     ACCESS:     597041  HIT:     430113  MISS:     166928
cpu0_L2C LOAD      ACCESS:     388214  HIT:     293941  MISS:      94273
cpu0_L2C RFO       ACCESS:      91222  HIT:      18584  MISS:      72638
cpu0_L2C PREFETCH  ACCESS:          0  HIT:          0  MISS:          0
cpu0_L2C WRITEBACK ACCESS:     117550  HIT:     117543  MISS:          7
LLC TOTAL     ACCESS:     252724  HIT:     244053  MISS:       8671
LLC LOAD      ACCESS:      94270  HIT:      89868  MISS:       4402
LLC RFO       ACCESS:      72631  HIT:      68362  MISS:       4269
LLC PREFETCH  ACCESS:          0  HIT:          0  MISS:          0
LLC WRITEBACK ACCESS:      85813  HIT:      85813  MISS:          0
Heartbeat CPU 0 instructions: 92000002 cycles: 39110709 heartbeat IPC: 2.00137 cumulative IPC: 1.70348 (Simulation time: 0 hr 40 min 0 sec) 

Region of Interest Statistics
cpu0_DTLB TOTAL     ACCESS:    9587574  HIT:    9509904  MISS:      77670
cpu0_DTLB LOAD      ACCESS:    7596617  HIT:    7542755  MISS:      53862
cpu0_DTLB RFO       ACCESS:    1990957  HIT:    1967149  MISS:      23808
cpu0_DTLB PREFETCH  ACCESS:          0  HIT:          0  MISS:          0
cpu0_DTLB WRITEBACK ACCESS:          0  HIT:          0  MISS:          0
cpu0_ITLB TOTAL     ACCESS:    3833705  HIT:    3833705  MISS:          0
cpu0_ITLB LOAD      ACCESS:    3833705  HIT:    3833705  MISS:          0
cpu0_ITLB RFO       ACCESS:          0  HIT:          0  MISS:          0
cpu0_ITLB PREFETCH  ACCESS:          0  HIT:          0  MISS:          0
cpu0_ITLB WRITEBACK ACCESS:          0  HIT:          0  MISS:          0
cpu0_L1I TOTAL     ACCESS:       8846  HIT:       8846  MISS:          0
cpu0_L1I LOAD      ACCESS:       8846  HIT:       8846  MISS:          0
cpu0_L1I RFO       ACCESS:          0  HIT:          0  MISS:          0
cpu0_L1I PREFETCH  ACCESS:          0  HIT:          0  MISS:          0
cpu0_L1I WRITEBACK ACCESS:          0  HIT:          0  MISS:          0
cpu0_STLB TOTAL     ACCESS:      77670  HIT:      77551  MISS:        119
cpu0_STLB LOAD      ACCESS:      53862  HIT:      53812  MISS:         50
cpu0_STLB RFO       ACCESS:      23808  HIT:      23739  MISS:         69
cpu0_STLB PREFETCH  ACCESS:          0  HIT:          0  MISS:          0
cpu0_STLB WRITEBACK ACCESS:          0  HIT:          0  MISS:          0
cpu0_L1D TOTAL     ACCESS:   10463758  HIT:    9969294  MISS:     494464
cpu0_L1D LOAD      ACCESS:    6677999  HIT:    6274861  MISS:     403138
cpu0_L1D RFO       ACCESS:    3785643  HIT:    3694372  MISS:      91271
cpu0_L1D PREFETCH  ACCESS:          0  HIT:          0  MISS:          0
cpu0_L1D WRITEBACK ACCESS:          0  HIT:          0  MISS:          0
cpu0_L2C TOTAL     ACCESS:     614253  HIT:     444921  MISS:     169332
cpu0_L2C LOAD      ACCESS:     403124  HIT:     306448  MISS:      96676
cpu0_L2C RFO       ACCESS:      91255  HIT:      18616  MISS:      72639
cpu0_L2C PREFETCH  ACCESS:          0  HIT:          0  MISS:          0
cpu0_L2C WRITEBACK ACCESS:     119819  HIT:     119812  MISS:          7
LLC TOTAL     ACCESS:     255533  HIT:     246862  MISS:       8671
LLC LOAD      ACCESS:      96673  HIT:      92271  MISS:       4402
LLC RFO       ACCESS:      72632  HIT:      68363  MISS:       4269
LLC PREFETCH  ACCESS:          0  HIT:          0  MISS:          0
LLC WRITEBACK ACCESS:      86218  HIT:      86218  MISS:          0
Heartbeat CPU 0 instructions: 94000000 cycles: 40054886 heartbeat IPC: 2.11824 cumulative IPC: 1.71878 (Simulation time: 0 hr 40 min 47 sec) 

Region of Interest Statistics
cpu0_DTLB TOTAL     ACCESS:   10008140  HIT:    9930207  MISS:      77933
cpu0_DTLB LOAD      ACCESS:    7935734  HIT:    7881613  MISS:      54121
cpu0_DTLB RFO       ACCESS:    2072406  HIT:    2048594  MISS:      23812
cpu0_DTLB PREFETCH  ACCESS:          0  HIT:          0  MISS:          0
cpu0_DTLB WRITEBACK ACCESS:          0  HIT:          0  MISS:          0
cpu0_ITLB TOTAL     ACCESS:    3975408  HIT:    3975408  MISS:          0
cpu0_ITLB LOAD      ACCESS:    3975408  HIT:    3975408  MISS:          0
cpu0_ITLB RFO       ACCESS:          0  HIT:          0  MISS:          0
cpu0_ITLB PREFETCH  ACCESS:          0  HIT:          0  MISS:          0
cpu0_ITLB WRITEBACK ACCESS:          0  HIT:          0  MISS:          0
cpu0_L1I TOTAL     ACCESS:      10099  HIT:      10099  MISS:          0
cpu0_L1I LOAD      ACCESS:      10099  HIT:      10099  MISS:          0
cpu0_L1I RFO       ACCESS:          0  HIT:          0  MISS:          0
cpu0_L1I PREFETCH  ACCESS:          0  HIT:          0  MISS:          0
cpu0_L1I WRITEBACK ACCESS:          0  HIT:          0  MISS:          0
cpu0_STLB TOTAL     ACCESS:      77933  HIT:      77814  MISS:        119
cpu0_STLB LOAD      ACCESS:      54121  HIT:      54071  MISS:         50
cpu0_STLB RFO       ACCESS:      23812  HIT:      23743  MISS:         69
cpu0_STLB PREFETCH  ACCESS:          0  HIT:          0  MISS:          0
cpu0_STLB WRITEBACK ACCESS:          0  HIT:          0  MISS:          0
cpu0_L1D TOTAL     ACCESS:   10926376  HIT:   10412056  MISS:     514320
cpu0_L1D LOAD      ACCESS:    6976681  HIT:    6553713  MISS:     422968
cpu0_L1D RFO       ACCESS:    3949579  HIT:    3858282  MISS:      91297
cpu0_L1D PREFETCH  ACCESS:          0  HIT:          0  MISS:          0
cpu0_L1D WRITEBACK ACCESS:          0  HIT:          0  MISS:          0
cpu0_L2C TOTAL     ACCESS:     636176  HIT:     462670  MISS:     173506
cpu0_L2C LOAD      ACCESS:     422954  HIT:     322104  MISS:     100850
cpu0_L2C RFO       ACCESS:      91281  HIT:      18642  MISS:      72639
cpu0_L2C PREFETCH  ACCESS:          0  HIT:          0  MISS:          0
cpu0_L2C WRITEBACK ACCESS:     121886  HIT:     121879  MISS:          7
LLC TOTAL     ACCESS:     260028  HIT:     251357  MISS:       8671
LLC LOAD      ACCESS:     100847  HIT:      96445  MISS:       4402
LLC RFO       ACCESS:      72632  HIT:      68363  MISS:       4269
LLC PREFETCH  ACCESS:          0  HIT:          0  MISS:          0
LLC WRITEBACK ACCESS:      86539  HIT:      86539  MISS:          0
Heartbeat CPU 0 instructions: 96000000 cycles: 41046767 heartbeat IPC: 2.01637 cumulative IPC: 1.72988 (Simulation time: 0 hr 41 min 34 sec) 

Region of Interest Statistics
cpu0_DTLB TOTAL     ACCESS:   10458520  HIT:   10380067  MISS:      78453
cpu0_DTLB LOAD      ACCESS:    8291823  HIT:    8237190  MISS:      54633
cpu0_DTLB RFO       ACCESS:    2166697  HIT:    2142877  MISS:      23820
cpu0_DTLB PREFETCH  ACCESS:          0  HIT:          0  MISS:          0
cpu0_DTLB WRITEBACK ACCESS:          0  HIT:          0  MISS:          0
cpu0_ITLB TOTAL     ACCESS:    4083603  HIT:    4083603  MISS:          0
cpu0_ITLB LOAD      ACCESS:    4083603  HIT:    4083603  MISS:          0
cpu0_ITLB RFO       ACCESS:          0  HIT:          0  MISS:          0
cpu0_ITLB PREFETCH  ACCESS:          0  HIT:          0  MISS:          0
cpu0_ITLB WRITEBACK ACCESS:          0  HIT:          0  MISS:          0
cpu0_L1I TOTAL     ACCESS:      10704  HIT:      10704  MISS:          0
cpu0_L1I LOAD      ACCESS:      10704  HIT:      10704  MISS:          0
cpu0_L1I RFO       ACCESS:          0  HIT:          0  MISS:          0
cpu0_L1I PREFETCH  ACCESS:          0  HIT:          0  MISS:          0
cpu0_L1I WRITEBACK ACCESS:          0  HIT:          0  MISS:          0
cpu0_STLB TOTAL     ACCESS:      78453  HIT:      78334  MISS:        119
cpu0_STLB LOAD      ACCESS:      54633  HIT:      54583  MISS:         50
cpu0_STLB RFO       ACCESS:      23820  HIT:      23751  MISS:         69
cpu0_STLB PREFETCH  ACCESS:          0  HIT:          0  MISS:          0
cpu0_STLB WRITEBACK ACCESS:          0  HIT:          0  MISS:          0
cpu0_L1D TOTAL     ACCESS:   11409460  HIT:   10842349  MISS:     567111
cpu0_L1D LOAD      ACCESS:    7282192  HIT:    6806459  MISS:     475733
cpu0_L1D RFO       ACCESS:    4127152  HIT:    4035829  MISS:      91323
cpu0_L1D PREFETCH  ACCESS:          0  HIT:          0  MISS:          0
cpu0_L1D WRITEBACK ACCESS:          0  HIT:          0  MISS:          0
cpu0_L2C TOTAL     ACCESS:     694110  HIT:     520603  MISS:     173507
cpu0_L2C LOAD      ACCESS:     475719  HIT:     374868  MISS:     100851
cpu0_L2C RFO       ACCESS:      91307  HIT:      18668  MISS:      72639
cpu0_L2C PREFETCH  ACCESS:          0  HIT:          0  MISS:          0
cpu0_L2C WRITEBACK ACCESS:     127029  HIT:     127022  MISS:          7
LLC TOTAL     ACCESS:     260029  HIT:     251358  MISS:       8671
LLC LOAD      ACCESS:     100848  HIT:      96446  MISS:       4402
LLC RFO       ACCESS:      72632  HIT:      68363  MISS:       4269
LLC PREFETCH  ACCESS:          0  HIT:          0  MISS:          0
LLC WRITEBACK ACCESS:      86539  HIT:      86539  MISS:          0
Heartbeat CPU 0 instructions: 98000000 cycles: 42553469 heartbeat IPC: 1.3274 cumulative IPC: 1.7083 (Simulation time: 0 hr 42 min 15 sec) 

Region of Interest Statistics
cpu0_DTLB TOTAL     ACCESS:   10951436  HIT:   10871500  MISS:      79936
cpu0_DTLB LOAD      ACCESS:    8671317  HIT:    8615201  MISS:      56116
cpu0_DTLB RFO       ACCESS:    2280119  HIT:    2256299  MISS:      23820
cpu0_DTLB PREFETCH  ACCESS:          0  HIT:          0  MISS:          0
cpu0_DTLB WRITEBACK ACCESS:          0  HIT:          0  MISS:          0
cpu0_ITLB TOTAL     ACCESS:    4311138  HIT:    4311138  MISS:          0
cpu0_ITLB LOAD      ACCESS:    4311138  HIT:    4311138  MISS:          0
cpu0_ITLB RFO       ACCESS:          0  HIT:          0  MISS:          0
cpu0_ITLB PREFETCH  ACCESS:          0  HIT:          0  MISS:          0
cpu0_ITLB WRITEBACK ACCESS:          0  HIT:          0  MISS:          0
cpu0_L1I TOTAL     ACCESS:      10803  HIT:      10803  MISS:          0
cpu0_L1I LOAD      ACCESS:      10803  HIT:      10803  MISS:          0
cpu0_L1I RFO       ACCESS:          0  HIT:          0  MISS:          0
cpu0_L1I PREFETCH  ACCESS:          0  HIT:          0  MISS:          0
cpu0_L1I WRITEBACK ACCESS:          0  HIT:          0  MISS:          0
cpu0_STLB TOTAL     ACCESS:      79936  HIT:      79817  MISS:        119
cpu0_STLB LOAD      ACCESS:      56116  HIT:      56066  MISS:         50
cpu0_STLB RFO       ACCESS:      23820  HIT:      23751  MISS:         69
cpu0_STLB PREFETCH  ACCESS:          0  HIT:          0  MISS:          0
cpu0_STLB WRITEBACK ACCESS:          0  HIT:          0  MISS:          0
cpu0_L1D TOTAL     ACCESS:   12003750  HIT:   11405680  MISS:     598070
cpu0_L1D LOAD      ACCESS:    7650263  HIT:    7143571  MISS:     506692
cpu0_L1D RFO       ACCESS:    4353371  HIT:    4262048  MISS:      91323
cpu0_L1D PREFETCH  ACCESS:          0  HIT:          0  MISS:          0
cpu0_L1D WRITEBACK ACCESS:          0  HIT:          0  MISS:          0
cpu0_L2C TOTAL     ACCESS:     727675  HIT:     554168  MISS:     173507
cpu0_L2C LOAD      ACCESS:     506677  HIT:     405826  MISS:     100851
cpu0_L2C RFO       ACCESS:      91307  HIT:      18668  MISS:      72639
cpu0_L2C PREFETCH  ACCESS:          0  HIT:          0  MISS:          0
cpu0_L2C WRITEBACK ACCESS:     129636  HIT:     129629  MISS:          7
LLC TOTAL     ACCESS:     260029  HIT:     251358  MISS:       8671
LLC LOAD      ACCESS:     100848  HIT:      96446  MISS:       4402
LLC RFO       ACCESS:      72632  HIT:      68363  MISS:       4269
LLC PREFETCH  ACCESS:          0  HIT:          0  MISS:          0
LLC WRITEBACK ACCESS:      86539  HIT:      86539  MISS:          0
Heartbeat CPU 0 instructions: 100000000 cycles: 43885131 heartbeat IPC: 1.50188 cumulative IPC: 1.69896 (Simulation time: 0 hr 43 min 0 sec) 

Region of Interest Statistics
cpu0_DTLB TOTAL     ACCESS:   11442200  HIT:   11361214  MISS:      80986
cpu0_DTLB LOAD      ACCESS:    9057969  HIT:    9000803  MISS:      57166
cpu0_DTLB RFO       ACCESS:    2384231  HIT:    2360411  MISS:      23820
cpu0_DTLB PREFETCH  ACCESS:          0  HIT:          0  MISS:          0
cpu0_DTLB WRITEBACK ACCESS:          0  HIT:          0  MISS:          0
cpu0_ITLB TOTAL     ACCESS:    4531982  HIT:    4531982  MISS:          0
cpu0_ITLB LOAD      ACCESS:    4531982  HIT:    4531982  MISS:          0
cpu0_ITLB RFO       ACCESS:          0  HIT:          0  MISS:          0
cpu0_ITLB PREFETCH  ACCESS:          0  HIT:          0  MISS:          0
cpu0_ITLB WRITEBACK ACCESS:          0  HIT:          0  MISS:          0
cpu0_L1I TOTAL     ACCESS:      10803  HIT:      10803  MISS:          0
cpu0_L1I LOAD      ACCESS:      10803  HIT:      10803  MISS:          0
cpu0_L1I RFO       ACCESS:          0  HIT:          0  MISS:          0
cpu0_L1I PREFETCH  ACCESS:          0  HIT:          0  MISS:          0
cpu0_L1I WRITEBACK ACCESS:          0  HIT:          0  MISS:          0
cpu0_STLB TOTAL     ACCESS:      80986  HIT:      80867  MISS:        119
cpu0_STLB LOAD      ACCESS:      57166  HIT:      57116  MISS:         50
cpu0_STLB RFO       ACCESS:      23820  HIT:      23751  MISS:         69
cpu0_STLB PREFETCH  ACCESS:          0  HIT:          0  MISS:          0
cpu0_STLB WRITEBACK ACCESS:          0  HIT:          0  MISS:          0
cpu0_L1D TOTAL     ACCESS:   12576110  HIT:   11969739  MISS:     606371
cpu0_L1D LOAD      ACCESS:    8012836  HIT:    7497843  MISS:     514993
cpu0_L1D RFO       ACCESS:    4563158  HIT:    4471835  MISS:      91323
cpu0_L1D PREFETCH  ACCESS:          0  HIT:          0  MISS:          0
cpu0_L1D WRITEBACK ACCESS:          0  HIT:          0  MISS:          0
cpu0_L2C TOTAL     ACCESS:     736602  HIT:     563095  MISS:     173507
cpu0_L2C LOAD      ACCESS:     514977  HIT:     414126  MISS:     100851
cpu0_L2C RFO       ACCESS:      91307  HIT:      18668  MISS:      72639
cpu0_L2C PREFETCH  ACCESS:          0  HIT:          0  MISS:          0
cpu0_L2C WRITEBACK ACCESS:     130263  HIT:     130256  MISS:          7
LLC TOTAL     ACCESS:     260029  HIT:     251358  MISS:       8671
LLC LOAD      ACCESS:     100848  HIT:      96446  MISS:       4402
LLC RFO       ACCESS:      72632  HIT:      68363  MISS:       4269
LLC PREFETCH  ACCESS:          0  HIT:          0  MISS:          0
LLC WRITEBACK ACCESS:      86539  HIT:      86539  MISS:          0
Heartbeat CPU 0 instructions: 102000000 cycles: 45180596 heartbeat IPC: 1.54385 cumulative IPC: 1.69242 (Simulation time: 0 hr 43 min 49 sec) 

Region of Interest Statistics
cpu0_DTLB TOTAL     ACCESS:   11925713  HIT:   11844204  MISS:      81509
cpu0_DTLB LOAD      ACCESS:    9442191  HIT:    9384502  MISS:      57689
cpu0_DTLB RFO       ACCESS:    2483522  HIT:    2459702  MISS:      23820
cpu0_DTLB PREFETCH  ACCESS:          0  HIT:          0  MISS:          0
cpu0_DTLB WRITEBACK ACCESS:          0  HIT:          0  MISS:          0
cpu0_ITLB TOTAL     ACCESS:    4750414  HIT:    4750414  MISS:          0
cpu0_ITLB LOAD      ACCESS:    4750414  HIT:    4750414  MISS:          0
cpu0_ITLB RFO       ACCESS:          0  HIT:          0  MISS:          0
cpu0_ITLB PREFETCH  ACCESS:          0  HIT:          0  MISS:          0
cpu0_ITLB WRITEBACK ACCESS:          0  HIT:          0  MISS:          0
cpu0_L1I TOTAL     ACCESS:      10803  HIT:      10803  MISS:          0
cpu0_L1I LOAD      ACCESS:      10803  HIT:      10803  MISS:          0
cpu0_L1I RFO       ACCESS:          0  HIT:          0  MISS:          0
cpu0_L1I PREFETCH  ACCESS:          0  HIT:          0  MISS:          0
cpu0_L1I WRITEBACK ACCESS:          0  HIT:          0  MISS:          0
cpu0_STLB TOTAL     ACCESS:      81509  HIT:      81390  MISS:        119
cpu0_STLB LOAD      ACCESS:      57689  HIT:      57639  MISS:         50
cpu0_STLB RFO       ACCESS:      23820  HIT:      23751  MISS:         69
cpu0_STLB PREFETCH  ACCESS:          0  HIT:          0  MISS:          0
cpu0_STLB WRITEBACK ACCESS:          0  HIT:          0  MISS:          0
cpu0_L1D TOTAL     ACCESS:   13132693  HIT:   12519691  MISS:     613002
cpu0_L1D LOAD      ACCESS:    8370167  HIT:    7848543  MISS:     521624
cpu0_L1D RFO       ACCESS:    4762410  HIT:    4671087  MISS:      91323
cpu0_L1D PREFETCH  ACCESS:          0  HIT:          0  MISS:          0
cpu0_L1D WRITEBACK ACCESS:          0  HIT:          0  MISS:          0
cpu0_L2C TOTAL     ACCESS:     743721  HIT:     570210  MISS:     173511
cpu0_L2C LOAD      ACCESS:     521608  HIT:     420753  MISS:     100855
cpu0_L2C RFO       ACCESS:      91307  HIT:      18668  MISS:      72639
cpu0_L2C PREFETCH  ACCESS:          0  HIT:          0  MISS:          0
cpu0_L2C WRITEBACK ACCESS:     130751  HIT:     130744  MISS:          7
LLC TOTAL     ACCESS:     260033  HIT:     251362  MISS:       8671
LLC LOAD      ACCESS:     100852  HIT:      96450  MISS:       4402
LLC RFO       ACCESS:      72632  HIT:      68363  MISS:       4269
LLC PREFETCH  ACCESS:          0  HIT:          0  MISS:          0
LLC WRITEBACK ACCESS:      86539  HIT:      86539  MISS:          0
Heartbeat CPU 0 instructions: 104000003 cycles: 46471253 heartbeat IPC: 1.5496 cumulative IPC: 1.68666 (Simulation time: 0 hr 44 min 35 sec) 

Region of Interest Statistics
cpu0_DTLB TOTAL     ACCESS:   12386239  HIT:   12304503  MISS:      81736
cpu0_DTLB LOAD      ACCESS:    9806228  HIT:    9748312  MISS:      57916
cpu0_DTLB RFO       ACCESS:    2580011  HIT:    2556191  MISS:      23820
cpu0_DTLB PREFETCH  ACCESS:          0  HIT:          0  MISS:          0
cpu0_DTLB WRITEBACK ACCESS:          0  HIT:          0  MISS:          0
cpu0_ITLB TOTAL     ACCESS:    4968655  HIT:    4968655  MISS:          0
cpu0_ITLB LOAD      ACCESS:    4968655  HIT:    4968655  MISS:          0
cpu0_ITLB RFO       ACCESS:          0  HIT:          0  MISS:          0
cpu0_ITLB PREFETCH  ACCESS:          0  HIT:          0  MISS:          0
cpu0_ITLB WRITEBACK ACCESS:          0  HIT:          0  MISS:          0
cpu0_L1I TOTAL     ACCESS:      10803  HIT:      10803  MISS:          0
cpu0_L1I LOAD      ACCESS:      10803  HIT:      10803  MISS:          0
cpu0_L1I RFO       ACCESS:          0  HIT:          0  MISS:          0
cpu0_L1I PREFETCH  ACCESS:          0  HIT:          0  MISS:          0
cpu0_L1I WRITEBACK ACCESS:          0  HIT:          0  MISS:          0
cpu0_STLB TOTAL     ACCESS:      81736  HIT:      81617  MISS:        119
cpu0_STLB LOAD      ACCESS:      57916  HIT:      57866  MISS:         50
cpu0_STLB RFO       ACCESS:      23820  HIT:      23751  MISS:         69
cpu0_STLB PREFETCH  ACCESS:          0  HIT:          0  MISS:          0
cpu0_STLB WRITEBACK ACCESS:          0  HIT:          0  MISS:          0
cpu0_L1D TOTAL     ACCESS:   13670294  HIT:   13049392  MISS:     620902
cpu0_L1D LOAD      ACCESS:    8711373  HIT:    8181849  MISS:     529524
cpu0_L1D RFO       ACCESS:    4958805  HIT:    4867482  MISS:      91323
cpu0_L1D PREFETCH  ACCESS:          0  HIT:          0  MISS:          0
cpu0_L1D WRITEBACK ACCESS:          0  HIT:          0  MISS:          0
cpu0_L2C TOTAL     ACCESS:     752201  HIT:     578682  MISS:     173519
cpu0_L2C LOAD      ACCESS:     529508  HIT:     428645  MISS:     100863
cpu0_L2C RFO       ACCESS:      91307  HIT:      18668  MISS:      72639
cpu0_L2C PREFETCH  ACCESS:          0  HIT:          0  MISS:          0
cpu0_L2C WRITEBACK ACCESS:     131331  HIT:     131324  MISS:          7
LLC TOTAL     ACCESS:     260042  HIT:     251371  MISS:       8671
LLC LOAD      ACCESS:     100860  HIT:      96458  MISS:       4402
LLC RFO       ACCESS:      72632  HIT:      68363  MISS:       4269
LLC PREFETCH  ACCESS:          0  HIT:          0  MISS:          0
LLC WRITEBACK ACCESS:      86540  HIT:      86540  MISS:          0
Heartbeat CPU 0 instructions: 106000000 cycles: 47676849 heartbeat IPC: 1.65893 cumulative IPC: 1.68566 (Simulation time: 0 hr 45 min 21 sec) 

Region of Interest Statistics
cpu0_DTLB TOTAL     ACCESS:   12864091  HIT:   12780207  MISS:      83884
cpu0_DTLB LOAD      ACCESS:   10175133  HIT:   10116316  MISS:      58817
cpu0_DTLB RFO       ACCESS:    2688958  HIT:    2663891  MISS:      25067
cpu0_DTLB PREFETCH  ACCESS:          0  HIT:          0  MISS:          0
cpu0_DTLB WRITEBACK ACCESS:          0  HIT:          0  MISS:          0
cpu0_ITLB TOTAL     ACCESS:    5120525  HIT:    5120525  MISS:          0
cpu0_ITLB LOAD      ACCESS:    5120525  HIT:    5120525  MISS:          0
cpu0_ITLB RFO       ACCESS:          0  HIT:          0  MISS:          0
cpu0_ITLB PREFETCH  ACCESS:          0  HIT:          0  MISS:          0
cpu0_ITLB WRITEBACK ACCESS:          0  HIT:          0  MISS:          0
cpu0_L1I TOTAL     ACCESS:      11359  HIT:      11359  MISS:          0
cpu0_L1I LOAD      ACCESS:      11359  HIT:      11359  MISS:          0
cpu0_L1I RFO       ACCESS:          0  HIT:          0  MISS:          0
cpu0_L1I PREFETCH  ACCESS:          0  HIT:          0  MISS:          0
cpu0_L1I WRITEBACK ACCESS:          0  HIT:          0  MISS:          0
cpu0_STLB TOTAL     ACCESS:      83884  HIT:      83734  MISS:        150
cpu0_STLB LOAD      ACCESS:      58817  HIT:      58752  MISS:         65
cpu0_STLB RFO       ACCESS:      25067  HIT:      24982  MISS:         85
cpu0_STLB PREFETCH  ACCESS:          0  HIT:          0  MISS:          0
cpu0_STLB WRITEBACK ACCESS:          0  HIT:          0  MISS:          0
cpu0_L1D TOTAL     ACCESS:   14128339  HIT:   13453640  MISS:     674699
cpu0_L1D LOAD      ACCESS:    9002827  HIT:    8434281  MISS:     568546
cpu0_L1D RFO       ACCESS:    5125366  HIT:    5019277  MISS:     106089
cpu0_L1D PREFETCH  ACCESS:          0  HIT:          0  MISS:          0
cpu0_L1D WRITEBACK ACCESS:          0  HIT:          0  MISS:          0
cpu0_L2C TOTAL     ACCESS:     823881  HIT:     616573  MISS:     207308
cpu0_L2C LOAD      ACCESS:     568529  HIT:     448521  MISS:     120008
cpu0_L2C RFO       ACCESS:     106073  HIT:      18792  MISS:      87281
cpu0_L2C PREFETCH  ACCESS:          0  HIT:          0  MISS:          0
cpu0_L2C WRITEBACK ACCESS:     149215  HIT:     149208  MISS:          7
LLC TOTAL     ACCESS:     309829  HIT:     298985  MISS:      10844
LLC LOAD      ACCESS:     120005  HIT:     114401  MISS:       5604
LLC RFO       ACCESS:      87274  HIT:      82034  MISS:       5240
LLC PREFETCH  ACCESS:          0  HIT:          0  MISS:          0
LLC WRITEBACK ACCESS:     102538  HIT:     102538  MISS:          0
[...]
cpu0_DTLB PREFETCH  REQUESTED:          0  ISSUED:          0  USEFUL:          0  USELESS:          0
cpu0_DTLB AVERAGE MISS LATENCY: 9.111 cycles
cpu0_ITLB TOTAL     ACCESS:  114888505  HIT:  114888497  MISS:          8
cpu0_ITLB LOAD      ACCESS:  114888505  HIT:  114888497  MISS:          8
cpu0_ITLB RFO       ACCESS:          0  HIT:          0  MISS:          0
cpu0_ITLB PREFETCH  ACCESS:          0  HIT:          0  MISS:          0
cpu0_ITLB WRITEBACK ACCESS:          0  HIT:          0  MISS:          0
cpu0_ITLB TRANSLATION ACCESS:          0  HIT:          0  MISS:          0
cpu0_ITLB PREFETCH  REQUESTED:          0  ISSUED:          0  USEFUL:          0  USELESS:          0
cpu0_ITLB AVERAGE MISS LATENCY: 229.25 cycles
cpu0_L1I TOTAL     ACCESS:   14471334  HIT:   14471071  MISS:        263
cpu0_L1I LOAD      ACCESS:   14471334  HIT:   14471071  MISS:        263
cpu0_L1I RFO       ACCESS:          0  HIT:          0  MISS:          0
cpu0_L1I PREFETCH  ACCESS:          0  HIT:          0  MISS:          0
cpu0_L1I WRITEBACK ACCESS:          0  HIT:          0  MISS:          0
cpu0_L1I TRANSLATION ACCESS:          0  HIT:          0  MISS:          0
cpu0_L1I PREFETCH  REQUESTED:          0  ISSUED:          0  USEFUL:          0  USELESS:          0
cpu0_L1I AVERAGE MISS LATENCY: 169.243 cycles
cpu0_STLB TOTAL     ACCESS:    4720427  HIT:    4719316  MISS:       1111
cpu0_STLB LOAD      ACCESS:    2841055  HIT:    2840160  MISS:        895
cpu0_STLB RFO       ACCESS:    1879372  HIT:    1879156  MISS:        216
cpu0_STLB PREFETCH  ACCESS:          0  HIT:          0  MISS:          0
cpu0_STLB WRITEBACK ACCESS:          0  HIT:          0  MISS:          0
cpu0_STLB TRANSLATION ACCESS:          0  HIT:          0  MISS:          0
cpu0_STLB PREFETCH  REQUESTED:          0  ISSUED:          0  USEFUL:          0  USELESS:          0
cpu0_STLB AVERAGE MISS LATENCY: 209.683 cycles
cpu0_L1D TOTAL     ACCESS:  393765793  HIT:  375083234  MISS:   18682559
cpu0_L1D LOAD      ACCESS:  234164511  HIT:  218401583  MISS:   15762928
cpu0_L1D RFO       ACCESS:  159600177  HIT:  156680673  MISS:    2919504
cpu0_L1D PREFETCH  ACCESS:          0  HIT:          0  MISS:          0
cpu0_L1D WRITEBACK ACCESS:          0  HIT:          0  MISS:          0
cpu0_L1D TRANSLATION ACCESS:       1105  HIT:        978  MISS:        127
cpu0_L1D PREFETCH  REQUESTED:          0  ISSUED:          0  USEFUL:          0  USELESS:          0
cpu0_L1D AVERAGE MISS LATENCY: 19.5686 cycles
cpu0_L2C TOTAL     ACCESS:   22874805  HIT:   15618856  MISS:    7255949
cpu0_L2C LOAD      ACCESS:   15762743  HIT:   10945545  MISS:    4817198
cpu0_L2C RFO       ACCESS:    2919285  HIT:     482773  MISS:    2436512
cpu0_L2C PREFETCH  ACCESS:          0  HIT:          0  MISS:          0
cpu0_L2C WRITEBACK ACCESS:    4192650  HIT:    4190453  MISS:       2197
cpu0_L2C TRANSLATION ACCESS:        127  HIT:         85  MISS:         42
cpu0_L2C PREFETCH  REQUESTED:          0  ISSUED:          0  USEFUL:          0  USELESS:          0
cpu0_L2C AVERAGE MISS LATENCY: 21.9211 cycles
LLC TOTAL     ACCESS:   10115492  HIT:   10039855  MISS:      75637
LLC LOAD      ACCESS:    4807630  HIT:    4748183  MISS:      59447
LLC RFO       ACCESS:    2436418  HIT:    2420504  MISS:      15914
LLC PREFETCH  ACCESS:          0  HIT:          0  MISS:          0
LLC WRITEBACK ACCESS:    2871402  HIT:    2871130  MISS:        272
LLC TRANSLATION ACCESS:         42  HIT:         38  MISS:          4
LLC PREFETCH  REQUESTED:          0  ISSUED:          0  USEFUL:          0  USELESS:          0
LLC AVERAGE MISS LATENCY: 91.4956 cycles
~~~~~~~~~~Reuse Distance Profiler output~~~~~~~~~~
0	51963056	12072912
1	39238128	18139712
2	39443824	24955792
3	34845808	25577056
4	22949344	16133152
5	18403072	12704960
6	14504496	9059104
7	14013168	8775376
8	13471136	7534192
9	12167568	8294448
10	9420176	5940176
11	10837120	4919440
12	7643280	4796448
13	17924480	9328496
14	5520960	3703232
15	4617120	2946496
16	4075792	2525696
17	3228960	1940080
18	2822640	1656736
19	2485776	1385488
20	2176928	1119664
21	1992448	1118736
22	1889504	1087824
23	1725632	846336
24	1534800	748368
25	1253008	696080
26	1065984	612400
27	1419328	833040
28	887728	507344
29	725136	413840
30	643872	382896
31	586208	365504
32	603280	381760
33	561984	371456
34	497824	334624
35	488944	300496
36	412144	291344
37	364800	259568
38	379696	279840
39	340912	264896
40	317600	233184
41	664160	340656
42	246848	197280
43	220880	181856
44	198752	169664
45	195152	170800
46	187920	167504
47	184384	164832
48	163344	148208
49	170800	154784
50	160384	144080
51	164512	139264
52	155632	145088
53	143984	134320
54	141520	128992
55	313408	234224
56	135536	127248
57	139168	125888
58	180464	164096
59	129648	122384
60	123856	117968
61	119728	113344
62	118256	111392
63	120128	113168
64	231152	216448
66	233712	214768
68	327360	312544
70	212656	203696
72	206256	195024
74	226192	199520
76	216432	196288
78	235744	209600
80	264240	219744
82	360384	323232
84	264256	246320
86	271424	247120
88	322272	294784
90	406320	375392
92	445616	418544
94	512048	484512
96	653360	557680
98	518448	481360
100	517168	476608
102	480128	441600
104	469072	432432
106	447600	412560
108	416016	383056
110	453408	423920
112	330576	304288
114	288768	263168
116	253856	230272
118	240000	210992
120	217872	187296
122	224976	182848
124	315232	260800
126	229120	160768
128	470128	258752
132	557024	232384
136	769968	303104
140	519456	202928
144	423488	198560
148	343920	197504
152	340592	249872
156	215520	165584
160	196000	158096
164	239824	221696
168	166720	146384
172	167120	142320
176	158960	137680
180	216768	195600
184	146608	126176
188	137808	117888
192	197376	173872
196	140352	115856
200	140496	111392
204	137136	104976
208	197040	161408
212	140960	101088
216	138080	95504
220	193296	147744
224	135440	95136
228	126352	91200
232	118784	88224
236	162848	136480
240	103600	83600
244	98912	85968
248	141328	132496
252	95248	86208
256	194128	169168
264	234960	206016
272	249824	217232
280	217424	181056
288	251360	220048
296	202736	180336
304	215280	191200
312	172192	137456
320	202128	157408
328	219552	162752
336	230368	145440
344	286736	186368
352	212144	152720
360	200224	173152
368	119792	109328
376	134304	128896
384	127696	124160
392	100304	95664
400	120480	115680
408	92992	87488
416	118208	113616
424	90048	87312
432	106272	103472
440	103632	101280
448	89904	86432
456	113680	110512
464	97280	94432
472	121728	118224
480	97584	94560
488	114528	111104
496	121184	118048
504	111664	104432
512	215424	208496
528	210848	194064
544	221824	212944
560	198192	190816
576	145568	140944
592	135488	131792
608	128544	125184
624	130992	127824
640	126384	122592
656	132000	128688
672	121456	116192
688	113584	109200
704	107168	104288
720	105344	101984
736	111696	108816
752	106256	103456
768	114688	112064
784	119904	117808
800	97808	95104
816	98848	94064
832	106704	104176
848	104864	102928
864	94560	91888
880	92496	90528
896	91024	88576
912	89696	87552
928	91232	89280
944	92512	89216
960	86448	82864
976	83456	81328
992	92816	90848
1008	81456	79168
1024	160032	156432
1056	144032	140192
1088	137072	130832
1120	122208	117712
1152	114816	111600
1184	112960	109648
1216	113024	106976
1248	105808	101344
1280	118112	112240
1312	109456	106128
1344	105280	98336
1376	98480	94304
1408	94240	91104
1440	91984	88464
1472	95488	92352
1504	87120	81888
1536	76544	73360
1568	72640	69856
1600	73712	70448
1632	70992	66320
1664	81184	78096
1696	107440	104720
1728	68912	65600
1760	70976	66368
1792	75664	71616
1824	64448	61648
1856	70352	66352
1888	77872	70624
1920	68896	61360
1952	70816	67840
1984	88272	84848
2016	68992	64848
2048	122528	114464
2112	149360	139584
2176	159376	119424
2240	124496	118288
2304	125488	110672
2368	133968	125664
2432	112656	104480
2496	106000	99776
2560	105040	99472
2624	116480	112016
2688	160208	154368
2752	124576	119872
2816	157392	151568
2880	159840	154080
2944	146800	141904
3008	141008	134944
3072	112528	108032
3136	130672	125648
3200	116224	112544
3264	89712	85296
3328	85600	82064
3392	72240	66032
3456	68912	62496
3520	82544	74080
3584	77456	67264
3648	71536	61216
3712	65248	57696
3776	65664	60928
3840	57616	53440
3904	58080	53392
3968	56240	51936
4032	54480	50800
4096	114688	106928
4224	114416	101456
4352	109840	103776
4480	97024	90448
4608	92208	86080
4736	83712	78016
4864	82240	76640
4992	79200	73552
5120	79840	74224
5248	74512	68976
5376	75856	70976
5504	74416	69296
5632	70432	66048
5760	71968	67376
5888	71728	67536
6016	73776	69168
6144	76352	71520
6272	75280	70752
6400	71424	67040
6528	71072	66784
6656	68752	63776
6784	63168	59088
6912	62848	59408
7040	59856	56304
7168	63824	58352
7296	57712	53584
7424	61536	58176
7552	60864	57456
7680	58944	55456
7808	59472	55072
7936	148352	141088
8064	87984	81904
8192	123328	106976
8448	105888	96880
8704	96800	89744
8960	89552	82672
9216	86672	80016
9472	87680	81712
9728	82448	76112
9984	77168	70768
10240	71344	65552
10496	72464	65696
10752	72128	65088
11008	71632	65776
11264	68528	63344
11520	67376	61632
11776	68624	62432
12032	66976	60880
12288	66192	60768
12544	67952	62816
12800	81136	60080
13056	78816	73584
13312	66304	62768
13568	65296	59984
13824	60576	57296
14080	67232	60320
14336	60368	57056
14592	59248	56032
14848	59776	56656
15104	63184	59872
15360	63472	60240
15616	60240	57456
15872	59056	56464
16128	61184	57776
16384	344336	338160
16896	107424	101744
17408	97328	91936
17920	99040	93776
18432	132848	128352
18944	231424	226800
19456	89024	84048
19968	108960	104784
20480	101216	96944
20992	138368	133792
21504	116976	112544
22016	100992	95936
22528	106512	102112
23040	146928	143056
23552	94752	90784
24064	100320	94624
24576	80352	76992
25088	86800	83872
25600	71664	67968
26112	65344	62480
26624	148064	144736
27136	227392	224896
27648	106848	103856
28160	74208	71536
28672	64176	62192
29184	64400	61984
29696	206720	204512
30208	68240	65936
30720	64288	62080
31232	60384	58672
31744	69504	67392
32256	64352	62736
32768	125600	121792
33792	134560	130448
34816	154720	150944
35840	494128	490976
36864	205728	200768
37888	417376	414480
38912	274800	271888
39936	473024	470384
40960	163104	154832
41984	139648	137120
43008	97712	95776
44032	98960	92832
45056	91712	89600
46080	97712	95840
47104	89840	87456
48128	87808	85424
49152	81168	78864
50176	79984	77776
51200	76656	74400
52224	70576	68144
53248	66592	63680
54272	64144	61744
55296	61616	59008
56320	97168	60368
57344	58288	54848
58368	56208	53312
59392	54064	50832
60416	73872	52240
61440	74944	54384
62464	65024	50672
63488	64064	50320
64512	46848	44192
65536	95120	89872
67584	104400	90320
69632	89264	82736
71680	104512	80608
73728	84368	81392
75776	110848	87840
77824	108976	95568
79872	82192	68048
81920	67344	64576
83968	88720	72480
86016	90800	63520
88064	64656	60752
90112	64544	60080
92160	59632	55328
94208	73600	52736
96256	55904	52432
98304	52656	49200
100352	54048	49824
102400	54736	49280
104448	58288	44000
106496	56000	47616
108544	64992	51808
110592	58064	52560
112640	53440	47200
114688	68464	48720
116736	49344	42464
118784	50112	42128
120832	46688	38880
122880	45904	36880
124928	39440	33440
126976	35968	32384
129024	35200	31056
131072	74384	58960
135168	66768	55456
139264	54224	50480
143360	58672	55328
147456	62672	58640
151552	72000	68400
155648	69920	54224
159744	60032	56608
163840	51680	48544
167936	48128	43856
172032	49936	46176
176128	59232	43712
180224	45296	41024
184320	47888	43312
188416	43856	38480
192512	42176	38592
196608	43888	40304
200704	48464	43040
204800	38960	37152
208896	37728	36240
212992	38368	36592
217088	41152	39296
221184	37968	36080
225280	42416	40416
229376	45824	43696
233472	42912	41648
237568	39552	36272
241664	40576	39520
245760	47776	40848
249856	39680	38256
253952	37312	35616
258048	36512	32736
262144	62752	59936
270336	53840	51616
278528	56144	53504
286720	51296	48000
294912	53120	50928
303104	43616	41344
311296	46176	43440
319488	44560	42144
327680	47904	45520
335872	45024	42720
344064	45712	43056
352256	62304	45968
360448	44336	42096
368640	52608	50416
376832	51376	44208
385024	44416	40912
393216	44064	35824
401408	42272	36528
409600	38496	34944
417792	44448	30944
425984	34160	29808
434176	35984	26432
442368	33136	28928
450560	56432	33792
458752	28448	25024
466944	28256	24512
475136	31408	26640
483328	28096	22176
491520	26928	24016
499712	28816	25088
507904	29824	23712
516096	31520	24512
524288	52944	42192
540672	69600	49952
557056	62512	43888
573440	60176	47104
589824	66096	47968
606208	66176	45824
622592	51152	36848
638976	50912	35344
655360	44976	32480
671744	47936	27520
688128	40816	27872
704512	39232	28528
720896	44272	27584
737280	38064	27776
753664	42992	32544
770048	39552	31408
786432	44592	28736
802816	32352	28512
819200	41584	27872
835584	48848	38480
851968	29648	27280
868352	29776	25968
884736	53072	32896
901120	24720	18672
917504	30864	22736
933888	53488	44288
950272	24544	22176
966656	28592	20368
983040	18720	16816
999424	26880	14752
1015808	18096	15456
1032192	30336	26160
1048576	43488	27584
1081344	32336	20192
1114112	39488	32160
1146880	28976	15840
1179648	27456	17168
1212416	45792	15936
1245184	46848	19776
1277952	45728	17632
1310720	33584	16320
1343488	43376	17152
1376256	37216	16464
1409024	38704	11872
1441792	18448	11440
1474560	54304	16880
1507328	67376	17808
1540096	36752	13456
1572864	20064	14720
1605632	22800	17328
1638400	17056	10848
1671168	12240	9072
1703936	28512	10832
1736704	17216	11104
1769472	13168	10448
1802240	14784	11488
1835008	16320	8944
1867776	14672	10720
1900544	15808	9952
1933312	15840	9776
1966080	12608	10448
1998848	15856	12576
2031616	26048	10256
2064384	12048	9696
2097152	24304	15744
2162688	25248	13984
2228224	16912	9984
2293760	16176	9520
2359296	18704	9328
2424832	15392	9360
2490368	24448	10176
2555904	19344	13136
2621440	17440	10816
2686976	19216	10384
2752512	18560	10096
2818048	15472	10160
2883584	12992	8112
2949120	12048	7520
3014656	12080	9424
3080192	14720	9792
3145728	10704	6992
3211264	13872	4928
3276800	11952	5280
3342336	9696	6336
3407872	10704	7856
3473408	9904	8032
3538944	8272	5168
3604480	5072	4048
3670016	7856	4288
3735552	12800	5232
3801088	25664	5312
3866624	32512	4848
3932160	22736	5856
3997696	21520	3280
4063232	5376	3552
4128768	4144	2688
4194304	38336	8496
4325376	26864	6416
4456448	15792	5440
4587520	26160	6448
4718592	17264	4272
4849664	7872	4480
4980736	8256	4128
5111808	23776	4656
5242880	13328	8288
5373952	24896	8928
5505024	16176	10592
5636096	33360	7248
5767168	30544	8032
5898240	16016	6544
6029312	22240	7216
6160384	11968	7152
6291456	18192	6944
6422528	15744	6352
6553600	8656	4192
6684672	13936	2864
6815744	11072	3168
6946816	10688	2032
7077888	7936	3424
7208960	9424	4384
7340032	7456	4208
7471104	5152	2192
7602176	5264	2576
7733248	5648	1488
7864320	5760	2576
7995392	3344	1696
8126464	8384	3104
8257536	5472	2032
8388608	13248	5120
8650752	13264	4432
8912896	12048	4480
9175040	8064	3808
9437184	10576	3952
9699328	8624	3088
9961472	10656	2528
10223616	10624	4816
10485760	10208	2384
10747904	9328	2080
11010048	9168	2128
11272192	8432	2752
11534336	8928	3216
11796480	8144	2576
12058624	5488	1280
12320768	7024	3392
12582912	7232	4096
12845056	6928	4256
13107200	7888	4736
13369344	5904	4560
13631488	4592	3280
13893632	3088	2208
14155776	5552	2816
14417920	9488	2944
14680064	9696	2304
14942208	12992	2928
15204352	21952	2640
15466496	22208	2528
15728640	25856	2144
15990784	26576	2336
16252928	27856	752
16515072	24192	2128
16777216	40816	4960
17301504	28992	1888
17825792	21264	752
18350080	12336	2688
18874368	6896	3296
19398656	3472	1248
19922944	4992	3424
20447232	3264	1952
20971520	6464	4496
21495808	6640	5344
22020096	8608	6720
22544384	8400	5696
23068672	6176	4416
23592960	5680	4448
24117248	6736	5456
24641536	4832	3392
25165824	5392	3520
25690112	3968	3312
26214400	2880	1568
26738688	4416	2992
27262976	3632	2688
27787264	1856	1456
28311552	1744	1440
28835840	2000	1504
29360128	2720	2240
29884416	1872	992
30408704	1568	1040
30932992	1104	992
31457280	2128	1760
31981568	2992	2224
32505856	2592	1888
33030144	1968	1184
33554432	7808	6432
34603008	14080	11344
35651584	6096	4688
36700160	8384	7904
37748736	7088	6736
38797312	5104	5008
39845888	6880	6288
40894464	5536	4192
41943040	6240	4656
42991616	5248	4928
44040192	5664	5072
45088768	5216	3376
46137344	6192	4896
47185920	4720	2464
48234496	4800	2768
49283072	1744	1552
50331648	576	560
51380224	1648	1504
52428800	2432	2416
53477376	2144	2112
54525952	1472	1264
55574528	1328	816
56623104	864	496
57671680	2816	352
58720256	928	416
59768832	1920	0
60817408	128	0
61865984	1648	0
62914560	560	0
63963136	32	0
65011712	32	0
66060288	80	0
67108864	176	16
69206016	2016	0
71303168	2320	0
73400320	320	0
75497472	160	0
77594624	0	0
79691776	0	0
81788928	0	0
83886080	0	0
85983232	0	0
88080384	0	0
90177536	0	0
92274688	0	0
94371840	0	0
96468992	0	0
98566144	0	0
100663296	0	0
102760448	0	0
104857600	0	0
106954752	0	0
109051904	0	0
111149056	0	0
113246208	0	0
115343360	0	0
117440512	0	0
119537664	0	0
121634816	0	0
123731968	0	0
125829120	0	0
127926272	32	0
130023424	0	0
132120576	0	0
134217728	0	0
138412032	0	0
142606336	0	0
146800640	0	0
150994944	0	0
155189248	0	0
159383552	0	0
163577856	0	0
167772160	0	0
171966464	0	0
176160768	0	0
180355072	0	0
184549376	0	0
188743680	0	0
192937984	0	0
197132288	0	0
201326592	0	0
205520896	0	0
209715200	0	0
213909504	0	0
218103808	0	0
222298112	0	0
226492416	0	0
230686720	0	0
234881024	0	0
239075328	0	0
243269632	0	0
247463936	0	0
251658240	0	0
255852544	0	0
260046848	0	0
264241152	0	0
268435456	0	0
276824064	0	0
285212672	0	0
293601280	0	0
301989888	0	0
310378496	0	0
318767104	0	0
327155712	0	0
335544320	0	0
343932928	0	0
352321536	0	0
360710144	0	0
369098752	0	0
377487360	0	0
385875968	0	0
394264576	0	0
402653184	0	0
411041792	0	0
419430400	0	0
427819008	0	0
436207616	0	0
444596224	0	0
452984832	0	0
461373440	0	0
469762048	0	0
478150656	0	0
486539264	0	0
494927872	0	0
503316480	0	0
511705088	0	0
520093696	0	0
528482304	0	0
536870912	0	0
553648128	0	0
570425344	0	0
587202560	0	0
603979776	0	0
620756992	0	0
637534208	0	0
654311424	0	0
671088640	0	0
687865856	0	0
704643072	0	0
721420288	0	0
738197504	0	0
754974720	0	0
771751936	0	0
788529152	0	0
805306368	0	0
822083584	0	0
838860800	0	0
855638016	0	0
872415232	0	0
889192448	0	0
905969664	0	0
922746880	0	0
939524096	0	0
956301312	0	0
973078528	0	0
989855744	0	0
1006632960	0	0
1023410176	0	0
1040187392	0	0
1056964608	0	0
1073741824	0	0
1107296256	0	0
1140850688	0	0
1174405120	0	0
1207959552	0	0
1241513984	0	0
1275068416	0	0
1308622848	0	0
1342177280	0	0
1375731712	0	0
1409286144	0	0
1442840576	0	0
1476395008	0	0
1509949440	0	0
1543503872	0	0
1577058304	0	0
1610612736	0	0
1644167168	0	0
1677721600	0	0
1711276032	0	0
1744830464	0	0
1778384896	0	0
1811939328	0	0
1845493760	0	0
1879048192	0	0
1912602624	0	0
1946157056	0	0
1979711488	0	0
2013265920	0	0
2046820352	0	0
2080374784	0	0
2113929216	0	0
2147483648	0	0
2214592512	0	0
2281701376	0	0
2348810240	0	0
2415919104	0	0
2483027968	0	0
2550136832	0	0
2617245696	0	0
2684354560	0	0
2751463424	0	0
2818572288	0	0
2885681152	0	0
2952790016	0	0
3019898880	0	0
3087007744	0	0
3154116608	0	0
3221225472	0	0
3288334336	0	0
3355443200	0	0
3422552064	0	0
3489660928	0	0
3556769792	0	0
3623878656	0	0
3690987520	0	0
3758096384	0	0
3825205248	0	0
3892314112	0	0
3959422976	0	0
4026531840	0	0
4093640704	0	0
4160749568	0	0
4227858432	0	0
~~~~~~~~~~Reuse Distance Profiler output end~~~~~~~~~~

Sampler size:7202

DRAM Statistics
 CHANNEL 0
 RQ ROW_BUFFER_HIT:      60848  ROW_BUFFER_MISS:      14517
 DBUS AVG_CONGESTED_CYCLE:    3.56007
 WQ ROW_BUFFER_HIT:         99  ROW_BUFFER_MISS:        335  FULL:          0


CPU 0 Branch Prediction Accuracy: 93.4576% MPKI: 9.78123 Average ROB Occupancy at Mispredict: 49.9179
Branch type MPKI
BRANCH_DIRECT_JUMP: 2.66667e-05
BRANCH_INDIRECT: 0
BRANCH_CONDITIONAL: 9.78108
BRANCH_DIRECT_CALL: 6.06667e-05
BRANCH_INDIRECT_CALL: 0
BRANCH_RETURN: 6.2e-05

