
*** ChampSim Multicore Out-of-Order Simulator ***

Warmup Instructions: 50000000
Simulation Instructions: 1500000000
Number of CPUs: 1
Off-chip DRAM Size: 4 GiB Channels: 1 Width: 64-bit Data Rate: 3200 MT/s

VirtualMemory physical capacity: 8588881920 num_ppages: 2096895
VirtualMemory page size: 4096 log2_page_size: 12

CPU 0 runs /s/traces/champsim_traces/433.milc-274B.champsimtrace.xz
CPU 0 Bimodal branch predictor
Basic BTB sets: 1024 ways: 8 indirect buffer size: 4096 RAS size: 64
Initializing LRU.
Initializing LRU.
Initializing LRU.
Initializing LRU.
Initializing rdLRU.
Initializing LRU.
Initializing mockingjay of size: 4096
Heartbeat CPU 0 instructions: 2000000 cycles: 500088 heartbeat IPC: 3.9993 cumulative IPC: 3.9993 (Simulation time: 0 hr 0 min 23 sec) 
Heartbeat CPU 0 instructions: 4000000 cycles: 1000088 heartbeat IPC: 4 cumulative IPC: 3.99965 (Simulation time: 0 hr 1 min 26 sec) 
Heartbeat CPU 0 instructions: 6000000 cycles: 1500088 heartbeat IPC: 4 cumulative IPC: 3.99977 (Simulation time: 0 hr 2 min 31 sec) 
Heartbeat CPU 0 instructions: 8000000 cycles: 2000088 heartbeat IPC: 4 cumulative IPC: 3.99982 (Simulation time: 0 hr 3 min 32 sec) 
Heartbeat CPU 0 instructions: 10000000 cycles: 2500088 heartbeat IPC: 4 cumulative IPC: 3.99986 (Simulation time: 0 hr 4 min 29 sec) 
Heartbeat CPU 0 instructions: 12000000 cycles: 3000088 heartbeat IPC: 4 cumulative IPC: 3.99988 (Simulation time: 0 hr 5 min 29 sec) 
Heartbeat CPU 0 instructions: 14000000 cycles: 3500088 heartbeat IPC: 4 cumulative IPC: 3.9999 (Simulation time: 0 hr 6 min 27 sec) 
Heartbeat CPU 0 instructions: 16000000 cycles: 4000088 heartbeat IPC: 4 cumulative IPC: 3.99991 (Simulation time: 0 hr 7 min 28 sec) 
Heartbeat CPU 0 instructions: 18000000 cycles: 4500088 heartbeat IPC: 4 cumulative IPC: 3.99992 (Simulation time: 0 hr 8 min 26 sec) 
Heartbeat CPU 0 instructions: 20000000 cycles: 5000088 heartbeat IPC: 4 cumulative IPC: 3.99993 (Simulation time: 0 hr 9 min 31 sec) 
Heartbeat CPU 0 instructions: 22000000 cycles: 5500088 heartbeat IPC: 4 cumulative IPC: 3.99994 (Simulation time: 0 hr 10 min 36 sec) 
Heartbeat CPU 0 instructions: 24000000 cycles: 6000088 heartbeat IPC: 4 cumulative IPC: 3.99994 (Simulation time: 0 hr 11 min 37 sec) 
Heartbeat CPU 0 instructions: 26000000 cycles: 6500088 heartbeat IPC: 4 cumulative IPC: 3.99995 (Simulation time: 0 hr 12 min 41 sec) 
Heartbeat CPU 0 instructions: 28000000 cycles: 7000088 heartbeat IPC: 4 cumulative IPC: 3.99995 (Simulation time: 0 hr 13 min 42 sec) 
Heartbeat CPU 0 instructions: 30000000 cycles: 7500088 heartbeat IPC: 4 cumulative IPC: 3.99995 (Simulation time: 0 hr 14 min 48 sec) 
Heartbeat CPU 0 instructions: 32000000 cycles: 8000088 heartbeat IPC: 4 cumulative IPC: 3.99996 (Simulation time: 0 hr 15 min 53 sec) 
Heartbeat CPU 0 instructions: 34000000 cycles: 8500088 heartbeat IPC: 4 cumulative IPC: 3.99996 (Simulation time: 0 hr 16 min 57 sec) 
Heartbeat CPU 0 instructions: 36000000 cycles: 9000088 heartbeat IPC: 4 cumulative IPC: 3.99996 (Simulation time: 0 hr 18 min 1 sec) 
Heartbeat CPU 0 instructions: 38000000 cycles: 9500088 heartbeat IPC: 4 cumulative IPC: 3.99996 (Simulation time: 0 hr 19 min 3 sec) 
Heartbeat CPU 0 instructions: 40000000 cycles: 10000088 heartbeat IPC: 4 cumulative IPC: 3.99996 (Simulation time: 0 hr 20 min 7 sec) 
Heartbeat CPU 0 instructions: 42000000 cycles: 10500088 heartbeat IPC: 4 cumulative IPC: 3.99997 (Simulation time: 0 hr 21 min 12 sec) 
Heartbeat CPU 0 instructions: 44000000 cycles: 11000088 heartbeat IPC: 4 cumulative IPC: 3.99997 (Simulation time: 0 hr 22 min 19 sec) 
Heartbeat CPU 0 instructions: 46000000 cycles: 11500088 heartbeat IPC: 4 cumulative IPC: 3.99997 (Simulation time: 0 hr 23 min 21 sec) 
Heartbeat CPU 0 instructions: 48000000 cycles: 12000088 heartbeat IPC: 4 cumulative IPC: 3.99997 (Simulation time: 0 hr 24 min 22 sec) 
Heartbeat CPU 0 instructions: 50000000 cycles: 12500088 heartbeat IPC: 4 cumulative IPC: 3.99997 (Simulation time: 0 hr 25 min 24 sec) 

Warmup complete CPU 0 instructions: 50000004 cycles: 12500089 (Simulation time: 0 hr 25 min 24 sec) 

Heartbeat CPU 0 instructions: 52000002 cycles: 15059657 heartbeat IPC: 0.781382 cumulative IPC: 0.781381 (Simulation time: 0 hr 27 min 21 sec) 

Region of Interest Statistics
cpu0_DTLB TOTAL     ACCESS:     263906  HIT:     260770  MISS:       3136
cpu0_DTLB LOAD      ACCESS:     217998  HIT:     214862  MISS:       3136
cpu0_DTLB RFO       ACCESS:      45908  HIT:      45908  MISS:          0
cpu0_DTLB PREFETCH  ACCESS:          0  HIT:          0  MISS:          0
cpu0_DTLB WRITEBACK ACCESS:          0  HIT:          0  MISS:          0
cpu0_ITLB TOTAL     ACCESS:     203969  HIT:     203969  MISS:          0
cpu0_ITLB LOAD      ACCESS:     203969  HIT:     203969  MISS:          0
cpu0_ITLB RFO       ACCESS:          0  HIT:          0  MISS:          0
cpu0_ITLB PREFETCH  ACCESS:          0  HIT:          0  MISS:          0
cpu0_ITLB WRITEBACK ACCESS:          0  HIT:          0  MISS:          0
cpu0_STLB TOTAL     ACCESS:       3136  HIT:        853  MISS:       2283
cpu0_STLB LOAD      ACCESS:       3136  HIT:        853  MISS:       2283
cpu0_STLB RFO       ACCESS:          0  HIT:          0  MISS:          0
cpu0_STLB PREFETCH  ACCESS:          0  HIT:          0  MISS:          0
cpu0_STLB WRITEBACK ACCESS:          0  HIT:          0  MISS:          0
cpu0_L1D TOTAL     ACCESS:     238213  HIT:     214856  MISS:      23357
cpu0_L1D LOAD      ACCESS:     127265  HIT:     103915  MISS:      23350
cpu0_L1D RFO       ACCESS:     108669  HIT:     108669  MISS:          0
cpu0_L1D PREFETCH  ACCESS:          0  HIT:          0  MISS:          0
cpu0_L1D WRITEBACK ACCESS:          0  HIT:          0  MISS:          0
cpu0_L2C TOTAL     ACCESS:      29076  HIT:       5719  MISS:      23357
cpu0_L2C LOAD      ACCESS:      23350  HIT:          0  MISS:      23350
cpu0_L2C RFO       ACCESS:          0  HIT:          0  MISS:          0
cpu0_L2C PREFETCH  ACCESS:          0  HIT:          0  MISS:          0
cpu0_L2C WRITEBACK ACCESS:       5719  HIT:       5719  MISS:          0
LLC TOTAL     ACCESS:      29067  HIT:          4  MISS:      29063
LLC LOAD      ACCESS:      23350  HIT:          0  MISS:      23350
LLC RFO       ACCESS:          0  HIT:          0  MISS:          0
LLC PREFETCH  ACCESS:          0  HIT:          0  MISS:          0
LLC WRITEBACK ACCESS:       5710  HIT:          0  MISS:       5710
Heartbeat CPU 0 instructions: 54000001 cycles: 17645963 heartbeat IPC: 0.773303 cumulative IPC: 0.777321 (Simulation time: 0 hr 29 min 18 sec) 

Region of Interest Statistics
cpu0_DTLB TOTAL     ACCESS:     527814  HIT:     521536  MISS:       6278
cpu0_DTLB LOAD      ACCESS:     435991  HIT:     429713  MISS:       6278
cpu0_DTLB RFO       ACCESS:      91823  HIT:      91823  MISS:          0
cpu0_DTLB PREFETCH  ACCESS:          0  HIT:          0  MISS:          0
cpu0_DTLB WRITEBACK ACCESS:          0  HIT:          0  MISS:          0
cpu0_ITLB TOTAL     ACCESS:     407975  HIT:     407975  MISS:          0
cpu0_ITLB LOAD      ACCESS:     407975  HIT:     407975  MISS:          0
cpu0_ITLB RFO       ACCESS:          0  HIT:          0  MISS:          0
cpu0_ITLB PREFETCH  ACCESS:          0  HIT:          0  MISS:          0
cpu0_ITLB WRITEBACK ACCESS:          0  HIT:          0  MISS:          0
cpu0_STLB TOTAL     ACCESS:       6278  HIT:       1812  MISS:       4466
cpu0_STLB LOAD      ACCESS:       6278  HIT:       1812  MISS:       4466
cpu0_STLB RFO       ACCESS:          0  HIT:          0  MISS:          0
cpu0_STLB PREFETCH  ACCESS:          0  HIT:          0  MISS:          0
cpu0_STLB WRITEBACK ACCESS:          0  HIT:          0  MISS:          0
cpu0_L1D TOTAL     ACCESS:     476257  HIT:     429537  MISS:      46720
cpu0_L1D LOAD      ACCESS:     254452  HIT:     207743  MISS:      46709
cpu0_L1D RFO       ACCESS:     217347  HIT:     217347  MISS:          0
cpu0_L1D PREFETCH  ACCESS:          0  HIT:          0  MISS:          0
cpu0_L1D WRITEBACK ACCESS:          0  HIT:          0  MISS:          0
cpu0_L2C TOTAL     ACCESS:      58156  HIT:      11436  MISS:      46720
cpu0_L2C LOAD      ACCESS:      46709  HIT:          0  MISS:      46709
cpu0_L2C RFO       ACCESS:          0  HIT:          0  MISS:          0
cpu0_L2C PREFETCH  ACCESS:          0  HIT:          0  MISS:          0
cpu0_L2C WRITEBACK ACCESS:      11436  HIT:      11436  MISS:          0
LLC TOTAL     ACCESS:      58163  HIT:          8  MISS:      58155
LLC LOAD      ACCESS:      46709  HIT:          0  MISS:      46709
LLC RFO       ACCESS:          0  HIT:          0  MISS:          0
LLC PREFETCH  ACCESS:          0  HIT:          0  MISS:          0
LLC WRITEBACK ACCESS:      11443  HIT:          0  MISS:      11443
Heartbeat CPU 0 instructions: 56000004 cycles: 20211002 heartbeat IPC: 0.779716 cumulative IPC: 0.778118 (Simulation time: 0 hr 31 min 15 sec) 

Region of Interest Statistics
cpu0_DTLB TOTAL     ACCESS:     791737  HIT:     782326  MISS:       9411
cpu0_DTLB LOAD      ACCESS:     653993  HIT:     644582  MISS:       9411
cpu0_DTLB RFO       ACCESS:     137744  HIT:     137744  MISS:          0
cpu0_DTLB PREFETCH  ACCESS:          0  HIT:          0  MISS:          0
cpu0_DTLB WRITEBACK ACCESS:          0  HIT:          0  MISS:          0
cpu0_ITLB TOTAL     ACCESS:     611966  HIT:     611966  MISS:          0
cpu0_ITLB LOAD      ACCESS:     611966  HIT:     611966  MISS:          0
cpu0_ITLB RFO       ACCESS:          0  HIT:          0  MISS:          0
cpu0_ITLB PREFETCH  ACCESS:          0  HIT:          0  MISS:          0
cpu0_ITLB WRITEBACK ACCESS:          0  HIT:          0  MISS:          0
cpu0_STLB TOTAL     ACCESS:       9411  HIT:       2715  MISS:       6696
cpu0_STLB LOAD      ACCESS:       9411  HIT:       2715  MISS:       6696
cpu0_STLB RFO       ACCESS:          0  HIT:          0  MISS:          0
cpu0_STLB PREFETCH  ACCESS:          0  HIT:          0  MISS:          0
cpu0_STLB WRITEBACK ACCESS:          0  HIT:          0  MISS:          0
cpu0_L1D TOTAL     ACCESS:     714399  HIT:     644324  MISS:      70075
cpu0_L1D LOAD      ACCESS:     381698  HIT:     311637  MISS:      70061
cpu0_L1D RFO       ACCESS:     326016  HIT:     326016  MISS:          0
cpu0_L1D PREFETCH  ACCESS:          0  HIT:          0  MISS:          0
cpu0_L1D WRITEBACK ACCESS:          0  HIT:          0  MISS:          0
cpu0_L2C TOTAL     ACCESS:      87230  HIT:      17155  MISS:      70075
cpu0_L2C LOAD      ACCESS:      70061  HIT:          0  MISS:      70061
cpu0_L2C RFO       ACCESS:          0  HIT:          0  MISS:          0
cpu0_L2C PREFETCH  ACCESS:          0  HIT:          0  MISS:          0
cpu0_L2C WRITEBACK ACCESS:      17155  HIT:      17155  MISS:          0
LLC TOTAL     ACCESS:      87272  HIT:         11  MISS:      87261
LLC LOAD      ACCESS:      70061  HIT:          0  MISS:      70061
LLC RFO       ACCESS:          0  HIT:          0  MISS:          0
LLC PREFETCH  ACCESS:          0  HIT:          0  MISS:          0
LLC WRITEBACK ACCESS:      17197  HIT:          0  MISS:      17197
Heartbeat CPU 0 instructions: 58000003 cycles: 22790581 heartbeat IPC: 0.77532 cumulative IPC: 0.777417 (Simulation time: 0 hr 33 min 10 sec) 

Region of Interest Statistics
cpu0_DTLB TOTAL     ACCESS:    1055846  HIT:    1043293  MISS:      12553
cpu0_DTLB LOAD      ACCESS:     872197  HIT:     859644  MISS:      12553
cpu0_DTLB RFO       ACCESS:     183649  HIT:     183649  MISS:          0
cpu0_DTLB PREFETCH  ACCESS:          0  HIT:          0  MISS:          0
cpu0_DTLB WRITEBACK ACCESS:          0  HIT:          0  MISS:          0
cpu0_ITLB TOTAL     ACCESS:     815975  HIT:     815975  MISS:          0
cpu0_ITLB LOAD      ACCESS:     815975  HIT:     815975  MISS:          0
cpu0_ITLB RFO       ACCESS:          0  HIT:          0  MISS:          0
cpu0_ITLB PREFETCH  ACCESS:          0  HIT:          0  MISS:          0
cpu0_ITLB WRITEBACK ACCESS:          0  HIT:          0  MISS:          0
cpu0_STLB TOTAL     ACCESS:      12553  HIT:       3623  MISS:       8930
cpu0_STLB LOAD      ACCESS:      12553  HIT:       3623  MISS:       8930
cpu0_STLB RFO       ACCESS:          0  HIT:          0  MISS:          0
cpu0_STLB PREFETCH  ACCESS:          0  HIT:          0  MISS:          0
cpu0_STLB WRITEBACK ACCESS:          0  HIT:          0  MISS:          0
cpu0_L1D TOTAL     ACCESS:     952593  HIT:     859155  MISS:      93438
cpu0_L1D LOAD      ACCESS:     508981  HIT:     415563  MISS:      93418
cpu0_L1D RFO       ACCESS:     434696  HIT:     434696  MISS:          0
cpu0_L1D PREFETCH  ACCESS:          0  HIT:          0  MISS:          0
cpu0_L1D WRITEBACK ACCESS:          0  HIT:          0  MISS:          0
cpu0_L2C TOTAL     ACCESS:     116312  HIT:      22874  MISS:      93438
cpu0_L2C LOAD      ACCESS:      93418  HIT:          0  MISS:      93418
cpu0_L2C RFO       ACCESS:          0  HIT:          0  MISS:          0
cpu0_L2C PREFETCH  ACCESS:          0  HIT:          0  MISS:          0
cpu0_L2C WRITEBACK ACCESS:      22874  HIT:      22874  MISS:          0
LLC TOTAL     ACCESS:     116328  HIT:         15  MISS:     116313
LLC LOAD      ACCESS:      93418  HIT:          0  MISS:      93418
LLC RFO       ACCESS:          0  HIT:          0  MISS:          0
LLC PREFETCH  ACCESS:          0  HIT:          0  MISS:          0
LLC WRITEBACK ACCESS:      22890  HIT:          0  MISS:      22890
Heartbeat CPU 0 instructions: 60000000 cycles: 25362325 heartbeat IPC: 0.777681 cumulative IPC: 0.777469 (Simulation time: 0 hr 35 min 0 sec) 

Region of Interest Statistics
cpu0_DTLB TOTAL     ACCESS:    1319686  HIT:    1303997  MISS:      15689
cpu0_DTLB LOAD      ACCESS:    1090149  HIT:    1074460  MISS:      15689
cpu0_DTLB RFO       ACCESS:     229537  HIT:     229537  MISS:          0
cpu0_DTLB PREFETCH  ACCESS:          0  HIT:          0  MISS:          0
cpu0_DTLB WRITEBACK ACCESS:          0  HIT:          0  MISS:          0
cpu0_ITLB TOTAL     ACCESS:    1019980  HIT:    1019980  MISS:          0
cpu0_ITLB LOAD      ACCESS:    1019980  HIT:    1019980  MISS:          0
cpu0_ITLB RFO       ACCESS:          0  HIT:          0  MISS:          0
cpu0_ITLB PREFETCH  ACCESS:          0  HIT:          0  MISS:          0
cpu0_ITLB WRITEBACK ACCESS:          0  HIT:          0  MISS:          0
cpu0_STLB TOTAL     ACCESS:      15689  HIT:       4576  MISS:      11113
cpu0_STLB LOAD      ACCESS:      15689  HIT:       4576  MISS:      11113
cpu0_STLB RFO       ACCESS:          0  HIT:          0  MISS:          0
cpu0_STLB PREFETCH  ACCESS:          0  HIT:          0  MISS:          0
cpu0_STLB WRITEBACK ACCESS:          0  HIT:          0  MISS:          0
cpu0_L1D TOTAL     ACCESS:    1190664  HIT:    1073864  MISS:     116800
cpu0_L1D LOAD      ACCESS:     636198  HIT:     519424  MISS:     116774
cpu0_L1D RFO       ACCESS:     543372  HIT:     543372  MISS:          0
cpu0_L1D PREFETCH  ACCESS:          0  HIT:          0  MISS:          0
cpu0_L1D WRITEBACK ACCESS:          0  HIT:          0  MISS:          0
cpu0_L2C TOTAL     ACCESS:     145402  HIT:      28602  MISS:     116800
cpu0_L2C LOAD      ACCESS:     116774  HIT:          0  MISS:     116774
cpu0_L2C RFO       ACCESS:          0  HIT:          0  MISS:          0
cpu0_L2C PREFETCH  ACCESS:          0  HIT:          0  MISS:          0
cpu0_L2C WRITEBACK ACCESS:      28602  HIT:      28602  MISS:          0
LLC TOTAL     ACCESS:     145445  HIT:         19  MISS:     145426
LLC LOAD      ACCESS:     116774  HIT:          0  MISS:     116774
LLC RFO       ACCESS:          0  HIT:          0  MISS:          0
LLC PREFETCH  ACCESS:          0  HIT:          0  MISS:          0
LLC WRITEBACK ACCESS:      28645  HIT:          0  MISS:      28645
Heartbeat CPU 0 instructions: 62000000 cycles: 36273177 heartbeat IPC: 0.183304 cumulative IPC: 0.504772 (Simulation time: 0 hr 56 min 34 sec) 

Region of Interest Statistics
cpu0_DTLB TOTAL     ACCESS:    1801527  HIT:    1782978  MISS:      18549
cpu0_DTLB LOAD      ACCESS:    1100427  HIT:    1084588  MISS:      15839
cpu0_DTLB RFO       ACCESS:     701100  HIT:     698390  MISS:       2710
cpu0_DTLB PREFETCH  ACCESS:          0  HIT:          0  MISS:          0
cpu0_DTLB WRITEBACK ACCESS:          0  HIT:          0  MISS:          0
cpu0_ITLB TOTAL     ACCESS:    1029588  HIT:    1029583  MISS:          5
cpu0_ITLB LOAD      ACCESS:    1029588  HIT:    1029583  MISS:          5
cpu0_ITLB RFO       ACCESS:          0  HIT:          0  MISS:          0
cpu0_ITLB PREFETCH  ACCESS:          0  HIT:          0  MISS:          0
cpu0_ITLB WRITEBACK ACCESS:          0  HIT:          0  MISS:          0
cpu0_L1I TOTAL     ACCESS:         48  HIT:         18  MISS:         30
cpu0_L1I LOAD      ACCESS:         48  HIT:         18  MISS:         30
cpu0_L1I RFO       ACCESS:          0  HIT:          0  MISS:          0
cpu0_L1I PREFETCH  ACCESS:          0  HIT:          0  MISS:          0
cpu0_L1I WRITEBACK ACCESS:          0  HIT:          0  MISS:          0
cpu0_STLB TOTAL     ACCESS:      18554  HIT:       4620  MISS:      13934
cpu0_STLB LOAD      ACCESS:      15844  HIT:       4620  MISS:      11224
cpu0_STLB RFO       ACCESS:       2710  HIT:          0  MISS:       2710
cpu0_STLB PREFETCH  ACCESS:          0  HIT:          0  MISS:          0
cpu0_STLB WRITEBACK ACCESS:          0  HIT:          0  MISS:          0
cpu0_L1D TOTAL     ACCESS:    1377849  HIT:    1086659  MISS:     291190
cpu0_L1D LOAD      ACCESS:     642169  HIT:     524296  MISS:     117873
cpu0_L1D RFO       ACCESS:     721765  HIT:     548479  MISS:     173286
cpu0_L1D PREFETCH  ACCESS:          0  HIT:          0  MISS:          0
cpu0_L1D WRITEBACK ACCESS:          0  HIT:          0  MISS:          0
cpu0_L2C TOTAL     ACCESS:     493189  HIT:     201963  MISS:     291226
cpu0_L2C LOAD      ACCESS:     117903  HIT:          0  MISS:     117903
cpu0_L2C RFO       ACCESS:     173286  HIT:          0  MISS:     173286
cpu0_L2C PREFETCH  ACCESS:          0  HIT:          0  MISS:          0
cpu0_L2C WRITEBACK ACCESS:     201969  HIT:     201963  MISS:          6
LLC TOTAL     ACCESS:     491450  HIT:      55776  MISS:     435674
LLC LOAD      ACCESS:     117903  HIT:          0  MISS:     117903
LLC RFO       ACCESS:     173286  HIT:          0  MISS:     173286
LLC PREFETCH  ACCESS:          0  HIT:          0  MISS:          0
LLC WRITEBACK ACCESS:     200230  HIT:      55755  MISS:     144475
Heartbeat CPU 0 instructions: 64000000 cycles: 47597039 heartbeat IPC: 0.176618 cumulative IPC: 0.398895 (Simulation time: 1 hr 19 min 17 sec) 

Region of Interest Statistics
cpu0_DTLB TOTAL     ACCESS:    2299951  HIT:    2278561  MISS:      21390
cpu0_DTLB LOAD      ACCESS:    1100427  HIT:    1084588  MISS:      15839
cpu0_DTLB RFO       ACCESS:    1199524  HIT:    1193973  MISS:       5551
cpu0_DTLB PREFETCH  ACCESS:          0  HIT:          0  MISS:          0
cpu0_DTLB WRITEBACK ACCESS:          0  HIT:          0  MISS:          0
cpu0_ITLB TOTAL     ACCESS:    1029588  HIT:    1029583  MISS:          5
cpu0_ITLB LOAD      ACCESS:    1029588  HIT:    1029583  MISS:          5
cpu0_ITLB RFO       ACCESS:          0  HIT:          0  MISS:          0
cpu0_ITLB PREFETCH  ACCESS:          0  HIT:          0  MISS:          0
cpu0_ITLB WRITEBACK ACCESS:          0  HIT:          0  MISS:          0
cpu0_L1I TOTAL     ACCESS:         48  HIT:         18  MISS:         30
cpu0_L1I LOAD      ACCESS:         48  HIT:         18  MISS:         30
cpu0_L1I RFO       ACCESS:          0  HIT:          0  MISS:          0
cpu0_L1I PREFETCH  ACCESS:          0  HIT:          0  MISS:          0
cpu0_L1I WRITEBACK ACCESS:          0  HIT:          0  MISS:          0
cpu0_STLB TOTAL     ACCESS:      21395  HIT:       4620  MISS:      16775
cpu0_STLB LOAD      ACCESS:      15844  HIT:       4620  MISS:      11224
cpu0_STLB RFO       ACCESS:       5551  HIT:          0  MISS:       5551
cpu0_STLB PREFETCH  ACCESS:          0  HIT:          0  MISS:          0
cpu0_STLB WRITEBACK ACCESS:          0  HIT:          0  MISS:          0
cpu0_L1D TOTAL     ACCESS:    1562509  HIT:    1089500  MISS:     473009
cpu0_L1D LOAD      ACCESS:     642169  HIT:     524296  MISS:     117873
cpu0_L1D RFO       ACCESS:     903584  HIT:     548479  MISS:     355105
cpu0_L1D PREFETCH  ACCESS:          0  HIT:          0  MISS:          0
cpu0_L1D WRITEBACK ACCESS:          0  HIT:          0  MISS:          0
cpu0_L2C TOTAL     ACCESS:     856827  HIT:     383782  MISS:     473045
cpu0_L2C LOAD      ACCESS:     117903  HIT:          0  MISS:     117903
cpu0_L2C RFO       ACCESS:     355105  HIT:          0  MISS:     355105
cpu0_L2C PREFETCH  ACCESS:          0  HIT:          0  MISS:          0
cpu0_L2C WRITEBACK ACCESS:     383788  HIT:     383782  MISS:          6
LLC TOTAL     ACCESS:     855088  HIT:      55776  MISS:     799312
LLC LOAD      ACCESS:     117903  HIT:          0  MISS:     117903
LLC RFO       ACCESS:     355105  HIT:          0  MISS:     355105
LLC PREFETCH  ACCESS:          0  HIT:          0  MISS:          0
LLC WRITEBACK ACCESS:     382049  HIT:      55755  MISS:     326294
Heartbeat CPU 0 instructions: 66000003 cycles: 51682697 heartbeat IPC: 0.489518 cumulative IPC: 0.408344 (Simulation time: 1 hr 24 min 22 sec) 

Region of Interest Statistics
cpu0_DTLB TOTAL     ACCESS:    3075145  HIT:    3052972  MISS:      22173
cpu0_DTLB LOAD      ACCESS:    1814748  HIT:    1798524  MISS:      16224
cpu0_DTLB RFO       ACCESS:    1260397  HIT:    1254448  MISS:       5949
cpu0_DTLB PREFETCH  ACCESS:          0  HIT:          0  MISS:          0
cpu0_DTLB WRITEBACK ACCESS:          0  HIT:          0  MISS:          0
cpu0_ITLB TOTAL     ACCESS:    1046716  HIT:    1046711  MISS:          5
cpu0_ITLB LOAD      ACCESS:    1046716  HIT:    1046711  MISS:          5
cpu0_ITLB RFO       ACCESS:          0  HIT:          0  MISS:          0
cpu0_ITLB PREFETCH  ACCESS:          0  HIT:          0  MISS:          0
cpu0_ITLB WRITEBACK ACCESS:          0  HIT:          0  MISS:          0
cpu0_L1I TOTAL     ACCESS:         83  HIT:         33  MISS:         50
cpu0_L1I LOAD      ACCESS:         83  HIT:         33  MISS:         50
cpu0_L1I RFO       ACCESS:          0  HIT:          0  MISS:          0
cpu0_L1I PREFETCH  ACCESS:          0  HIT:          0  MISS:          0
cpu0_L1I WRITEBACK ACCESS:          0  HIT:          0  MISS:          0
cpu0_STLB TOTAL     ACCESS:      22178  HIT:       4622  MISS:      17556
cpu0_STLB LOAD      ACCESS:      16229  HIT:       4622  MISS:      11607
cpu0_STLB RFO       ACCESS:       5949  HIT:          0  MISS:       5949
cpu0_STLB PREFETCH  ACCESS:          0  HIT:          0  MISS:          0
cpu0_STLB WRITEBACK ACCESS:          0  HIT:          0  MISS:          0
cpu0_L1D TOTAL     ACCESS:    2135655  HIT:    1625206  MISS:     510449
cpu0_L1D LOAD      ACCESS:    1179461  HIT:    1049556  MISS:     129905
cpu0_L1D RFO       ACCESS:     938657  HIT:     558151  MISS:     380506
cpu0_L1D PREFETCH  ACCESS:          0  HIT:          0  MISS:          0
cpu0_L1D WRITEBACK ACCESS:          0  HIT:          0  MISS:          0
cpu0_L2C TOTAL     ACCESS:     919916  HIT:     409411  MISS:     510505
cpu0_L2C LOAD      ACCESS:     129955  HIT:          0  MISS:     129955
cpu0_L2C RFO       ACCESS:     380506  HIT:          0  MISS:     380506
cpu0_L2C PREFETCH  ACCESS:          0  HIT:          0  MISS:          0
cpu0_L2C WRITEBACK ACCESS:     409417  HIT:     409411  MISS:          6
LLC TOTAL     ACCESS:     921420  HIT:      71926  MISS:     849494
LLC LOAD      ACCESS:     129955  HIT:         34  MISS:     129921
LLC RFO       ACCESS:     380506  HIT:        333  MISS:     380173
LLC PREFETCH  ACCESS:          0  HIT:          0  MISS:          0
LLC WRITEBACK ACCESS:     410921  HIT:      71533  MISS:     339388
Heartbeat CPU 0 instructions: 68000002 cycles: 54091604 heartbeat IPC: 0.830252 cumulative IPC: 0.432781 (Simulation time: 1 hr 26 min 28 sec) 

Region of Interest Statistics
cpu0_DTLB TOTAL     ACCESS:    3324733  HIT:    3300099  MISS:      24634
cpu0_DTLB LOAD      ACCESS:    2026587  HIT:    2007985  MISS:      18602
cpu0_DTLB RFO       ACCESS:    1298146  HIT:    1292114  MISS:       6032
cpu0_DTLB PREFETCH  ACCESS:          0  HIT:          0  MISS:          0
cpu0_DTLB WRITEBACK ACCESS:          0  HIT:          0  MISS:          0
cpu0_ITLB TOTAL     ACCESS:    1230151  HIT:    1230146  MISS:          5
cpu0_ITLB LOAD      ACCESS:    1230151  HIT:    1230146  MISS:          5
cpu0_ITLB RFO       ACCESS:          0  HIT:          0  MISS:          0
cpu0_ITLB PREFETCH  ACCESS:          0  HIT:          0  MISS:          0
cpu0_ITLB WRITEBACK ACCESS:          0  HIT:          0  MISS:          0
cpu0_L1I TOTAL     ACCESS:         83  HIT:         33  MISS:         50
cpu0_L1I LOAD      ACCESS:         83  HIT:         33  MISS:         50
cpu0_L1I RFO       ACCESS:          0  HIT:          0  MISS:          0
cpu0_L1I PREFETCH  ACCESS:          0  HIT:          0  MISS:          0
cpu0_L1I WRITEBACK ACCESS:          0  HIT:          0  MISS:          0
cpu0_STLB TOTAL     ACCESS:      24639  HIT:       4624  MISS:      20015
cpu0_STLB LOAD      ACCESS:      18607  HIT:       4624  MISS:      13983
cpu0_STLB RFO       ACCESS:       6032  HIT:          0  MISS:       6032
cpu0_STLB PREFETCH  ACCESS:          0  HIT:          0  MISS:          0
cpu0_STLB WRITEBACK ACCESS:          0  HIT:          0  MISS:          0
cpu0_L1D TOTAL     ACCESS:    2349001  HIT:    1811564  MISS:     537437
cpu0_L1D LOAD      ACCESS:    1327247  HIT:    1175693  MISS:     151554
cpu0_L1D RFO       ACCESS:    1001758  HIT:     615913  MISS:     385845
cpu0_L1D PREFETCH  ACCESS:          0  HIT:          0  MISS:          0
cpu0_L1D WRITEBACK ACCESS:          0  HIT:          0  MISS:          0
cpu0_L2C TOTAL     ACCESS:     952185  HIT:     414692  MISS:     537493
cpu0_L2C LOAD      ACCESS:     151604  HIT:          0  MISS:     151604
cpu0_L2C RFO       ACCESS:     385845  HIT:          0  MISS:     385845
cpu0_L2C PREFETCH  ACCESS:          0  HIT:          0  MISS:          0
cpu0_L2C WRITEBACK ACCESS:     414698  HIT:     414692  MISS:          6
LLC TOTAL     ACCESS:     952644  HIT:      77613  MISS:     875031
LLC LOAD      ACCESS:     151604  HIT:        283  MISS:     151321
LLC RFO       ACCESS:     385845  HIT:       1771  MISS:     384074
LLC PREFETCH  ACCESS:          0  HIT:          0  MISS:          0
LLC WRITEBACK ACCESS:     415157  HIT:      75533  MISS:     339624
Heartbeat CPU 0 instructions: 70000003 cycles: 56227773 heartbeat IPC: 0.936256 cumulative IPC: 0.457376 (Simulation time: 1 hr 28 min 22 sec) 

Region of Interest Statistics
cpu0_DTLB TOTAL     ACCESS:    3573540  HIT:    3546447  MISS:      27093
cpu0_DTLB LOAD      ACCESS:    2237101  HIT:    2216123  MISS:      20978
cpu0_DTLB RFO       ACCESS:    1336439  HIT:    1330324  MISS:       6115
cpu0_DTLB PREFETCH  ACCESS:          0  HIT:          0  MISS:          0
cpu0_DTLB WRITEBACK ACCESS:          0  HIT:          0  MISS:          0
cpu0_ITLB TOTAL     ACCESS:    1413980  HIT:    1413975  MISS:          5
cpu0_ITLB LOAD      ACCESS:    1413980  HIT:    1413975  MISS:          5
cpu0_ITLB RFO       ACCESS:          0  HIT:          0  MISS:          0
cpu0_ITLB PREFETCH  ACCESS:          0  HIT:          0  MISS:          0
cpu0_ITLB WRITEBACK ACCESS:          0  HIT:          0  MISS:          0
cpu0_L1I TOTAL     ACCESS:         83  HIT:         33  MISS:         50
cpu0_L1I LOAD      ACCESS:         83  HIT:         33  MISS:         50
cpu0_L1I RFO       ACCESS:          0  HIT:          0  MISS:          0
cpu0_L1I PREFETCH  ACCESS:          0  HIT:          0  MISS:          0
cpu0_L1I WRITEBACK ACCESS:          0  HIT:          0  MISS:          0
cpu0_STLB TOTAL     ACCESS:      27098  HIT:       4624  MISS:      22474
cpu0_STLB LOAD      ACCESS:      20983  HIT:       4624  MISS:      16359
cpu0_STLB RFO       ACCESS:       6115  HIT:          0  MISS:       6115
cpu0_STLB PREFETCH  ACCESS:          0  HIT:          0  MISS:          0
cpu0_STLB WRITEBACK ACCESS:          0  HIT:          0  MISS:          0
cpu0_L1D TOTAL     ACCESS:    2557981  HIT:    1993559  MISS:     564422
cpu0_L1D LOAD      ACCESS:    1470399  HIT:    1297200  MISS:     173199
cpu0_L1D RFO       ACCESS:    1065127  HIT:     673944  MISS:     391183
cpu0_L1D PREFETCH  ACCESS:          0  HIT:          0  MISS:          0
cpu0_L1D WRITEBACK ACCESS:          0  HIT:          0  MISS:          0
cpu0_L2C TOTAL     ACCESS:     984518  HIT:     420040  MISS:     564478
cpu0_L2C LOAD      ACCESS:     173249  HIT:          0  MISS:     173249
cpu0_L2C RFO       ACCESS:     391183  HIT:          0  MISS:     391183
cpu0_L2C PREFETCH  ACCESS:          0  HIT:          0  MISS:          0
cpu0_L2C WRITEBACK ACCESS:     420046  HIT:     420040  MISS:          6
LLC TOTAL     ACCESS:     984414  HIT:      83315  MISS:     901099
LLC LOAD      ACCESS:     173249  HIT:        527  MISS:     172722
LLC RFO       ACCESS:     391183  HIT:       3773  MISS:     387410
LLC PREFETCH  ACCESS:          0  HIT:          0  MISS:          0
LLC WRITEBACK ACCESS:     419942  HIT:      78989  MISS:     340953
Heartbeat CPU 0 instructions: 72000002 cycles: 58391376 heartbeat IPC: 0.924384 cumulative IPC: 0.479394 (Simulation time: 1 hr 30 min 17 sec) 

Region of Interest Statistics
cpu0_DTLB TOTAL     ACCESS:    3822555  HIT:    3793001  MISS:      29554
cpu0_DTLB LOAD      ACCESS:    2448088  HIT:    2424733  MISS:      23355
cpu0_DTLB RFO       ACCESS:    1374467  HIT:    1368268  MISS:       6199
cpu0_DTLB PREFETCH  ACCESS:          0  HIT:          0  MISS:          0
cpu0_DTLB WRITEBACK ACCESS:          0  HIT:          0  MISS:          0
cpu0_ITLB TOTAL     ACCESS:    1597670  HIT:    1597665  MISS:          5
cpu0_ITLB LOAD      ACCESS:    1597670  HIT:    1597665  MISS:          5
cpu0_ITLB RFO       ACCESS:          0  HIT:          0  MISS:          0
cpu0_ITLB PREFETCH  ACCESS:          0  HIT:          0  MISS:          0
cpu0_ITLB WRITEBACK ACCESS:          0  HIT:          0  MISS:          0
cpu0_L1I TOTAL     ACCESS:         83  HIT:         33  MISS:         50
cpu0_L1I LOAD      ACCESS:         83  HIT:         33  MISS:         50
cpu0_L1I RFO       ACCESS:          0  HIT:          0  MISS:          0
cpu0_L1I PREFETCH  ACCESS:          0  HIT:          0  MISS:          0
cpu0_L1I WRITEBACK ACCESS:          0  HIT:          0  MISS:          0
cpu0_STLB TOTAL     ACCESS:      29559  HIT:       4624  MISS:      24935
cpu0_STLB LOAD      ACCESS:      23360  HIT:       4624  MISS:      18736
cpu0_STLB RFO       ACCESS:       6199  HIT:          0  MISS:       6199
cpu0_STLB PREFETCH  ACCESS:          0  HIT:          0  MISS:          0
cpu0_STLB WRITEBACK ACCESS:          0  HIT:          0  MISS:          0
cpu0_L1D TOTAL     ACCESS:    2766943  HIT:    2175526  MISS:     591417
cpu0_L1D LOAD      ACCESS:    1613861  HIT:    1419011  MISS:     194850
cpu0_L1D RFO       ACCESS:    1128165  HIT:     731644  MISS:     396521
cpu0_L1D PREFETCH  ACCESS:          0  HIT:          0  MISS:          0
cpu0_L1D WRITEBACK ACCESS:          0  HIT:          0  MISS:          0
cpu0_L2C TOTAL     ACCESS:    1016851  HIT:     425378  MISS:     591473
cpu0_L2C LOAD      ACCESS:     194900  HIT:          0  MISS:     194900
cpu0_L2C RFO       ACCESS:     396521  HIT:          0  MISS:     396521
cpu0_L2C PREFETCH  ACCESS:          0  HIT:          0  MISS:          0
cpu0_L2C WRITEBACK ACCESS:     425384  HIT:     425378  MISS:          6
LLC TOTAL     ACCESS:    1016738  HIT:      87337  MISS:     929401
LLC LOAD      ACCESS:     194900  HIT:        754  MISS:     194146
LLC RFO       ACCESS:     396521  HIT:       5120  MISS:     391401
LLC PREFETCH  ACCESS:          0  HIT:          0  MISS:          0
LLC WRITEBACK ACCESS:     425271  HIT:      81432  MISS:     343839
Heartbeat CPU 0 instructions: 74000001 cycles: 60554871 heartbeat IPC: 0.92443 cumulative IPC: 0.49943 (Simulation time: 1 hr 32 min 10 sec) 

Region of Interest Statistics
cpu0_DTLB TOTAL     ACCESS:    4071130  HIT:    4039116  MISS:      32014
cpu0_DTLB LOAD      ACCESS:    2658561  HIT:    2632829  MISS:      25732
cpu0_DTLB RFO       ACCESS:    1412569  HIT:    1406287  MISS:       6282
cpu0_DTLB PREFETCH  ACCESS:          0  HIT:          0  MISS:          0
cpu0_DTLB WRITEBACK ACCESS:          0  HIT:          0  MISS:          0
cpu0_ITLB TOTAL     ACCESS:    1781351  HIT:    1781346  MISS:          5
cpu0_ITLB LOAD      ACCESS:    1781351  HIT:    1781346  MISS:          5
cpu0_ITLB RFO       ACCESS:          0  HIT:          0  MISS:          0
cpu0_ITLB PREFETCH  ACCESS:          0  HIT:          0  MISS:          0
cpu0_ITLB WRITEBACK ACCESS:          0  HIT:          0  MISS:          0
cpu0_L1I TOTAL     ACCESS:         83  HIT:         33  MISS:         50
cpu0_L1I LOAD      ACCESS:         83  HIT:         33  MISS:         50
cpu0_L1I RFO       ACCESS:          0  HIT:          0  MISS:          0
cpu0_L1I PREFETCH  ACCESS:          0  HIT:          0  MISS:          0
cpu0_L1I WRITEBACK ACCESS:          0  HIT:          0  MISS:          0
cpu0_STLB TOTAL     ACCESS:      32019  HIT:       4624  MISS:      27395
cpu0_STLB LOAD      ACCESS:      25737  HIT:       4624  MISS:      21113
cpu0_STLB RFO       ACCESS:       6282  HIT:          0  MISS:       6282
cpu0_STLB PREFETCH  ACCESS:          0  HIT:          0  MISS:          0
cpu0_STLB WRITEBACK ACCESS:          0  HIT:          0  MISS:          0
cpu0_L1D TOTAL     ACCESS:    2976131  HIT:    2357723  MISS:     618408
cpu0_L1D LOAD      ACCESS:    1757370  HIT:    1540872  MISS:     216498
cpu0_L1D RFO       ACCESS:    1191385  HIT:     789526  MISS:     401859
cpu0_L1D PREFETCH  ACCESS:          0  HIT:          0  MISS:          0
cpu0_L1D WRITEBACK ACCESS:          0  HIT:          0  MISS:          0
cpu0_L2C TOTAL     ACCESS:    1049177  HIT:     430713  MISS:     618464
cpu0_L2C LOAD      ACCESS:     216548  HIT:          0  MISS:     216548
cpu0_L2C RFO       ACCESS:     401859  HIT:          0  MISS:     401859
cpu0_L2C PREFETCH  ACCESS:          0  HIT:          0  MISS:          0
cpu0_L2C WRITEBACK ACCESS:     430719  HIT:     430713  MISS:          6
LLC TOTAL     ACCESS:    1049050  HIT:      91168  MISS:     957882
LLC LOAD      ACCESS:     216548  HIT:        996  MISS:     215552
LLC RFO       ACCESS:     401859  HIT:       6896  MISS:     394963
LLC PREFETCH  ACCESS:          0  HIT:          0  MISS:          0
LLC WRITEBACK ACCESS:     430592  HIT:      83241  MISS:     347351
Heartbeat CPU 0 instructions: 76000002 cycles: 62729454 heartbeat IPC: 0.919717 cumulative IPC: 0.517625 (Simulation time: 1 hr 34 min 4 sec) 

Region of Interest Statistics
cpu0_DTLB TOTAL     ACCESS:    4320221  HIT:    4285745  MISS:      34476
cpu0_DTLB LOAD      ACCESS:    2869601  HIT:    2841491  MISS:      28110
cpu0_DTLB RFO       ACCESS:    1450620  HIT:    1444254  MISS:       6366
cpu0_DTLB PREFETCH  ACCESS:          0  HIT:          0  MISS:          0
cpu0_DTLB WRITEBACK ACCESS:          0  HIT:          0  MISS:          0
cpu0_ITLB TOTAL     ACCESS:    1965031  HIT:    1965026  MISS:          5
cpu0_ITLB LOAD      ACCESS:    1965031  HIT:    1965026  MISS:          5
cpu0_ITLB RFO       ACCESS:          0  HIT:          0  MISS:          0
cpu0_ITLB PREFETCH  ACCESS:          0  HIT:          0  MISS:          0
cpu0_ITLB WRITEBACK ACCESS:          0  HIT:          0  MISS:          0
cpu0_L1I TOTAL     ACCESS:         83  HIT:         33  MISS:         50
cpu0_L1I LOAD      ACCESS:         83  HIT:         33  MISS:         50
cpu0_L1I RFO       ACCESS:          0  HIT:          0  MISS:          0
cpu0_L1I PREFETCH  ACCESS:          0  HIT:          0  MISS:          0
cpu0_L1I WRITEBACK ACCESS:          0  HIT:          0  MISS:          0
cpu0_STLB TOTAL     ACCESS:      34481  HIT:       4624  MISS:      29857
cpu0_STLB LOAD      ACCESS:      28115  HIT:       4624  MISS:      23491
cpu0_STLB RFO       ACCESS:       6366  HIT:          0  MISS:       6366
cpu0_STLB PREFETCH  ACCESS:          0  HIT:          0  MISS:          0
cpu0_STLB WRITEBACK ACCESS:          0  HIT:          0  MISS:          0
cpu0_L1D TOTAL     ACCESS:    3185349  HIT:    2539946  MISS:     645403
cpu0_L1D LOAD      ACCESS:    1900914  HIT:    1662764  MISS:     238150
cpu0_L1D RFO       ACCESS:    1254597  HIT:     847400  MISS:     407197
cpu0_L1D PREFETCH  ACCESS:          0  HIT:          0  MISS:          0
cpu0_L1D WRITEBACK ACCESS:          0  HIT:          0  MISS:          0
cpu0_L2C TOTAL     ACCESS:    1081503  HIT:     436044  MISS:     645459
cpu0_L2C LOAD      ACCESS:     238200  HIT:          0  MISS:     238200
cpu0_L2C RFO       ACCESS:     407197  HIT:          0  MISS:     407197
cpu0_L2C PREFETCH  ACCESS:          0  HIT:          0  MISS:          0
cpu0_L2C WRITEBACK ACCESS:     436050  HIT:     436044  MISS:          6
LLC TOTAL     ACCESS:    1081355  HIT:      94472  MISS:     986883
LLC LOAD      ACCESS:     238200  HIT:       1233  MISS:     236967
LLC RFO       ACCESS:     407197  HIT:       8479  MISS:     398718
LLC PREFETCH  ACCESS:          0  HIT:          0  MISS:          0
LLC WRITEBACK ACCESS:     435902  HIT:      84720  MISS:     351182
Heartbeat CPU 0 instructions: 78000003 cycles: 64888534 heartbeat IPC: 0.926321 cumulative IPC: 0.534469 (Simulation time: 1 hr 35 min 57 sec) 

Region of Interest Statistics
cpu0_DTLB TOTAL     ACCESS:    4569717  HIT:    4532781  MISS:      36936
cpu0_DTLB LOAD      ACCESS:    3081184  HIT:    3050697  MISS:      30487
cpu0_DTLB RFO       ACCESS:    1488533  HIT:    1482084  MISS:       6449
cpu0_DTLB PREFETCH  ACCESS:          0  HIT:          0  MISS:          0
cpu0_DTLB WRITEBACK ACCESS:          0  HIT:          0  MISS:          0
cpu0_ITLB TOTAL     ACCESS:    2148568  HIT:    2148563  MISS:          5
cpu0_ITLB LOAD      ACCESS:    2148568  HIT:    2148563  MISS:          5
cpu0_ITLB RFO       ACCESS:          0  HIT:          0  MISS:          0
cpu0_ITLB PREFETCH  ACCESS:          0  HIT:          0  MISS:          0
cpu0_ITLB WRITEBACK ACCESS:          0  HIT:          0  MISS:          0
cpu0_L1I TOTAL     ACCESS:         83  HIT:         33  MISS:         50
cpu0_L1I LOAD      ACCESS:         83  HIT:         33  MISS:         50
cpu0_L1I RFO       ACCESS:          0  HIT:          0  MISS:          0
cpu0_L1I PREFETCH  ACCESS:          0  HIT:          0  MISS:          0
cpu0_L1I WRITEBACK ACCESS:          0  HIT:          0  MISS:          0
cpu0_STLB TOTAL     ACCESS:      36941  HIT:       4624  MISS:      32317
cpu0_STLB LOAD      ACCESS:      30492  HIT:       4624  MISS:      25868
cpu0_STLB RFO       ACCESS:       6449  HIT:          0  MISS:       6449
cpu0_STLB PREFETCH  ACCESS:          0  HIT:          0  MISS:          0
cpu0_STLB WRITEBACK ACCESS:          0  HIT:          0  MISS:          0
cpu0_L1D TOTAL     ACCESS:    3394724  HIT:    2722330  MISS:     672394
cpu0_L1D LOAD      ACCESS:    2044426  HIT:    1784630  MISS:     259796
cpu0_L1D RFO       ACCESS:    1318000  HIT:     905465  MISS:     412535
cpu0_L1D PREFETCH  ACCESS:          0  HIT:          0  MISS:          0
cpu0_L1D WRITEBACK ACCESS:          0  HIT:          0  MISS:          0
cpu0_L2C TOTAL     ACCESS:    1113841  HIT:     441391  MISS:     672450
cpu0_L2C LOAD      ACCESS:     259846  HIT:          0  MISS:     259846
cpu0_L2C RFO       ACCESS:     412535  HIT:          0  MISS:     412535
cpu0_L2C PREFETCH  ACCESS:          0  HIT:          0  MISS:          0
cpu0_L2C WRITEBACK ACCESS:     441397  HIT:     441391  MISS:          6
LLC TOTAL     ACCESS:    1113710  HIT:      98795  MISS:    1014915
LLC LOAD      ACCESS:     259846  HIT:       1476  MISS:     258370
LLC RFO       ACCESS:     412535  HIT:      10770  MISS:     401765
LLC PREFETCH  ACCESS:          0  HIT:          0  MISS:          0
LLC WRITEBACK ACCESS:     441266  HIT:      86504  MISS:     354762
Heartbeat CPU 0 instructions: 80000002 cycles: 67041305 heartbeat IPC: 0.929035 cumulative IPC: 0.550043 (Simulation time: 1 hr 37 min 55 sec) 

Region of Interest Statistics
cpu0_DTLB TOTAL     ACCESS:    4818575  HIT:    4779179  MISS:      39396
cpu0_DTLB LOAD      ACCESS:    3292076  HIT:    3259212  MISS:      32864
cpu0_DTLB RFO       ACCESS:    1526499  HIT:    1519967  MISS:       6532
cpu0_DTLB PREFETCH  ACCESS:          0  HIT:          0  MISS:          0
cpu0_DTLB WRITEBACK ACCESS:          0  HIT:          0  MISS:          0
cpu0_ITLB TOTAL     ACCESS:    2332110  HIT:    2332105  MISS:          5
cpu0_ITLB LOAD      ACCESS:    2332110  HIT:    2332105  MISS:          5
cpu0_ITLB RFO       ACCESS:          0  HIT:          0  MISS:          0
cpu0_ITLB PREFETCH  ACCESS:          0  HIT:          0  MISS:          0
cpu0_ITLB WRITEBACK ACCESS:          0  HIT:          0  MISS:          0
cpu0_L1I TOTAL     ACCESS:         83  HIT:         33  MISS:         50
cpu0_L1I LOAD      ACCESS:         83  HIT:         33  MISS:         50
cpu0_L1I RFO       ACCESS:          0  HIT:          0  MISS:          0
cpu0_L1I PREFETCH  ACCESS:          0  HIT:          0  MISS:          0
cpu0_L1I WRITEBACK ACCESS:          0  HIT:          0  MISS:          0
cpu0_STLB TOTAL     ACCESS:      39401  HIT:       4624  MISS:      34777
cpu0_STLB LOAD      ACCESS:      32869  HIT:       4624  MISS:      28245
cpu0_STLB RFO       ACCESS:       6532  HIT:          0  MISS:       6532
cpu0_STLB PREFETCH  ACCESS:          0  HIT:          0  MISS:          0
cpu0_STLB WRITEBACK ACCESS:          0  HIT:          0  MISS:          0
cpu0_L1D TOTAL     ACCESS:    3604001  HIT:    2904613  MISS:     699388
cpu0_L1D LOAD      ACCESS:    2187948  HIT:    1906502  MISS:     281446
cpu0_L1D RFO       ACCESS:    1381295  HIT:     963421  MISS:     417874
cpu0_L1D PREFETCH  ACCESS:          0  HIT:          0  MISS:          0
cpu0_L1D WRITEBACK ACCESS:          0  HIT:          0  MISS:          0
cpu0_L2C TOTAL     ACCESS:    1146176  HIT:     446732  MISS:     699444
cpu0_L2C LOAD      ACCESS:     281496  HIT:          0  MISS:     281496
cpu0_L2C RFO       ACCESS:     417874  HIT:          0  MISS:     417874
cpu0_L2C PREFETCH  ACCESS:          0  HIT:          0  MISS:          0
cpu0_L2C WRITEBACK ACCESS:     446738  HIT:     446732  MISS:          6
LLC TOTAL     ACCESS:    1146030  HIT:     103264  MISS:    1042766
LLC LOAD      ACCESS:     281496  HIT:       1701  MISS:     279795
LLC RFO       ACCESS:     417874  HIT:      13009  MISS:     404865
LLC PREFETCH  ACCESS:          0  HIT:          0  MISS:          0
LLC WRITEBACK ACCESS:     446592  HIT:      88505  MISS:     358087
Heartbeat CPU 0 instructions: 82000002 cycles: 69177129 heartbeat IPC: 0.936407 cumulative IPC: 0.564602 (Simulation time: 1 hr 39 min 50 sec) 

Region of Interest Statistics
cpu0_DTLB TOTAL     ACCESS:    5066463  HIT:    5024606  MISS:      41857
cpu0_DTLB LOAD      ACCESS:    3501805  HIT:    3466564  MISS:      35241
cpu0_DTLB RFO       ACCESS:    1564658  HIT:    1558042  MISS:       6616
cpu0_DTLB PREFETCH  ACCESS:          0  HIT:          0  MISS:          0
cpu0_DTLB WRITEBACK ACCESS:          0  HIT:          0  MISS:          0
cpu0_ITLB TOTAL     ACCESS:    2515705  HIT:    2515700  MISS:          5
cpu0_ITLB LOAD      ACCESS:    2515705  HIT:    2515700  MISS:          5
cpu0_ITLB RFO       ACCESS:          0  HIT:          0  MISS:          0
cpu0_ITLB PREFETCH  ACCESS:          0  HIT:          0  MISS:          0
cpu0_ITLB WRITEBACK ACCESS:          0  HIT:          0  MISS:          0
cpu0_L1I TOTAL     ACCESS:         83  HIT:         33  MISS:         50
cpu0_L1I LOAD      ACCESS:         83  HIT:         33  MISS:         50
cpu0_L1I RFO       ACCESS:          0  HIT:          0  MISS:          0
cpu0_L1I PREFETCH  ACCESS:          0  HIT:          0  MISS:          0
cpu0_L1I WRITEBACK ACCESS:          0  HIT:          0  MISS:          0
cpu0_STLB TOTAL     ACCESS:      41862  HIT:       4624  MISS:      37238
cpu0_STLB LOAD      ACCESS:      35246  HIT:       4624  MISS:      30622
cpu0_STLB RFO       ACCESS:       6616  HIT:          0  MISS:       6616
cpu0_STLB PREFETCH  ACCESS:          0  HIT:          0  MISS:          0
cpu0_STLB WRITEBACK ACCESS:          0  HIT:          0  MISS:          0
cpu0_L1D TOTAL     ACCESS:    3813169  HIT:    3086791  MISS:     726378
cpu0_L1D LOAD      ACCESS:    2330768  HIT:    2027674  MISS:     303094
cpu0_L1D RFO       ACCESS:    1445182  HIT:    1021971  MISS:     423211
cpu0_L1D PREFETCH  ACCESS:          0  HIT:          0  MISS:          0
cpu0_L1D WRITEBACK ACCESS:          0  HIT:          0  MISS:          0
cpu0_L2C TOTAL     ACCESS:    1178498  HIT:     452064  MISS:     726434
cpu0_L2C LOAD      ACCESS:     303144  HIT:          0  MISS:     303144
cpu0_L2C RFO       ACCESS:     423211  HIT:          0  MISS:     423211
cpu0_L2C PREFETCH  ACCESS:          0  HIT:          0  MISS:          0
cpu0_L2C WRITEBACK ACCESS:     452070  HIT:     452064  MISS:          6
LLC TOTAL     ACCESS:    1178322  HIT:     108719  MISS:    1069603
LLC LOAD      ACCESS:     303144  HIT:       1920  MISS:     301224
LLC RFO       ACCESS:     423211  HIT:      15876  MISS:     407335
LLC PREFETCH  ACCESS:          0  HIT:          0  MISS:          0
LLC WRITEBACK ACCESS:     451894  HIT:      90869  MISS:     361025
Heartbeat CPU 0 instructions: 84000003 cycles: 71297225 heartbeat IPC: 0.943354 cumulative IPC: 0.578259 (Simulation time: 1 hr 41 min 43 sec) 

Region of Interest Statistics
cpu0_DTLB TOTAL     ACCESS:    5315343  HIT:    5271026  MISS:      44317
cpu0_DTLB LOAD      ACCESS:    3712563  HIT:    3674945  MISS:      37618
cpu0_DTLB RFO       ACCESS:    1602780  HIT:    1596081  MISS:       6699
cpu0_DTLB PREFETCH  ACCESS:          0  HIT:          0  MISS:          0
cpu0_DTLB WRITEBACK ACCESS:          0  HIT:          0  MISS:          0
cpu0_ITLB TOTAL     ACCESS:    2699336  HIT:    2699331  MISS:          5
cpu0_ITLB LOAD      ACCESS:    2699336  HIT:    2699331  MISS:          5
cpu0_ITLB RFO       ACCESS:          0  HIT:          0  MISS:          0
cpu0_ITLB PREFETCH  ACCESS:          0  HIT:          0  MISS:          0
cpu0_ITLB WRITEBACK ACCESS:          0  HIT:          0  MISS:          0
cpu0_L1I TOTAL     ACCESS:         83  HIT:         33  MISS:         50
cpu0_L1I LOAD      ACCESS:         83  HIT:         33  MISS:         50
cpu0_L1I RFO       ACCESS:          0  HIT:          0  MISS:          0
cpu0_L1I PREFETCH  ACCESS:          0  HIT:          0  MISS:          0
cpu0_L1I WRITEBACK ACCESS:          0  HIT:          0  MISS:          0
cpu0_STLB TOTAL     ACCESS:      44322  HIT:       4624  MISS:      39698
cpu0_STLB LOAD      ACCESS:      37623  HIT:       4624  MISS:      32999
cpu0_STLB RFO       ACCESS:       6699  HIT:          0  MISS:       6699
cpu0_STLB PREFETCH  ACCESS:          0  HIT:          0  MISS:          0
cpu0_STLB WRITEBACK ACCESS:          0  HIT:          0  MISS:          0
cpu0_L1D TOTAL     ACCESS:    4022278  HIT:    3268906  MISS:     753372
cpu0_L1D LOAD      ACCESS:    2473580  HIT:    2148837  MISS:     324743
cpu0_L1D RFO       ACCESS:    1509019  HIT:    1080469  MISS:     428550
cpu0_L1D PREFETCH  ACCESS:          0  HIT:          0  MISS:          0
cpu0_L1D WRITEBACK ACCESS:          0  HIT:          0  MISS:          0
cpu0_L2C TOTAL     ACCESS:    1210827  HIT:     457399  MISS:     753428
cpu0_L2C LOAD      ACCESS:     324793  HIT:          0  MISS:     324793
cpu0_L2C RFO       ACCESS:     428550  HIT:          0  MISS:     428550
cpu0_L2C PREFETCH  ACCESS:          0  HIT:          0  MISS:          0
cpu0_L2C WRITEBACK ACCESS:     457405  HIT:     457399  MISS:          6
LLC TOTAL     ACCESS:    1210666  HIT:     114214  MISS:    1096452
LLC LOAD      ACCESS:     324793  HIT:       2156  MISS:     322637
LLC RFO       ACCESS:     428550  HIT:      18760  MISS:     409790
LLC PREFETCH  ACCESS:          0  HIT:          0  MISS:          0
LLC WRITEBACK ACCESS:     457244  HIT:      93239  MISS:     364005
Heartbeat CPU 0 instructions: 86000003 cycles: 73222755 heartbeat IPC: 1.03868 cumulative IPC: 0.592859 (Simulation time: 1 hr 43 min 37 sec) 

Region of Interest Statistics
cpu0_DTLB TOTAL     ACCESS:    5566130  HIT:    5519352  MISS:      46778
cpu0_DTLB LOAD      ACCESS:    3927326  HIT:    3887331  MISS:      39995
cpu0_DTLB RFO       ACCESS:    1638804  HIT:    1632021  MISS:       6783
cpu0_DTLB PREFETCH  ACCESS:          0  HIT:          0  MISS:          0
cpu0_DTLB WRITEBACK ACCESS:          0  HIT:          0  MISS:          0
cpu0_ITLB TOTAL     ACCESS:    2881640  HIT:    2881635  MISS:          5
cpu0_ITLB LOAD      ACCESS:    2881640  HIT:    2881635  MISS:          5
cpu0_ITLB RFO       ACCESS:          0  HIT:          0  MISS:          0
cpu0_ITLB PREFETCH  ACCESS:          0  HIT:          0  MISS:          0
cpu0_ITLB WRITEBACK ACCESS:          0  HIT:          0  MISS:          0
cpu0_L1I TOTAL     ACCESS:         83  HIT:         33  MISS:         50
cpu0_L1I LOAD      ACCESS:         83  HIT:         33  MISS:         50
cpu0_L1I RFO       ACCESS:          0  HIT:          0  MISS:          0
cpu0_L1I PREFETCH  ACCESS:          0  HIT:          0  MISS:          0
cpu0_L1I WRITEBACK ACCESS:          0  HIT:          0  MISS:          0
cpu0_STLB TOTAL     ACCESS:      46783  HIT:       4624  MISS:      42159
cpu0_STLB LOAD      ACCESS:      40000  HIT:       4624  MISS:      35376
cpu0_STLB RFO       ACCESS:       6783  HIT:          0  MISS:       6783
cpu0_STLB PREFETCH  ACCESS:          0  HIT:          0  MISS:          0
cpu0_STLB WRITEBACK ACCESS:          0  HIT:          0  MISS:          0
cpu0_L1D TOTAL     ACCESS:    4235811  HIT:    3455447  MISS:     780364
cpu0_L1D LOAD      ACCESS:    2620272  HIT:    2273880  MISS:     346392
cpu0_L1D RFO       ACCESS:    1573399  HIT:    1139512  MISS:     433887
cpu0_L1D PREFETCH  ACCESS:          0  HIT:          0  MISS:          0
cpu0_L1D WRITEBACK ACCESS:          0  HIT:          0  MISS:          0
cpu0_L2C TOTAL     ACCESS:    1243159  HIT:     462739  MISS:     780420
cpu0_L2C LOAD      ACCESS:     346442  HIT:          0  MISS:     346442
cpu0_L2C RFO       ACCESS:     433887  HIT:          0  MISS:     433887
cpu0_L2C PREFETCH  ACCESS:          0  HIT:          0  MISS:          0
cpu0_L2C WRITEBACK ACCESS:     462745  HIT:     462739  MISS:          6
LLC TOTAL     ACCESS:    1243057  HIT:     120960  MISS:    1122097
LLC LOAD      ACCESS:     346442  HIT:       2381  MISS:     344061
LLC RFO       ACCESS:     433887  HIT:      22226  MISS:     411661
LLC PREFETCH  ACCESS:          0  HIT:          0  MISS:          0
LLC WRITEBACK ACCESS:     462643  HIT:      96290  MISS:     366353
Heartbeat CPU 0 instructions: 88000002 cycles: 74987863 heartbeat IPC: 1.13307 cumulative IPC: 0.608119 (Simulation time: 1 hr 45 min 32 sec) 

Region of Interest Statistics
cpu0_DTLB TOTAL     ACCESS:    5817755  HIT:    5768517  MISS:      49238
cpu0_DTLB LOAD      ACCESS:    4145052  HIT:    4102680  MISS:      42372
cpu0_DTLB RFO       ACCESS:    1672703  HIT:    1665837  MISS:       6866
cpu0_DTLB PREFETCH  ACCESS:          0  HIT:          0  MISS:          0
cpu0_DTLB WRITEBACK ACCESS:          0  HIT:          0  MISS:          0
cpu0_ITLB TOTAL     ACCESS:    3062841  HIT:    3062836  MISS:          5
cpu0_ITLB LOAD      ACCESS:    3062841  HIT:    3062836  MISS:          5
cpu0_ITLB RFO       ACCESS:          0  HIT:          0  MISS:          0
cpu0_ITLB PREFETCH  ACCESS:          0  HIT:          0  MISS:          0
cpu0_ITLB WRITEBACK ACCESS:          0  HIT:          0  MISS:          0
cpu0_L1I TOTAL     ACCESS:         83  HIT:         33  MISS:         50
cpu0_L1I LOAD      ACCESS:         83  HIT:         33  MISS:         50
cpu0_L1I RFO       ACCESS:          0  HIT:          0  MISS:          0
cpu0_L1I PREFETCH  ACCESS:          0  HIT:          0  MISS:          0
cpu0_L1I WRITEBACK ACCESS:          0  HIT:          0  MISS:          0
cpu0_STLB TOTAL     ACCESS:      49243  HIT:       4624  MISS:      44619
cpu0_STLB LOAD      ACCESS:      42377  HIT:       4624  MISS:      37753
cpu0_STLB RFO       ACCESS:       6866  HIT:          0  MISS:       6866
cpu0_STLB PREFETCH  ACCESS:          0  HIT:          0  MISS:          0
cpu0_STLB WRITEBACK ACCESS:          0  HIT:          0  MISS:          0
cpu0_L1D TOTAL     ACCESS:    4452111  HIT:    3644755  MISS:     807356
cpu0_L1D LOAD      ACCESS:    2770741  HIT:    2402700  MISS:     368041
cpu0_L1D RFO       ACCESS:    1636770  HIT:    1197545  MISS:     439225
cpu0_L1D PREFETCH  ACCESS:          0  HIT:          0  MISS:          0
cpu0_L1D WRITEBACK ACCESS:          0  HIT:          0  MISS:          0
cpu0_L2C TOTAL     ACCESS:    1275490  HIT:     468078  MISS:     807412
cpu0_L2C LOAD      ACCESS:     368091  HIT:          0  MISS:     368091
cpu0_L2C RFO       ACCESS:     439225  HIT:          0  MISS:     439225
cpu0_L2C PREFETCH  ACCESS:          0  HIT:          0  MISS:          0
cpu0_L2C WRITEBACK ACCESS:     468084  HIT:     468078  MISS:          6
LLC TOTAL     ACCESS:    1275269  HIT:     125313  MISS:    1149956
LLC LOAD      ACCESS:     368091  HIT:       2623  MISS:     365468
LLC RFO       ACCESS:     439225  HIT:      23333  MISS:     415892
LLC PREFETCH  ACCESS:          0  HIT:          0  MISS:          0
LLC WRITEBACK ACCESS:     467863  HIT:      99289  MISS:     368574
Heartbeat CPU 0 instructions: 90000003 cycles: 76787078 heartbeat IPC: 1.1116 cumulative IPC: 0.62221 (Simulation time: 1 hr 47 min 29 sec) 

Region of Interest Statistics
cpu0_DTLB TOTAL     ACCESS:    6068970  HIT:    6017270  MISS:      51700
cpu0_DTLB LOAD      ACCESS:    4362566  HIT:    4317816  MISS:      44750
cpu0_DTLB RFO       ACCESS:    1706404  HIT:    1699454  MISS:       6950
cpu0_DTLB PREFETCH  ACCESS:          0  HIT:          0  MISS:          0
cpu0_DTLB WRITEBACK ACCESS:          0  HIT:          0  MISS:          0
cpu0_ITLB TOTAL     ACCESS:    3244141  HIT:    3244136  MISS:          5
cpu0_ITLB LOAD      ACCESS:    3244141  HIT:    3244136  MISS:          5
cpu0_ITLB RFO       ACCESS:          0  HIT:          0  MISS:          0
cpu0_ITLB PREFETCH  ACCESS:          0  HIT:          0  MISS:          0
cpu0_ITLB WRITEBACK ACCESS:          0  HIT:          0  MISS:          0
cpu0_L1I TOTAL     ACCESS:         83  HIT:         33  MISS:         50
cpu0_L1I LOAD      ACCESS:         83  HIT:         33  MISS:         50
cpu0_L1I RFO       ACCESS:          0  HIT:          0  MISS:          0
cpu0_L1I PREFETCH  ACCESS:          0  HIT:          0  MISS:          0
cpu0_L1I WRITEBACK ACCESS:          0  HIT:          0  MISS:          0
cpu0_STLB TOTAL     ACCESS:      51705  HIT:       4624  MISS:      47081
cpu0_STLB LOAD      ACCESS:      44755  HIT:       4624  MISS:      40131
cpu0_STLB RFO       ACCESS:       6950  HIT:          0  MISS:       6950
cpu0_STLB PREFETCH  ACCESS:          0  HIT:          0  MISS:          0
cpu0_STLB WRITEBACK ACCESS:          0  HIT:          0  MISS:          0
cpu0_L1D TOTAL     ACCESS:    4669335  HIT:    3834987  MISS:     834348
cpu0_L1D LOAD      ACCESS:    2922710  HIT:    2533020  MISS:     389690
cpu0_L1D RFO       ACCESS:    1699563  HIT:    1255000  MISS:     444563
cpu0_L1D PREFETCH  ACCESS:          0  HIT:          0  MISS:          0
cpu0_L1D WRITEBACK ACCESS:          0  HIT:          0  MISS:          0
cpu0_L2C TOTAL     ACCESS:    1307818  HIT:     473414  MISS:     834404
cpu0_L2C LOAD      ACCESS:     389740  HIT:          0  MISS:     389740
cpu0_L2C RFO       ACCESS:     444563  HIT:          0  MISS:     444563
cpu0_L2C PREFETCH  ACCESS:          0  HIT:          0  MISS:          0
cpu0_L2C WRITEBACK ACCESS:     473420  HIT:     473414  MISS:          6
LLC TOTAL     ACCESS:    1307678  HIT:     127909  MISS:    1179769
LLC LOAD      ACCESS:     389740  HIT:       2862  MISS:     386878
LLC RFO       ACCESS:     444563  HIT:      23333  MISS:     421230
LLC PREFETCH  ACCESS:          0  HIT:          0  MISS:          0
LLC WRITEBACK ACCESS:     473280  HIT:     101641  MISS:     371639
Heartbeat CPU 0 instructions: 92000002 cycles: 78661179 heartbeat IPC: 1.06718 cumulative IPC: 0.634814 (Simulation time: 1 hr 49 min 30 sec) 

Region of Interest Statistics
cpu0_DTLB TOTAL     ACCESS:    6319028  HIT:    6264868  MISS:      54160
cpu0_DTLB LOAD      ACCESS:    4579005  HIT:    4531878  MISS:      47127
cpu0_DTLB RFO       ACCESS:    1740023  HIT:    1732990  MISS:       7033
cpu0_DTLB PREFETCH  ACCESS:          0  HIT:          0  MISS:          0
cpu0_DTLB WRITEBACK ACCESS:          0  HIT:          0  MISS:          0
cpu0_ITLB TOTAL     ACCESS:    3425571  HIT:    3425566  MISS:          5
cpu0_ITLB LOAD      ACCESS:    3425571  HIT:    3425566  MISS:          5
cpu0_ITLB RFO       ACCESS:          0  HIT:          0  MISS:          0
cpu0_ITLB PREFETCH  ACCESS:          0  HIT:          0  MISS:          0
cpu0_ITLB WRITEBACK ACCESS:          0  HIT:          0  MISS:          0
cpu0_L1I TOTAL     ACCESS:         83  HIT:         33  MISS:         50
cpu0_L1I LOAD      ACCESS:         83  HIT:         33  MISS:         50
cpu0_L1I RFO       ACCESS:          0  HIT:          0  MISS:          0
cpu0_L1I PREFETCH  ACCESS:          0  HIT:          0  MISS:          0
cpu0_L1I WRITEBACK ACCESS:          0  HIT:          0  MISS:          0
cpu0_STLB TOTAL     ACCESS:      54165  HIT:       4624  MISS:      49541
cpu0_STLB LOAD      ACCESS:      47132  HIT:       4624  MISS:      42508
cpu0_STLB RFO       ACCESS:       7033  HIT:          0  MISS:       7033
cpu0_STLB PREFETCH  ACCESS:          0  HIT:          0  MISS:          0
cpu0_STLB WRITEBACK ACCESS:          0  HIT:          0  MISS:          0
cpu0_L1D TOTAL     ACCESS:    4890694  HIT:    4029350  MISS:     861344
cpu0_L1D LOAD      ACCESS:    3078612  HIT:    2667271  MISS:     411341
cpu0_L1D RFO       ACCESS:    1762560  HIT:    1312658  MISS:     449902
cpu0_L1D PREFETCH  ACCESS:          0  HIT:          0  MISS:          0
cpu0_L1D WRITEBACK ACCESS:          0  HIT:          0  MISS:          0
cpu0_L2C TOTAL     ACCESS:    1340155  HIT:     478755  MISS:     861400
cpu0_L2C LOAD      ACCESS:     411391  HIT:          0  MISS:     411391
cpu0_L2C RFO       ACCESS:     449902  HIT:          0  MISS:     449902
cpu0_L2C PREFETCH  ACCESS:          0  HIT:          0  MISS:          0
cpu0_L2C WRITEBACK ACCESS:     478761  HIT:     478755  MISS:          6
LLC TOTAL     ACCESS:    1340062  HIT:     128653  MISS:    1211409
LLC LOAD      ACCESS:     411391  HIT:       3105  MISS:     408286
LLC RFO       ACCESS:     449902  HIT:      23333  MISS:     426569
LLC PREFETCH  ACCESS:          0  HIT:          0  MISS:          0
LLC WRITEBACK ACCESS:     478668  HIT:     102138  MISS:     376530
Heartbeat CPU 0 instructions: 94000003 cycles: 80559277 heartbeat IPC: 1.05369 cumulative IPC: 0.646496 (Simulation time: 1 hr 51 min 27 sec) 

Region of Interest Statistics
cpu0_DTLB TOTAL     ACCESS:    6568747  HIT:    6512127  MISS:      56620
cpu0_DTLB LOAD      ACCESS:    4795095  HIT:    4745591  MISS:      49504
cpu0_DTLB RFO       ACCESS:    1773652  HIT:    1766536  MISS:       7116
cpu0_DTLB PREFETCH  ACCESS:          0  HIT:          0  MISS:          0
cpu0_DTLB WRITEBACK ACCESS:          0  HIT:          0  MISS:          0
cpu0_ITLB TOTAL     ACCESS:    3607036  HIT:    3607031  MISS:          5
cpu0_ITLB LOAD      ACCESS:    3607036  HIT:    3607031  MISS:          5
cpu0_ITLB RFO       ACCESS:          0  HIT:          0  MISS:          0
cpu0_ITLB PREFETCH  ACCESS:          0  HIT:          0  MISS:          0
cpu0_ITLB WRITEBACK ACCESS:          0  HIT:          0  MISS:          0
cpu0_L1I TOTAL     ACCESS:         83  HIT:         33  MISS:         50
cpu0_L1I LOAD      ACCESS:         83  HIT:         33  MISS:         50
cpu0_L1I RFO       ACCESS:          0  HIT:          0  MISS:          0
cpu0_L1I PREFETCH  ACCESS:          0  HIT:          0  MISS:          0
cpu0_L1I WRITEBACK ACCESS:          0  HIT:          0  MISS:          0
cpu0_STLB TOTAL     ACCESS:      56625  HIT:       4624  MISS:      52001
cpu0_STLB LOAD      ACCESS:      49509  HIT:       4624  MISS:      44885
cpu0_STLB RFO       ACCESS:       7116  HIT:          0  MISS:       7116
cpu0_STLB PREFETCH  ACCESS:          0  HIT:          0  MISS:          0
cpu0_STLB WRITEBACK ACCESS:          0  HIT:          0  MISS:          0
cpu0_L1D TOTAL     ACCESS:    5112364  HIT:    4224030  MISS:     888334
cpu0_L1D LOAD      ACCESS:    3234879  HIT:    2801891  MISS:     432988
cpu0_L1D RFO       ACCESS:    1825503  HIT:    1370264  MISS:     455239
cpu0_L1D PREFETCH  ACCESS:          0  HIT:          0  MISS:          0
cpu0_L1D WRITEBACK ACCESS:          0  HIT:          0  MISS:          0
cpu0_L2C TOTAL     ACCESS:    1372482  HIT:     484092  MISS:     888390
cpu0_L2C LOAD      ACCESS:     433038  HIT:          0  MISS:     433038
cpu0_L2C RFO       ACCESS:     455239  HIT:          0  MISS:     455239
cpu0_L2C PREFETCH  ACCESS:          0  HIT:          0  MISS:          0
cpu0_L2C WRITEBACK ACCESS:     484098  HIT:     484092  MISS:          6
LLC TOTAL     ACCESS:    1372387  HIT:     128870  MISS:    1243517
LLC LOAD      ACCESS:     433038  HIT:       3317  MISS:     429721
LLC RFO       ACCESS:     455239  HIT:      23333  MISS:     431906
LLC PREFETCH  ACCESS:          0  HIT:          0  MISS:          0
LLC WRITEBACK ACCESS:     484003  HIT:     102138  MISS:     381865
Heartbeat CPU 0 instructions: 96000002 cycles: 82453797 heartbeat IPC: 1.05568 cumulative IPC: 0.657578 (Simulation time: 1 hr 53 min 29 sec) 

Region of Interest Statistics
cpu0_DTLB TOTAL     ACCESS:    6818519  HIT:    6759438  MISS:      59081
cpu0_DTLB LOAD      ACCESS:    5011352  HIT:    4959471  MISS:      51881
cpu0_DTLB RFO       ACCESS:    1807167  HIT:    1799967  MISS:       7200
cpu0_DTLB PREFETCH  ACCESS:          0  HIT:          0  MISS:          0
cpu0_DTLB WRITEBACK ACCESS:          0  HIT:          0  MISS:          0
cpu0_ITLB TOTAL     ACCESS:    3788421  HIT:    3788416  MISS:          5
cpu0_ITLB LOAD      ACCESS:    3788421  HIT:    3788416  MISS:          5
cpu0_ITLB RFO       ACCESS:          0  HIT:          0  MISS:          0
cpu0_ITLB PREFETCH  ACCESS:          0  HIT:          0  MISS:          0
cpu0_ITLB WRITEBACK ACCESS:          0  HIT:          0  MISS:          0
cpu0_L1I TOTAL     ACCESS:         83  HIT:         33  MISS:         50
cpu0_L1I LOAD      ACCESS:         83  HIT:         33  MISS:         50
cpu0_L1I RFO       ACCESS:          0  HIT:          0  MISS:          0
cpu0_L1I PREFETCH  ACCESS:          0  HIT:          0  MISS:          0
cpu0_L1I WRITEBACK ACCESS:          0  HIT:          0  MISS:          0
cpu0_STLB TOTAL     ACCESS:      59086  HIT:       4624  MISS:      54462
cpu0_STLB LOAD      ACCESS:      51886  HIT:       4624  MISS:      47262
cpu0_STLB RFO       ACCESS:       7200  HIT:          0  MISS:       7200
cpu0_STLB PREFETCH  ACCESS:          0  HIT:          0  MISS:          0
cpu0_STLB WRITEBACK ACCESS:          0  HIT:          0  MISS:          0
cpu0_L1D TOTAL     ACCESS:    5334845  HIT:    4419517  MISS:     915328
cpu0_L1D LOAD      ACCESS:    3391881  HIT:    2937243  MISS:     454638
cpu0_L1D RFO       ACCESS:    1888521  HIT:    1427942  MISS:     460579
cpu0_L1D PREFETCH  ACCESS:          0  HIT:          0  MISS:          0
cpu0_L1D WRITEBACK ACCESS:          0  HIT:          0  MISS:          0
cpu0_L2C TOTAL     ACCESS:    1404818  HIT:     489434  MISS:     915384
cpu0_L2C LOAD      ACCESS:     454688  HIT:          0  MISS:     454688
cpu0_L2C RFO       ACCESS:     460579  HIT:          0  MISS:     460579
cpu0_L2C PREFETCH  ACCESS:          0  HIT:          0  MISS:          0
cpu0_L2C WRITEBACK ACCESS:     489440  HIT:     489434  MISS:          6
LLC TOTAL     ACCESS:    1404765  HIT:     129112  MISS:    1275653
LLC LOAD      ACCESS:     454688  HIT:       3555  MISS:     451133
LLC RFO       ACCESS:     460579  HIT:      23333  MISS:     437246
LLC PREFETCH  ACCESS:          0  HIT:          0  MISS:          0
LLC WRITEBACK ACCESS:     489387  HIT:     102138  MISS:     387249
Heartbeat CPU 0 instructions: 98000003 cycles: 84355209 heartbeat IPC: 1.05185 cumulative IPC: 0.668011 (Simulation time: 1 hr 55 min 30 sec) 

Region of Interest Statistics
cpu0_DTLB TOTAL     ACCESS:    7068618  HIT:    7007077  MISS:      61541
cpu0_DTLB LOAD      ACCESS:    5227724  HIT:    5173466  MISS:      54258
cpu0_DTLB RFO       ACCESS:    1840894  HIT:    1833611  MISS:       7283
cpu0_DTLB PREFETCH  ACCESS:          0  HIT:          0  MISS:          0
cpu0_DTLB WRITEBACK ACCESS:          0  HIT:          0  MISS:          0
cpu0_ITLB TOTAL     ACCESS:    3969937  HIT:    3969932  MISS:          5
cpu0_ITLB LOAD      ACCESS:    3969937  HIT:    3969932  MISS:          5
cpu0_ITLB RFO       ACCESS:          0  HIT:          0  MISS:          0
cpu0_ITLB PREFETCH  ACCESS:          0  HIT:          0  MISS:          0
cpu0_ITLB WRITEBACK ACCESS:          0  HIT:          0  MISS:          0
cpu0_L1I TOTAL     ACCESS:         83  HIT:         33  MISS:         50
cpu0_L1I LOAD      ACCESS:         83  HIT:         33  MISS:         50
cpu0_L1I RFO       ACCESS:          0  HIT:          0  MISS:          0
cpu0_L1I PREFETCH  ACCESS:          0  HIT:          0  MISS:          0
cpu0_L1I WRITEBACK ACCESS:          0  HIT:          0  MISS:          0
cpu0_STLB TOTAL     ACCESS:      61546  HIT:       4624  MISS:      56922
cpu0_STLB LOAD      ACCESS:      54263  HIT:       4624  MISS:      49639
cpu0_STLB RFO       ACCESS:       7283  HIT:          0  MISS:       7283
cpu0_STLB PREFETCH  ACCESS:          0  HIT:          0  MISS:          0
cpu0_STLB WRITEBACK ACCESS:          0  HIT:          0  MISS:          0
cpu0_L1D TOTAL     ACCESS:    5555655  HIT:    4613335  MISS:     942320
cpu0_L1D LOAD      ACCESS:    3547333  HIT:    3071046  MISS:     476287
cpu0_L1D RFO       ACCESS:    1951419  HIT:    1485503  MISS:     465916
cpu0_L1D PREFETCH  ACCESS:          0  HIT:          0  MISS:          0
cpu0_L1D WRITEBACK ACCESS:          0  HIT:          0  MISS:          0
cpu0_L2C TOTAL     ACCESS:    1437140  HIT:     494764  MISS:     942376
cpu0_L2C LOAD      ACCESS:     476337  HIT:          0  MISS:     476337
cpu0_L2C RFO       ACCESS:     465916  HIT:          0  MISS:     465916
cpu0_L2C PREFETCH  ACCESS:          0  HIT:          0  MISS:          0
cpu0_L2C WRITEBACK ACCESS:     494770  HIT:     494764  MISS:          6
LLC TOTAL     ACCESS:    1437086  HIT:     129326  MISS:    1307760
LLC LOAD      ACCESS:     476337  HIT:       3764  MISS:     472573
LLC RFO       ACCESS:     465916  HIT:      23333  MISS:     442583
LLC PREFETCH  ACCESS:          0  HIT:          0  MISS:          0
LLC WRITEBACK ACCESS:     494716  HIT:     102138  MISS:     392578
Heartbeat CPU 0 instructions: 100000003 cycles: 86243004 heartbeat IPC: 1.05944 cumulative IPC: 0.678031 (Simulation time: 1 hr 57 min 32 sec) 

Region of Interest Statistics
cpu0_DTLB TOTAL     ACCESS:    7318847  HIT:    7254844  MISS:      64003
cpu0_DTLB LOAD      ACCESS:    5444332  HIT:    5387696  MISS:      56636
cpu0_DTLB RFO       ACCESS:    1874515  HIT:    1867148  MISS:       7367
cpu0_DTLB PREFETCH  ACCESS:          0  HIT:          0  MISS:          0
cpu0_DTLB WRITEBACK ACCESS:          0  HIT:          0  MISS:          0
cpu0_ITLB TOTAL     ACCESS:    4151346  HIT:    4151341  MISS:          5
cpu0_ITLB LOAD      ACCESS:    4151346  HIT:    4151341  MISS:          5
cpu0_ITLB RFO       ACCESS:          0  HIT:          0  MISS:          0
cpu0_ITLB PREFETCH  ACCESS:          0  HIT:          0  MISS:          0
cpu0_ITLB WRITEBACK ACCESS:          0  HIT:          0  MISS:          0
cpu0_L1I TOTAL     ACCESS:         83  HIT:         33  MISS:         50
cpu0_L1I LOAD      ACCESS:         83  HIT:         33  MISS:         50
cpu0_L1I RFO       ACCESS:          0  HIT:          0  MISS:          0
cpu0_L1I PREFETCH  ACCESS:          0  HIT:          0  MISS:          0
cpu0_L1I WRITEBACK ACCESS:          0  HIT:          0  MISS:          0
cpu0_STLB TOTAL     ACCESS:      64008  HIT:       4624  MISS:      59384
cpu0_STLB LOAD      ACCESS:      56641  HIT:       4624  MISS:      52017
cpu0_STLB RFO       ACCESS:       7367  HIT:          0  MISS:       7367
cpu0_STLB PREFETCH  ACCESS:          0  HIT:          0  MISS:          0
cpu0_STLB WRITEBACK ACCESS:          0  HIT:          0  MISS:          0
cpu0_L1D TOTAL     ACCESS:    5776512  HIT:    4807198  MISS:     969314
cpu0_L1D LOAD      ACCESS:    3702863  HIT:    3204927  MISS:     497936
cpu0_L1D RFO       ACCESS:    2014284  HIT:    1543030  MISS:     471254
cpu0_L1D PREFETCH  ACCESS:          0  HIT:          0  MISS:          0
cpu0_L1D WRITEBACK ACCESS:          0  HIT:          0  MISS:          0
cpu0_L2C TOTAL     ACCESS:    1469478  HIT:     500108  MISS:     969370
cpu0_L2C LOAD      ACCESS:     497986  HIT:          0  MISS:     497986
cpu0_L2C RFO       ACCESS:     471254  HIT:          0  MISS:     471254
cpu0_L2C PREFETCH  ACCESS:          0  HIT:          0  MISS:          0
cpu0_L2C WRITEBACK ACCESS:     500114  HIT:     500108  MISS:          6
LLC TOTAL     ACCESS:    1469356  HIT:     129575  MISS:    1339781
LLC LOAD      ACCESS:     497986  HIT:       4008  MISS:     493978
LLC RFO       ACCESS:     471254  HIT:      23333  MISS:     447921
LLC PREFETCH  ACCESS:          0  HIT:          0  MISS:          0
LLC WRITEBACK ACCESS:     499992  HIT:     102138  MISS:     397854
Heartbeat CPU 0 instructions: 102000002 cycles: 88138863 heartbeat IPC: 1.05493 cumulative IPC: 0.687478 (Simulation time: 1 hr 59 min 36 sec) 

Region of Interest Statistics
cpu0_DTLB TOTAL     ACCESS:    7568659  HIT:    7502197  MISS:      66462
cpu0_DTLB LOAD      ACCESS:    5660583  HIT:    5601571  MISS:      59012
cpu0_DTLB RFO       ACCESS:    1908076  HIT:    1900626  MISS:       7450
cpu0_DTLB PREFETCH  ACCESS:          0  HIT:          0  MISS:          0
cpu0_DTLB WRITEBACK ACCESS:          0  HIT:          0  MISS:          0
cpu0_ITLB TOTAL     ACCESS:    4332775  HIT:    4332770  MISS:          5
cpu0_ITLB LOAD      ACCESS:    4332775  HIT:    4332770  MISS:          5
cpu0_ITLB RFO       ACCESS:          0  HIT:          0  MISS:          0
cpu0_ITLB PREFETCH  ACCESS:          0  HIT:          0  MISS:          0
cpu0_ITLB WRITEBACK ACCESS:          0  HIT:          0  MISS:          0
cpu0_L1I TOTAL     ACCESS:         83  HIT:         33  MISS:         50
cpu0_L1I LOAD      ACCESS:         83  HIT:         33  MISS:         50
cpu0_L1I RFO       ACCESS:          0  HIT:          0  MISS:          0
cpu0_L1I PREFETCH  ACCESS:          0  HIT:          0  MISS:          0
cpu0_L1I WRITEBACK ACCESS:          0  HIT:          0  MISS:          0
cpu0_STLB TOTAL     ACCESS:      66467  HIT:       4624  MISS:      61843
cpu0_STLB LOAD      ACCESS:      59017  HIT:       4624  MISS:      54393
cpu0_STLB RFO       ACCESS:       7450  HIT:          0  MISS:       7450
cpu0_STLB PREFETCH  ACCESS:          0  HIT:          0  MISS:          0
cpu0_STLB WRITEBACK ACCESS:          0  HIT:          0  MISS:          0
cpu0_L1D TOTAL     ACCESS:    5998592  HIT:    5002289  MISS:     996303
cpu0_L1D LOAD      ACCESS:    3859475  HIT:    3339892  MISS:     519583
cpu0_L1D RFO       ACCESS:    2077293  HIT:    1600701  MISS:     476592
cpu0_L1D PREFETCH  ACCESS:          0  HIT:          0  MISS:          0
cpu0_L1D WRITEBACK ACCESS:          0  HIT:          0  MISS:          0
cpu0_L2C TOTAL     ACCESS:    1501806  HIT:     505447  MISS:     996359
cpu0_L2C LOAD      ACCESS:     519633  HIT:          0  MISS:     519633
cpu0_L2C RFO       ACCESS:     476592  HIT:          0  MISS:     476592
cpu0_L2C PREFETCH  ACCESS:          0  HIT:          0  MISS:          0
cpu0_L2C WRITEBACK ACCESS:     505453  HIT:     505447  MISS:          6
LLC TOTAL     ACCESS:    1501784  HIT:     129821  MISS:    1371963
LLC LOAD      ACCESS:     519633  HIT:       4250  MISS:     515383
LLC RFO       ACCESS:     476592  HIT:      23333  MISS:     453259
LLC PREFETCH  ACCESS:          0  HIT:          0  MISS:          0
LLC WRITEBACK ACCESS:     505431  HIT:     102138  MISS:     403293
Heartbeat CPU 0 instructions: 104000004 cycles: 90028163 heartbeat IPC: 1.05859 cumulative IPC: 0.696522 (Simulation time: 2 hr 1 min 33 sec) 

Region of Interest Statistics
cpu0_DTLB TOTAL     ACCESS:    7818779  HIT:    7749857  MISS:      68922
cpu0_DTLB LOAD      ACCESS:    5877030  HIT:    5815641  MISS:      61389
cpu0_DTLB RFO       ACCESS:    1941749  HIT:    1934216  MISS:       7533
cpu0_DTLB PREFETCH  ACCESS:          0  HIT:          0  MISS:          0
cpu0_DTLB WRITEBACK ACCESS:          0  HIT:          0  MISS:          0
cpu0_ITLB TOTAL     ACCESS:    4514291  HIT:    4514286  MISS:          5
cpu0_ITLB LOAD      ACCESS:    4514291  HIT:    4514286  MISS:          5
cpu0_ITLB RFO       ACCESS:          0  HIT:          0  MISS:          0
cpu0_ITLB PREFETCH  ACCESS:          0  HIT:          0  MISS:          0
cpu0_ITLB WRITEBACK ACCESS:          0  HIT:          0  MISS:          0
cpu0_L1I TOTAL     ACCESS:         83  HIT:         33  MISS:         50
cpu0_L1I LOAD      ACCESS:         83  HIT:         33  MISS:         50
cpu0_L1I RFO       ACCESS:          0  HIT:          0  MISS:          0
cpu0_L1I PREFETCH  ACCESS:          0  HIT:          0  MISS:          0
cpu0_L1I WRITEBACK ACCESS:          0  HIT:          0  MISS:          0
cpu0_STLB TOTAL     ACCESS:      68927  HIT:       4624  MISS:      64303
cpu0_STLB LOAD      ACCESS:      61394  HIT:       4624  MISS:      56770
cpu0_STLB RFO       ACCESS:       7533  HIT:          0  MISS:       7533
cpu0_STLB PREFETCH  ACCESS:          0  HIT:          0  MISS:          0
cpu0_STLB WRITEBACK ACCESS:          0  HIT:          0  MISS:          0
cpu0_L1D TOTAL     ACCESS:    6219645  HIT:    5196349  MISS:    1023296
cpu0_L1D LOAD      ACCESS:    4015178  HIT:    3473945  MISS:     541233
cpu0_L1D RFO       ACCESS:    2140183  HIT:    1658254  MISS:     481929
cpu0_L1D PREFETCH  ACCESS:          0  HIT:          0  MISS:          0
cpu0_L1D WRITEBACK ACCESS:          0  HIT:          0  MISS:          0
cpu0_L2C TOTAL     ACCESS:    1534137  HIT:     510785  MISS:    1023352
cpu0_L2C LOAD      ACCESS:     541283  HIT:          0  MISS:     541283
cpu0_L2C RFO       ACCESS:     481929  HIT:          0  MISS:     481929
cpu0_L2C PREFETCH  ACCESS:          0  HIT:          0  MISS:          0
cpu0_L2C WRITEBACK ACCESS:     510791  HIT:     510785  MISS:          6
LLC TOTAL     ACCESS:    1534064  HIT:     130068  MISS:    1403996
LLC LOAD      ACCESS:     541283  HIT:       4492  MISS:     536791
LLC RFO       ACCESS:     481929  HIT:      23333  MISS:     458596
LLC PREFETCH  ACCESS:          0  HIT:          0  MISS:          0
LLC WRITEBACK ACCESS:     510718  HIT:     102138  MISS:     408580
Heartbeat CPU 0 instructions: 106000003 cycles: 91918583 heartbeat IPC: 1.05797 cumulative IPC: 0.705125 (Simulation time: 2 hr 3 min 30 sec) 

Region of Interest Statistics
cpu0_DTLB TOTAL     ACCESS:    8068701  HIT:    7997317  MISS:      71384
cpu0_DTLB LOAD      ACCESS:    6093362  HIT:    6029595  MISS:      63767
cpu0_DTLB RFO       ACCESS:    1975339  HIT:    1967722  MISS:       7617
cpu0_DTLB PREFETCH  ACCESS:          0  HIT:          0  MISS:          0
cpu0_DTLB WRITEBACK ACCESS:          0  HIT:          0  MISS:          0
cpu0_ITLB TOTAL     ACCESS:    4695752  HIT:    4695747  MISS:          5
cpu0_ITLB LOAD      ACCESS:    4695752  HIT:    4695747  MISS:          5
cpu0_ITLB RFO       ACCESS:          0  HIT:          0  MISS:          0
cpu0_ITLB PREFETCH  ACCESS:          0  HIT:          0  MISS:          0
cpu0_ITLB WRITEBACK ACCESS:          0  HIT:          0  MISS:          0
cpu0_L1I TOTAL     ACCESS:         83  HIT:         33  MISS:         50
cpu0_L1I LOAD      ACCESS:         83  HIT:         33  MISS:         50
cpu0_L1I RFO       ACCESS:          0  HIT:          0  MISS:          0
cpu0_L1I PREFETCH  ACCESS:          0  HIT:          0  MISS:          0
cpu0_L1I WRITEBACK ACCESS:          0  HIT:          0  MISS:          0
cpu0_STLB TOTAL     ACCESS:      71389  HIT:       4624  MISS:      66765
cpu0_STLB LOAD      ACCESS:      63772  HIT:       4624  MISS:      59148
cpu0_STLB RFO       ACCESS:       7617  HIT:          0  MISS:       7617
cpu0_STLB PREFETCH  ACCESS:          0  HIT:          0  MISS:          0
cpu0_STLB WRITEBACK ACCESS:          0  HIT:          0  MISS:          0
cpu0_L1D TOTAL     ACCESS:    6440952  HIT:    5390662  MISS:    1050290
cpu0_L1D LOAD      ACCESS:    4171051  HIT:    3608169  MISS:     562882
cpu0_L1D RFO       ACCESS:    2203155  HIT:    1715887  MISS:     487268
cpu0_L1D PREFETCH  ACCESS:          0  HIT:          0  MISS:          0
cpu0_L1D WRITEBACK ACCESS:          0  HIT:          0  MISS:          0
cpu0_L2C TOTAL     ACCESS:    1566463  HIT:     516117  MISS:    1050346
cpu0_L2C LOAD      ACCESS:     562932  HIT:          0  MISS:     562932
cpu0_L2C RFO       ACCESS:     487268  HIT:          0  MISS:     487268
cpu0_L2C PREFETCH  ACCESS:          0  HIT:          0  MISS:          0
cpu0_L2C WRITEBACK ACCESS:     516123  HIT:     516117  MISS:          6
LLC TOTAL     ACCESS:    1566330  HIT:     130311  MISS:    1436019
LLC LOAD      ACCESS:     562932  HIT:       4730  MISS:     558202
LLC RFO       ACCESS:     487268  HIT:      23333  MISS:     463935
LLC PREFETCH  ACCESS:          0  HIT:          0  MISS:          0
LLC WRITEBACK ACCESS:     515990  HIT:     102138  MISS:     413852
Heartbeat CPU 0 instructions: 108000001 cycles: 93814140 heartbeat IPC: 1.0551 cumulative IPC: 0.713284 (Simulation time: 2 hr 5 min 32 sec) 

Region of Interest Statistics
cpu0_DTLB TOTAL     ACCESS:    8318581  HIT:    8244738  MISS:      73843
cpu0_DTLB LOAD      ACCESS:    6309679  HIT:    6243536  MISS:      66143
cpu0_DTLB RFO       ACCESS:    2008902  HIT:    2001202  MISS:       7700
cpu0_DTLB PREFETCH  ACCESS:          0  HIT:          0  MISS:          0
cpu0_DTLB WRITEBACK ACCESS:          0  HIT:          0  MISS:          0
cpu0_ITLB TOTAL     ACCESS:    4877228  HIT:    4877223  MISS:          5
cpu0_ITLB LOAD      ACCESS:    4877228  HIT:    4877223  MISS:          5
cpu0_ITLB RFO       ACCESS:          0  HIT:          0  MISS:          0
cpu0_ITLB PREFETCH  ACCESS:          0  HIT:          0  MISS:          0
cpu0_ITLB WRITEBACK ACCESS:          0  HIT:          0  MISS:          0
cpu0_L1I TOTAL     ACCESS:         83  HIT:         33  MISS:         50
cpu0_L1I LOAD      ACCESS:         83  HIT:         33  MISS:         50
cpu0_L1I RFO       ACCESS:          0  HIT:          0  MISS:          0
cpu0_L1I PREFETCH  ACCESS:          0  HIT:          0  MISS:          0
cpu0_L1I WRITEBACK ACCESS:          0  HIT:          0  MISS:          0
cpu0_STLB TOTAL     ACCESS:      73848  HIT:       4624  MISS:      69224
cpu0_STLB LOAD      ACCESS:      66148  HIT:       4624  MISS:      61524
cpu0_STLB RFO       ACCESS:       7700  HIT:          0  MISS:       7700
[...]
cpu0_DTLB TOTAL     ACCESS:  213121505  HIT:  210940747  MISS:    2180758
cpu0_DTLB LOAD      ACCESS:  173505943  HIT:  171387084  MISS:    2118859
cpu0_DTLB RFO       ACCESS:   39615562  HIT:   39553663  MISS:      61899
cpu0_DTLB PREFETCH  ACCESS:          0  HIT:          0  MISS:          0
cpu0_DTLB WRITEBACK ACCESS:          0  HIT:          0  MISS:          0
cpu0_ITLB TOTAL     ACCESS:  143604730  HIT:  143604723  MISS:          7
cpu0_ITLB LOAD      ACCESS:  143604730  HIT:  143604723  MISS:          7
cpu0_ITLB RFO       ACCESS:          0  HIT:          0  MISS:          0
cpu0_ITLB PREFETCH  ACCESS:          0  HIT:          0  MISS:          0
cpu0_ITLB WRITEBACK ACCESS:          0  HIT:          0  MISS:          0
cpu0_L1I TOTAL     ACCESS:     975032  HIT:     974948  MISS:         84
cpu0_L1I LOAD      ACCESS:     975032  HIT:     974948  MISS:         84
cpu0_L1I RFO       ACCESS:          0  HIT:          0  MISS:          0
cpu0_L1I PREFETCH  ACCESS:          0  HIT:          0  MISS:          0
cpu0_L1I WRITEBACK ACCESS:          0  HIT:          0  MISS:          0
cpu0_STLB TOTAL     ACCESS:    2180765  HIT:     159819  MISS:    2020946
cpu0_STLB LOAD      ACCESS:    2118866  HIT:     159780  MISS:    1959086
cpu0_STLB RFO       ACCESS:      61899  HIT:         39  MISS:      61860
cpu0_STLB PREFETCH  ACCESS:          0  HIT:          0  MISS:          0
cpu0_STLB WRITEBACK ACCESS:          0  HIT:          0  MISS:          0
cpu0_L1D TOTAL     ACCESS:  178550208  HIT:  154309120  MISS:   24241088
cpu0_L1D LOAD      ACCESS:  106968142  HIT:   87659370  MISS:   19308772
cpu0_L1D RFO       ACCESS:   69604699  HIT:   64684609  MISS:    4920090
cpu0_L1D PREFETCH  ACCESS:          0  HIT:          0  MISS:          0
cpu0_L1D WRITEBACK ACCESS:          0  HIT:          0  MISS:          0
cpu0_L2C TOTAL     ACCESS:   33269391  HIT:    9040462  MISS:   24228929
cpu0_L2C LOAD      ACCESS:   19308856  HIT:       2328  MISS:   19306528
cpu0_L2C RFO       ACCESS:    4920090  HIT:          0  MISS:    4920090
cpu0_L2C PREFETCH  ACCESS:          0  HIT:          0  MISS:          0
cpu0_L2C WRITEBACK ACCESS:    9028219  HIT:    9028160  MISS:         59
LLC TOTAL     ACCESS:   33258597  HIT:    1595881  MISS:   31662716
LLC LOAD      ACCESS:   19306528  HIT:     326040  MISS:   18980488
LLC RFO       ACCESS:    4920090  HIT:     388541  MISS:    4531549
LLC PREFETCH  ACCESS:          0  HIT:          0  MISS:          0
LLC WRITEBACK ACCESS:    9029727  HIT:     879730  MISS:    8149997
Finished CPU 0 instructions: 1500000000 cycles: 2133988101 cumulative IPC: 0.702909 (Simulation time: 20 hr 39 min 59 sec) 

ChampSim completed all CPUs

Region of Interest Statistics

CPU 0 cumulative IPC: 0.702909 instructions: 1500000000 cycles: 2133988101
cpu0_DTLB TOTAL     ACCESS:  213121505  HIT:  210940747  MISS:    2180758
cpu0_DTLB LOAD      ACCESS:  173505943  HIT:  171387084  MISS:    2118859
cpu0_DTLB RFO       ACCESS:   39615562  HIT:   39553663  MISS:      61899
cpu0_DTLB PREFETCH  ACCESS:          0  HIT:          0  MISS:          0
cpu0_DTLB WRITEBACK ACCESS:          0  HIT:          0  MISS:          0
cpu0_DTLB TRANSLATION ACCESS:          0  HIT:          0  MISS:          0
cpu0_DTLB PREFETCH  REQUESTED:          0  ISSUED:          0  USEFUL:          0  USELESS:          0
cpu0_DTLB AVERAGE MISS LATENCY: 21.6203 cycles
cpu0_ITLB TOTAL     ACCESS:  143604730  HIT:  143604723  MISS:          7
cpu0_ITLB LOAD      ACCESS:  143604730  HIT:  143604723  MISS:          7
cpu0_ITLB RFO       ACCESS:          0  HIT:          0  MISS:          0
cpu0_ITLB PREFETCH  ACCESS:          0  HIT:          0  MISS:          0
cpu0_ITLB WRITEBACK ACCESS:          0  HIT:          0  MISS:          0
cpu0_ITLB TRANSLATION ACCESS:          0  HIT:          0  MISS:          0
cpu0_ITLB PREFETCH  REQUESTED:          0  ISSUED:          0  USEFUL:          0  USELESS:          0
cpu0_ITLB AVERAGE MISS LATENCY: 249.286 cycles
cpu0_L1I TOTAL     ACCESS:     975032  HIT:     974948  MISS:         84
cpu0_L1I LOAD      ACCESS:     975032  HIT:     974948  MISS:         84
cpu0_L1I RFO       ACCESS:          0  HIT:          0  MISS:          0
cpu0_L1I PREFETCH  ACCESS:          0  HIT:          0  MISS:          0
cpu0_L1I WRITEBACK ACCESS:          0  HIT:          0  MISS:          0
cpu0_L1I TRANSLATION ACCESS:          0  HIT:          0  MISS:          0
cpu0_L1I PREFETCH  REQUESTED:          0  ISSUED:          0  USEFUL:          0  USELESS:          0
cpu0_L1I AVERAGE MISS LATENCY: 361.619 cycles
cpu0_STLB TOTAL     ACCESS:    2180765  HIT:     159819  MISS:    2020946
cpu0_STLB LOAD      ACCESS:    2118866  HIT:     159780  MISS:    1959086
cpu0_STLB RFO       ACCESS:      61899  HIT:         39  MISS:      61860
cpu0_STLB PREFETCH  ACCESS:          0  HIT:          0  MISS:          0
cpu0_STLB WRITEBACK ACCESS:          0  HIT:          0  MISS:          0
cpu0_STLB TRANSLATION ACCESS:          0  HIT:          0  MISS:          0
cpu0_STLB PREFETCH  REQUESTED:          0  ISSUED:          0  USEFUL:          0  USELESS:          0
cpu0_STLB AVERAGE MISS LATENCY: 13.6182 cycles
cpu0_L1D TOTAL     ACCESS:  178550208  HIT:  154309120  MISS:   24241088
cpu0_L1D LOAD      ACCESS:  106968142  HIT:   87659370  MISS:   19308772
cpu0_L1D RFO       ACCESS:   69604699  HIT:   64684609  MISS:    4920090
cpu0_L1D PREFETCH  ACCESS:          0  HIT:          0  MISS:          0
cpu0_L1D WRITEBACK ACCESS:          0  HIT:          0  MISS:          0
cpu0_L1D TRANSLATION ACCESS:    1977367  HIT:    1965141  MISS:      12226
cpu0_L1D PREFETCH  REQUESTED:          0  ISSUED:          0  USEFUL:          0  USELESS:          0
cpu0_L1D AVERAGE MISS LATENCY: 314.047 cycles
cpu0_L2C TOTAL     ACCESS:   33269391  HIT:    9040462  MISS:   24228929
cpu0_L2C LOAD      ACCESS:   19308856  HIT:       2328  MISS:   19306528
cpu0_L2C RFO       ACCESS:    4920090  HIT:          0  MISS:    4920090
cpu0_L2C PREFETCH  ACCESS:          0  HIT:          0  MISS:          0
cpu0_L2C WRITEBACK ACCESS:    9028219  HIT:    9028160  MISS:         59
cpu0_L2C TRANSLATION ACCESS:      12226  HIT:       9974  MISS:       2252
cpu0_L2C PREFETCH  REQUESTED:          0  ISSUED:          0  USEFUL:          0  USELESS:          0
cpu0_L2C AVERAGE MISS LATENCY: 303.191 cycles
LLC TOTAL     ACCESS:   33258597  HIT:    1595881  MISS:   31662716
LLC LOAD      ACCESS:   19306528  HIT:     326040  MISS:   18980488
LLC RFO       ACCESS:    4920090  HIT:     388541  MISS:    4531549
LLC PREFETCH  ACCESS:          0  HIT:          0  MISS:          0
LLC WRITEBACK ACCESS:    9029727  HIT:     879730  MISS:    8149997
LLC TRANSLATION ACCESS:       2252  HIT:       1570  MISS:        682
LLC PREFETCH  REQUESTED:          0  ISSUED:          0  USEFUL:          0  USELESS:          0
LLC AVERAGE MISS LATENCY: 215.938 cycles
~~~~~~~~~~Reuse Distance Profiler output~~~~~~~~~~
0	55099424	11103104
1	14385472	10415760
2	23768608	22075744
3	11122032	10128848
4	6203856	4848944
5	4718800	3930800
6	4034192	3295936
7	3745424	2461184
8	2839440	1886928
9	3452048	2405456
10	1404480	532384
11	1602464	1139408
12	839904	674896
13	647904	498880
14	409696	292064
15	808144	508960
16	675680	625360
17	727456	635088
18	680848	561104
19	882608	572720
20	604768	497552
21	695520	378656
22	323888	184816
23	569872	210960
24	598864	184704
25	597296	264048
26	549632	405312
27	650704	261856
28	338720	214800
29	632688	416080
30	679776	538608
31	927520	838736
32	862624	635344
33	234064	144912
34	462192	293824
35	407856	358352
36	194624	122784
37	255488	66000
38	256336	85872
39	162384	77392
40	139968	46016
41	101312	20816
42	145920	46448
43	153120	17488
44	257488	121840
45	310368	25600
46	120304	544
47	111248	7088
48	155120	4080
49	109200	4192
50	134480	9296
51	258704	65600
52	271568	143552
53	92576	12032
54	146512	41648
55	94432	25936
56	261184	53424
57	242000	47648
58	173264	87008
59	355552	229312
60	359744	308480
61	359008	240048
62	157680	78064
63	242208	225776
64	230288	95744
66	77680	30848
68	131168	85760
70	110624	40096
72	412560	363376
74	538864	531808
76	551904	448976
78	365216	301696
80	566704	561696
82	512800	510464
84	578208	515808
86	452544	346944
88	288160	158832
90	230880	122944
92	147888	137840
94	141520	74640
96	67136	42992
98	23168	17152
100	18784	17440
102	22240	20848
104	25056	24672
106	101072	101024
108	22896	22752
110	34576	34560
112	499408	499408
114	41984	41984
116	109808	109808
118	21136	21136
120	117008	117008
122	695936	695904
124	203920	203920
126	64032	51600
128	64384	39520
132	31552	21072
136	960	944
140	32	32
144	16	0
148	23552	0
152	13296	0
156	10064	0
160	11088	0
164	37040	0
168	35824	0
172	11536	16
176	288	288
180	59008	59008
184	83328	83328
188	115120	115120
192	16736	16736
196	0	0
200	0	0
204	0	0
208	0	0
212	0	0
216	0	0
220	0	0
224	0	0
228	0	0
232	0	0
236	0	0
240	0	0
244	0	0
248	0	0
252	0	0
256	0	0
264	16	16
272	3472	3472
280	2784	2784
288	4656	4656
296	384	384
304	384	384
312	80	80
320	32	32
328	0	0
336	0	0
344	0	0
352	0	0
360	0	0
368	0	0
376	0	0
384	0	0
392	0	0
400	0	0
408	0	0
416	0	0
424	0	0
432	0	0
440	0	0
448	0	0
456	0	0
464	0	0
472	0	0
480	0	0
488	0	0
496	0	0
504	0	0
512	0	0
528	0	0
544	0	0
560	0	0
576	0	0
592	0	0
608	0	0
624	0	0
640	0	0
656	0	0
672	0	0
688	0	0
704	0	0
720	0	0
736	0	0
752	0	0
768	0	0
784	0	0
800	0	0
816	0	0
832	0	0
848	0	0
864	0	0
880	0	0
896	0	0
912	0	0
928	0	0
944	0	0
960	0	0
976	0	0
992	0	0
1008	0	0
1024	0	0
1056	0	0
1088	0	0
1120	0	0
1152	0	0
1184	0	0
1216	0	0
1248	0	0
1280	0	0
1312	0	0
1344	0	0
1376	0	0
1408	0	0
1440	0	0
1472	0	0
1504	0	0
1536	0	0
1568	0	0
1600	0	0
1632	0	0
1664	0	0
1696	0	0
1728	0	0
1760	0	0
1792	0	0
1824	0	0
1856	0	0
1888	0	0
1920	0	0
1952	0	0
1984	0	0
2016	0	0
2048	0	0
2112	0	0
2176	0	0
2240	0	0
2304	0	0
2368	0	0
2432	0	0
2496	0	0
2560	0	0
2624	0	0
2688	0	0
2752	0	0
2816	0	0
2880	0	0
2944	0	0
3008	0	0
3072	0	0
3136	0	0
3200	0	0
3264	0	0
3328	0	0
3392	0	0
3456	0	0
3520	0	0
3584	0	0
3648	0	0
3712	0	0
3776	0	0
3840	0	0
3904	0	0
3968	0	0
4032	0	0
4096	0	0
4224	0	0
4352	0	0
4480	0	0
4608	0	0
4736	0	0
4864	0	0
4992	0	0
5120	0	0
5248	0	0
5376	0	0
5504	0	0
5632	0	0
5760	0	0
5888	0	0
6016	0	0
6144	0	0
6272	432	432
6400	464	464
6528	0	0
6656	0	0
6784	0	0
6912	0	0
7040	0	0
7168	0	0
7296	0	0
7424	0	0
7552	0	0
7680	0	0
7808	0	0
7936	0	0
8064	0	0
8192	0	0
8448	0	0
8704	0	0
8960	0	0
9216	0	0
9472	0	0
9728	0	0
9984	0	0
10240	0	0
10496	0	0
10752	0	0
11008	0	0
11264	0	0
11520	0	0
11776	0	0
12032	192	192
12288	1696	1696
12544	0	0
12800	0	0
13056	0	0
13312	0	0
13568	0	0
13824	0	0
14080	0	0
14336	0	0
14592	0	0
14848	0	0
15104	0	0
15360	0	0
15616	0	0
15872	0	0
16128	0	0
16384	0	0
16896	0	0
17408	0	0
17920	0	0
18432	0	0
18944	0	0
19456	0	0
19968	0	0
20480	0	0
20992	0	0
21504	0	0
22016	0	0
22528	0	0
23040	0	0
23552	0	0
24064	0	0
24576	0	0
25088	0	0
25600	0	0
26112	0	0
26624	0	0
27136	0	0
27648	0	0
28160	0	0
28672	0	0
29184	0	0
29696	0	0
30208	0	0
30720	0	0
31232	0	0
31744	0	0
32256	0	0
32768	0	0
33792	0	0
34816	0	0
35840	0	0
36864	0	0
37888	0	0
38912	0	0
39936	0	0
40960	0	0
41984	0	0
43008	0	0
44032	0	0
45056	0	0
46080	0	0
47104	0	0
48128	0	0
49152	0	0
50176	0	0
51200	0	0
52224	0	0
53248	0	0
54272	0	0
55296	0	0
56320	0	0
57344	0	0
58368	0	0
59392	0	0
60416	0	0
61440	0	0
62464	0	0
63488	0	0
64512	0	0
65536	0	0
67584	0	0
69632	0	0
71680	0	0
73728	0	0
75776	0	0
77824	0	0
79872	0	0
81920	0	0
83968	0	0
86016	0	0
88064	0	0
90112	0	0
92160	0	0
94208	0	0
96256	0	0
98304	0	0
100352	0	0
102400	0	0
104448	0	0
106496	0	0
108544	0	0
110592	0	0
112640	0	0
114688	0	0
116736	0	0
118784	0	0
120832	0	0
122880	0	0
124928	0	0
126976	0	0
129024	0	0
131072	0	0
135168	0	0
139264	0	0
143360	0	0
147456	0	0
151552	0	0
155648	0	0
159744	0	0
163840	0	0
167936	0	0
172032	0	0
176128	0	0
180224	0	0
184320	0	0
188416	0	0
192512	0	0
196608	0	0
200704	0	0
204800	0	0
208896	0	0
212992	0	0
217088	0	0
221184	0	0
225280	0	0
229376	0	0
233472	0	0
237568	0	0
241664	0	0
245760	0	0
249856	0	0
253952	0	0
258048	0	0
262144	0	0
270336	0	0
278528	0	0
286720	0	0
294912	0	0
303104	0	0
311296	0	0
319488	0	0
327680	0	0
335872	0	0
344064	0	0
352256	32	32
360448	0	0
368640	0	0
376832	0	0
385024	0	0
393216	0	0
401408	0	0
409600	0	0
417792	0	0
425984	0	0
434176	0	0
442368	0	0
450560	0	0
458752	0	0
466944	0	0
475136	0	0
483328	0	0
491520	0	0
499712	0	0
507904	0	0
516096	48	32
524288	272	208
540672	560	480
557056	864	448
573440	864	512
589824	592	336
606208	864	464
622592	976	512
638976	736	480
655360	1600	1248
671744	1616	1200
688128	1472	1104
704512	1440	1168
720896	1392	1136
737280	1392	1152
753664	1680	1328
770048	2000	1584
786432	3536	3152
802816	3344	2928
819200	3344	3040
835584	3296	2944
851968	2848	2544
868352	768	544
884736	816	496
901120	2224	464
917504	3072	448
933888	3184	528
950272	3232	544
966656	3216	464
983040	3264	544
999424	3104	592
1015808	3280	592
1032192	2944	352
1048576	6528	976
1081344	6576	1216
1114112	7200	1232
1146880	6864	1376
1179648	6352	1152
1212416	15552	10416
1245184	8784	3360
1277952	8864	3744
1310720	8752	3456
1343488	8816	3456
1376256	8800	3520
1409024	6640	1152
1441792	6816	1424
1474560	6496	1088
1507328	6624	1088
1540096	6480	1184
1572864	6672	1392
1605632	6496	1248
1638400	6400	1104
1671168	6576	1248
1703936	6528	1344
1736704	6816	1216
1769472	6784	1136
1802240	6816	1312
1835008	6720	1280
1867776	6368	1232
1900544	6464	1120
1933312	6208	928
1966080	6400	1136
1998848	6448	1184
2031616	6608	1200
2064384	6544	1168
2097152	12896	2304
2162688	12736	2096
2228224	12784	2016
2293760	12816	2480
2359296	12544	2016
2424832	12768	2352
2490368	12624	2000
2555904	13248	2560
2621440	13248	2448
2686976	13072	2384
2752512	12560	2224
2818048	12720	2192
2883584	12384	2080
2949120	12768	2016
3014656	12448	1984
3080192	16240	5824
3145728	18128	7760
3211264	18496	7600
3276800	17984	7376
3342336	18704	7856
3407872	19472	8960
3473408	20640	10480
3538944	21344	10640
3604480	21424	10704
3670016	20960	10336
3735552	20896	10496
3801088	21280	10480
3866624	20944	10672
3932160	20608	10128
3997696	21488	10768
4063232	21392	10640
4128768	20768	10256
4194304	42320	20672
4325376	42176	21232
4456448	43728	21648
4587520	42416	21808
4718592	42368	21408
4849664	42176	21072
4980736	42896	21344
5111808	40752	20576
5242880	39792	19792
5373952	44144	23888
5505024	49856	29568
5636096	62064	42016
5767168	76000	55632
5898240	517456	497488
6029312	302720	283248
6160384	320384	300336
6291456	101808	81872
6422528	544192	524144
6553600	683856	663984
6684672	413232	392736
6815744	129312	109552
6946816	237440	217376
7077888	727376	707344
7208960	368688	348944
7340032	701408	681552
7471104	328640	309104
7602176	248960	228416
7733248	247792	227424
7864320	179056	159280
7995392	92576	72304
8126464	124784	104864
8257536	135776	115872
8388608	241312	200784
8650752	236240	196752
8912896	226112	186032
9175040	681616	641888
9437184	249952	209728
9699328	459376	419296
9961472	436320	397360
10223616	161088	121952
10485760	130800	91472
10747904	108688	69568
11010048	112960	74096
11272192	98480	58160
11534336	95296	55712
11796480	96240	57056
12058624	95200	56896
12320768	101536	63328
12582912	143248	104800
12845056	352160	314256
13107200	415376	365792
13369344	248048	192320
13631488	196496	128400
13893632	190960	134912
14155776	104624	50912
14417920	104912	50176
14680064	98768	49952
14942208	94592	47936
15204352	89952	49872
15466496	91024	59664
15728640	63504	52112
15990784	78368	48736
16252928	84304	50704
16515072	83296	44272
16777216	155840	76784
17301504	223728	143008
17825792	247984	168176
18350080	181680	151216
18874368	276320	126672
19398656	305376	59696
19922944	389376	271456
20447232	355008	335696
20971520	150448	119232
21495808	127920	87216
22020096	123520	83456
22544384	124032	82896
23068672	167664	127008
23592960	166624	125856
24117248	153824	119536
24641536	276080	241328
25165824	302384	262384
25690112	357776	324800
26214400	437824	400960
26738688	423728	382512
27262976	223408	179984
27787264	97952	55168
28311552	89936	47248
28835840	88128	45968
29360128	70960	40352
29884416	59488	36880
30408704	71600	48208
30932992	44832	35536
31457280	38720	36000
31981568	38608	35184
32505856	31600	29024
33030144	50192	48304
33554432	218992	216192
34603008	224576	220448
35651584	217904	213904
36700160	210864	207584
37748736	118528	117088
38797312	912	0
39845888	560	0
40894464	10112	10112
41943040	0	0
42991616	0	0
44040192	16	0
45088768	0	0
46137344	0	0
47185920	0	0
48234496	0	0
49283072	0	0
50331648	0	0
51380224	0	0
52428800	0	0
53477376	0	0
54525952	0	0
55574528	0	0
56623104	0	0
57671680	85360	85360
58720256	141792	141792
59768832	0	0
60817408	0	0
61865984	0	0
62914560	0	0
63963136	0	0
65011712	11744	11744
66060288	0	0
67108864	0	0
69206016	0	0
71303168	223520	223520
73400320	0	0
75497472	0	0
77594624	12256	12256
79691776	0	0
81788928	0	0
83886080	0	0
85983232	0	0
88080384	0	0
90177536	0	0
92274688	0	0
94371840	0	0
96468992	191648	191648
98566144	288976	288976
100663296	0	0
102760448	0	0
104857600	0	0
106954752	0	0
109051904	0	0
111149056	0	0
113246208	0	0
115343360	0	0
117440512	10992	10992
119537664	0	0
121634816	9616	9616
123731968	0	0
125829120	0	0
127926272	0	0
130023424	0	0
132120576	0	0
134217728	0	0
138412032	0	0
142606336	0	0
146800640	0	0
150994944	0	0
155189248	0	0
159383552	0	0
163577856	0	0
167772160	0	0
171966464	0	0
176160768	0	0
180355072	0	0
184549376	0	0
188743680	0	0
192937984	0	0
197132288	0	0
201326592	0	0
205520896	0	0
209715200	0	0
213909504	0	0
218103808	0	0
222298112	0	0
226492416	0	0
230686720	0	0
234881024	0	0
239075328	0	0
243269632	0	0
247463936	0	0
251658240	0	0
255852544	0	0
260046848	0	0
264241152	0	0
268435456	0	0
276824064	0	0
285212672	0	0
293601280	0	0
301989888	0	0
310378496	0	0
318767104	0	0
327155712	0	0
335544320	0	0
343932928	0	0
352321536	0	0
360710144	0	0
369098752	0	0
377487360	0	0
385875968	0	0
394264576	0	0
402653184	0	0
411041792	0	0
419430400	0	0
427819008	0	0
436207616	0	0
444596224	0	0
452984832	0	0
461373440	0	0
469762048	0	0
478150656	0	0
486539264	0	0
494927872	0	0
503316480	0	0
511705088	0	0
520093696	0	0
528482304	0	0
536870912	0	0
553648128	0	0
570425344	0	0
587202560	0	0
603979776	0	0
620756992	0	0
637534208	0	0
654311424	0	0
671088640	0	0
687865856	0	0
704643072	0	0
721420288	0	0
738197504	0	0
754974720	0	0
771751936	0	0
788529152	0	0
805306368	0	0
822083584	0	0
838860800	0	0
855638016	0	0
872415232	0	0
889192448	0	0
905969664	0	0
922746880	0	0
939524096	0	0
956301312	0	0
973078528	0	0
989855744	0	0
1006632960	0	0
1023410176	0	0
1040187392	0	0
1056964608	0	0
1073741824	0	0
1107296256	0	0
1140850688	0	0
1174405120	0	0
1207959552	0	0
1241513984	0	0
1275068416	0	0
1308622848	0	0
1342177280	0	0
1375731712	0	0
1409286144	0	0
1442840576	0	0
1476395008	0	0
1509949440	0	0
1543503872	0	0
1577058304	0	0
1610612736	0	0
1644167168	0	0
1677721600	0	0
1711276032	0	0
1744830464	0	0
1778384896	0	0
1811939328	0	0
1845493760	0	0
1879048192	0	0
1912602624	0	0
1946157056	0	0
1979711488	0	0
2013265920	0	0
2046820352	0	0
2080374784	0	0
2113929216	0	0
2147483648	0	0
2214592512	0	0
2281701376	0	0
2348810240	0	0
2415919104	0	0
2483027968	0	0
2550136832	0	0
2617245696	0	0
2684354560	0	0
2751463424	0	0
2818572288	0	0
2885681152	0	0
2952790016	0	0
3019898880	0	0
3087007744	0	0
3154116608	0	0
3221225472	0	0
3288334336	0	0
3355443200	0	0
3422552064	0	0
3489660928	0	0
3556769792	0	0
3623878656	0	0
3690987520	0	0
3758096384	0	0
3825205248	0	0
3892314112	0	0
3959422976	0	0
4026531840	0	0
4093640704	0	0
4160749568	0	0
4227858432	0	0
~~~~~~~~~~Reuse Distance Profiler output end~~~~~~~~~~

Sampler size:198834

DRAM Statistics
 CHANNEL 0
 RQ ROW_BUFFER_HIT:    2356498  ROW_BUFFER_MISS:   21156132
 DBUS AVG_CONGESTED_CYCLE:    3.96342
 WQ ROW_BUFFER_HIT:     632396  ROW_BUFFER_MISS:    8097237  FULL:      49991


CPU 0 Branch Prediction Accuracy: 51.4793% MPKI: 18.2857 Average ROB Occupancy at Mispredict: 147.11
Branch type MPKI
BRANCH_DIRECT_JUMP: 6.66667e-06
BRANCH_INDIRECT: 0
BRANCH_CONDITIONAL: 18.2856
BRANCH_DIRECT_CALL: 1.73333e-05
BRANCH_INDIRECT_CALL: 0
BRANCH_RETURN: 1.73333e-05

