
*** ChampSim Multicore Out-of-Order Simulator ***

Warmup Instructions: 50000000
Simulation Instructions: 1500000000
Number of CPUs: 1
Off-chip DRAM Size: 4 GiB Channels: 1 Width: 64-bit Data Rate: 3200 MT/s

VirtualMemory physical capacity: 8588881920 num_ppages: 2096895
VirtualMemory page size: 4096 log2_page_size: 12

CPU 0 runs /s/traces/champsim_traces/437.leslie3d-273B.champsimtrace.xz
CPU 0 Bimodal branch predictor
Basic BTB sets: 1024 ways: 8 indirect buffer size: 4096 RAS size: 64
Initializing LRU.
Initializing LRU.
Initializing LRU.
Initializing LRU.
Initializing rdLRU.
Initializing LRU.
Initializing mockingjay of size: 4096
Heartbeat CPU 0 instructions: 2000003 cycles: 758124 heartbeat IPC: 2.63809 cumulative IPC: 2.63809 (Simulation time: 0 hr 1 min 48 sec) 
Heartbeat CPU 0 instructions: 4000002 cycles: 1516141 heartbeat IPC: 2.63846 cumulative IPC: 2.63828 (Simulation time: 0 hr 3 min 36 sec) 
Heartbeat CPU 0 instructions: 6000001 cycles: 2274087 heartbeat IPC: 2.63871 cumulative IPC: 2.63842 (Simulation time: 0 hr 5 min 21 sec) 
Heartbeat CPU 0 instructions: 8000004 cycles: 3031894 heartbeat IPC: 2.6392 cumulative IPC: 2.63862 (Simulation time: 0 hr 7 min 6 sec) 
Heartbeat CPU 0 instructions: 10000001 cycles: 3789748 heartbeat IPC: 2.63903 cumulative IPC: 2.6387 (Simulation time: 0 hr 8 min 51 sec) 
Heartbeat CPU 0 instructions: 12000000 cycles: 4547329 heartbeat IPC: 2.63998 cumulative IPC: 2.63891 (Simulation time: 0 hr 10 min 35 sec) 
Heartbeat CPU 0 instructions: 14000004 cycles: 5304585 heartbeat IPC: 2.64112 cumulative IPC: 2.63923 (Simulation time: 0 hr 12 min 21 sec) 
Heartbeat CPU 0 instructions: 16000004 cycles: 6061863 heartbeat IPC: 2.64104 cumulative IPC: 2.63945 (Simulation time: 0 hr 14 min 9 sec) 
Heartbeat CPU 0 instructions: 18000000 cycles: 6819324 heartbeat IPC: 2.64039 cumulative IPC: 2.63956 (Simulation time: 0 hr 15 min 53 sec) 
Heartbeat CPU 0 instructions: 20000000 cycles: 7503024 heartbeat IPC: 2.92526 cumulative IPC: 2.66559 (Simulation time: 0 hr 17 min 23 sec) 
Heartbeat CPU 0 instructions: 22000003 cycles: 8286380 heartbeat IPC: 2.55312 cumulative IPC: 2.65496 (Simulation time: 0 hr 19 min 9 sec) 
Heartbeat CPU 0 instructions: 24000000 cycles: 9069738 heartbeat IPC: 2.55311 cumulative IPC: 2.64616 (Simulation time: 0 hr 20 min 55 sec) 
Heartbeat CPU 0 instructions: 26000001 cycles: 9852426 heartbeat IPC: 2.5553 cumulative IPC: 2.63894 (Simulation time: 0 hr 22 min 43 sec) 
Heartbeat CPU 0 instructions: 28000001 cycles: 10635783 heartbeat IPC: 2.55311 cumulative IPC: 2.63262 (Simulation time: 0 hr 24 min 28 sec) 
Heartbeat CPU 0 instructions: 30000003 cycles: 11419143 heartbeat IPC: 2.55311 cumulative IPC: 2.62717 (Simulation time: 0 hr 26 min 15 sec) 
Heartbeat CPU 0 instructions: 32000000 cycles: 12202499 heartbeat IPC: 2.55311 cumulative IPC: 2.62241 (Simulation time: 0 hr 28 min 0 sec) 
Heartbeat CPU 0 instructions: 34000001 cycles: 12985855 heartbeat IPC: 2.55312 cumulative IPC: 2.61823 (Simulation time: 0 hr 29 min 44 sec) 
Heartbeat CPU 0 instructions: 36000003 cycles: 13769214 heartbeat IPC: 2.55311 cumulative IPC: 2.61453 (Simulation time: 0 hr 31 min 27 sec) 
Heartbeat CPU 0 instructions: 38000000 cycles: 14552571 heartbeat IPC: 2.55311 cumulative IPC: 2.61122 (Simulation time: 0 hr 33 min 11 sec) 
Heartbeat CPU 0 instructions: 40000000 cycles: 15335929 heartbeat IPC: 2.55311 cumulative IPC: 2.60825 (Simulation time: 0 hr 34 min 48 sec) 
Heartbeat CPU 0 instructions: 42000003 cycles: 16119286 heartbeat IPC: 2.55312 cumulative IPC: 2.60557 (Simulation time: 0 hr 36 min 19 sec) 
Heartbeat CPU 0 instructions: 44000004 cycles: 16902647 heartbeat IPC: 2.5531 cumulative IPC: 2.60314 (Simulation time: 0 hr 37 min 59 sec) 
Heartbeat CPU 0 instructions: 46000001 cycles: 17685332 heartbeat IPC: 2.5553 cumulative IPC: 2.60103 (Simulation time: 0 hr 39 min 38 sec) 
Heartbeat CPU 0 instructions: 48000003 cycles: 18468692 heartbeat IPC: 2.55311 cumulative IPC: 2.59899 (Simulation time: 0 hr 41 min 18 sec) 
Heartbeat CPU 0 instructions: 50000002 cycles: 19252047 heartbeat IPC: 2.55312 cumulative IPC: 2.59713 (Simulation time: 0 hr 42 min 59 sec) 

Warmup complete CPU 0 instructions: 50000002 cycles: 19252047 (Simulation time: 0 hr 42 min 59 sec) 

Heartbeat CPU 0 instructions: 52000004 cycles: 20947857 heartbeat IPC: 1.17938 cumulative IPC: 1.17938 (Simulation time: 0 hr 45 min 37 sec) 

Region of Interest Statistics
cpu0_DTLB TOTAL     ACCESS:     372488  HIT:     372308  MISS:        180
cpu0_DTLB LOAD      ACCESS:     360161  HIT:     360071  MISS:         90
cpu0_DTLB RFO       ACCESS:      12327  HIT:      12237  MISS:         90
cpu0_DTLB PREFETCH  ACCESS:          0  HIT:          0  MISS:          0
cpu0_DTLB WRITEBACK ACCESS:          0  HIT:          0  MISS:          0
cpu0_ITLB TOTAL     ACCESS:       8571  HIT:       8571  MISS:          0
cpu0_ITLB LOAD      ACCESS:       8571  HIT:       8571  MISS:          0
cpu0_ITLB RFO       ACCESS:          0  HIT:          0  MISS:          0
cpu0_ITLB PREFETCH  ACCESS:          0  HIT:          0  MISS:          0
cpu0_ITLB WRITEBACK ACCESS:          0  HIT:          0  MISS:          0
cpu0_L1I TOTAL     ACCESS:         36  HIT:         36  MISS:          0
cpu0_L1I LOAD      ACCESS:         36  HIT:         36  MISS:          0
cpu0_L1I RFO       ACCESS:          0  HIT:          0  MISS:          0
cpu0_L1I PREFETCH  ACCESS:          0  HIT:          0  MISS:          0
cpu0_L1I WRITEBACK ACCESS:          0  HIT:          0  MISS:          0
cpu0_STLB TOTAL     ACCESS:        180  HIT:          3  MISS:        177
cpu0_STLB LOAD      ACCESS:         90  HIT:          3  MISS:         87
cpu0_STLB RFO       ACCESS:         90  HIT:          0  MISS:         90
cpu0_STLB PREFETCH  ACCESS:          0  HIT:          0  MISS:          0
cpu0_STLB WRITEBACK ACCESS:          0  HIT:          0  MISS:          0
cpu0_L1D TOTAL     ACCESS:     477527  HIT:     466466  MISS:      11061
cpu0_L1D LOAD      ACCESS:     469642  HIT:     464108  MISS:       5534
cpu0_L1D RFO       ACCESS:       7708  HIT:       2181  MISS:       5527
cpu0_L1D PREFETCH  ACCESS:          0  HIT:          0  MISS:          0
cpu0_L1D WRITEBACK ACCESS:          0  HIT:          0  MISS:          0
cpu0_L2C TOTAL     ACCESS:      16588  HIT:       5532  MISS:      11056
cpu0_L2C LOAD      ACCESS:       5534  HIT:          5  MISS:       5529
cpu0_L2C RFO       ACCESS:       5527  HIT:          0  MISS:       5527
cpu0_L2C PREFETCH  ACCESS:          0  HIT:          0  MISS:          0
cpu0_L2C WRITEBACK ACCESS:       5527  HIT:       5527  MISS:          0
LLC TOTAL     ACCESS:      16981  HIT:         84  MISS:      16897
LLC LOAD      ACCESS:       5529  HIT:          1  MISS:       5528
LLC RFO       ACCESS:       5527  HIT:          0  MISS:       5527
LLC PREFETCH  ACCESS:          0  HIT:          0  MISS:          0
LLC WRITEBACK ACCESS:       5925  HIT:         83  MISS:       5842
Heartbeat CPU 0 instructions: 54000003 cycles: 22586777 heartbeat IPC: 1.22032 cumulative IPC: 1.1995 (Simulation time: 0 hr 48 min 6 sec) 

Region of Interest Statistics
cpu0_DTLB TOTAL     ACCESS:     744851  HIT:     744493  MISS:        358
cpu0_DTLB LOAD      ACCESS:     720249  HIT:     720071  MISS:        178
cpu0_DTLB RFO       ACCESS:      24602  HIT:      24422  MISS:        180
cpu0_DTLB PREFETCH  ACCESS:          0  HIT:          0  MISS:          0
cpu0_DTLB WRITEBACK ACCESS:          0  HIT:          0  MISS:          0
cpu0_ITLB TOTAL     ACCESS:      17123  HIT:      17123  MISS:          0
cpu0_ITLB LOAD      ACCESS:      17123  HIT:      17123  MISS:          0
cpu0_ITLB RFO       ACCESS:          0  HIT:          0  MISS:          0
cpu0_ITLB PREFETCH  ACCESS:          0  HIT:          0  MISS:          0
cpu0_ITLB WRITEBACK ACCESS:          0  HIT:          0  MISS:          0
cpu0_L1I TOTAL     ACCESS:         72  HIT:         72  MISS:          0
cpu0_L1I LOAD      ACCESS:         72  HIT:         72  MISS:          0
cpu0_L1I RFO       ACCESS:          0  HIT:          0  MISS:          0
cpu0_L1I PREFETCH  ACCESS:          0  HIT:          0  MISS:          0
cpu0_L1I WRITEBACK ACCESS:          0  HIT:          0  MISS:          0
cpu0_STLB TOTAL     ACCESS:        358  HIT:          4  MISS:        354
cpu0_STLB LOAD      ACCESS:        178  HIT:          4  MISS:        174
cpu0_STLB RFO       ACCESS:        180  HIT:          0  MISS:        180
cpu0_STLB PREFETCH  ACCESS:          0  HIT:          0  MISS:          0
cpu0_STLB WRITEBACK ACCESS:          0  HIT:          0  MISS:          0
cpu0_L1D TOTAL     ACCESS:     954669  HIT:     932546  MISS:      22123
cpu0_L1D LOAD      ACCESS:     939176  HIT:     928108  MISS:      11068
cpu0_L1D RFO       ACCESS:      15138  HIT:       4083  MISS:      11055
cpu0_L1D PREFETCH  ACCESS:          0  HIT:          0  MISS:          0
cpu0_L1D WRITEBACK ACCESS:          0  HIT:          0  MISS:          0
cpu0_L2C TOTAL     ACCESS:      33179  HIT:      11067  MISS:      22112
cpu0_L2C LOAD      ACCESS:      11068  HIT:         11  MISS:      11057
cpu0_L2C RFO       ACCESS:      11055  HIT:          0  MISS:      11055
cpu0_L2C PREFETCH  ACCESS:          0  HIT:          0  MISS:          0
cpu0_L2C WRITEBACK ACCESS:      11056  HIT:      11056  MISS:          0
LLC TOTAL     ACCESS:      33496  HIT:        180  MISS:      33316
LLC LOAD      ACCESS:      11057  HIT:          1  MISS:      11056
LLC RFO       ACCESS:      11055  HIT:          0  MISS:      11055
LLC PREFETCH  ACCESS:          0  HIT:          0  MISS:          0
LLC WRITEBACK ACCESS:      11384  HIT:        179  MISS:      11205
Heartbeat CPU 0 instructions: 56000002 cycles: 24224760 heartbeat IPC: 1.22101 cumulative IPC: 1.20658 (Simulation time: 0 hr 50 min 39 sec) 

Region of Interest Statistics
cpu0_DTLB TOTAL     ACCESS:    1117276  HIT:    1116737  MISS:        539
cpu0_DTLB LOAD      ACCESS:    1080516  HIT:    1080248  MISS:        268
cpu0_DTLB RFO       ACCESS:      36760  HIT:      36489  MISS:        271
cpu0_DTLB PREFETCH  ACCESS:          0  HIT:          0  MISS:          0
cpu0_DTLB WRITEBACK ACCESS:          0  HIT:          0  MISS:          0
cpu0_ITLB TOTAL     ACCESS:      25676  HIT:      25676  MISS:          0
cpu0_ITLB LOAD      ACCESS:      25676  HIT:      25676  MISS:          0
cpu0_ITLB RFO       ACCESS:          0  HIT:          0  MISS:          0
cpu0_ITLB PREFETCH  ACCESS:          0  HIT:          0  MISS:          0
cpu0_ITLB WRITEBACK ACCESS:          0  HIT:          0  MISS:          0
cpu0_L1I TOTAL     ACCESS:        108  HIT:        108  MISS:          0
cpu0_L1I LOAD      ACCESS:        108  HIT:        108  MISS:          0
cpu0_L1I RFO       ACCESS:          0  HIT:          0  MISS:          0
cpu0_L1I PREFETCH  ACCESS:          0  HIT:          0  MISS:          0
cpu0_L1I WRITEBACK ACCESS:          0  HIT:          0  MISS:          0
cpu0_STLB TOTAL     ACCESS:        539  HIT:          7  MISS:        532
cpu0_STLB LOAD      ACCESS:        268  HIT:          7  MISS:        261
cpu0_STLB RFO       ACCESS:        271  HIT:          0  MISS:        271
cpu0_STLB PREFETCH  ACCESS:          0  HIT:          0  MISS:          0
cpu0_STLB WRITEBACK ACCESS:          0  HIT:          0  MISS:          0
cpu0_L1D TOTAL     ACCESS:    1431655  HIT:    1398469  MISS:      33186
cpu0_L1D LOAD      ACCESS:    1408442  HIT:    1391840  MISS:      16602
cpu0_L1D RFO       ACCESS:      22681  HIT:       6097  MISS:      16584
cpu0_L1D PREFETCH  ACCESS:          0  HIT:          0  MISS:          0
cpu0_L1D WRITEBACK ACCESS:          0  HIT:          0  MISS:          0
cpu0_L2C TOTAL     ACCESS:      49772  HIT:      16603  MISS:      33169
cpu0_L2C LOAD      ACCESS:      16602  HIT:         17  MISS:      16585
cpu0_L2C RFO       ACCESS:      16584  HIT:          0  MISS:      16584
cpu0_L2C PREFETCH  ACCESS:          0  HIT:          0  MISS:          0
cpu0_L2C WRITEBACK ACCESS:      16586  HIT:      16586  MISS:          0
LLC TOTAL     ACCESS:      49916  HIT:        255  MISS:      49661
LLC LOAD      ACCESS:      16585  HIT:          1  MISS:      16584
LLC RFO       ACCESS:      16584  HIT:          0  MISS:      16584
LLC PREFETCH  ACCESS:          0  HIT:          0  MISS:          0
LLC WRITEBACK ACCESS:      16747  HIT:        254  MISS:      16493
Heartbeat CPU 0 instructions: 58000002 cycles: 25888911 heartbeat IPC: 1.20181 cumulative IPC: 1.20539 (Simulation time: 0 hr 53 min 14 sec) 

Region of Interest Statistics
cpu0_DTLB TOTAL     ACCESS:    1489651  HIT:    1488932  MISS:        719
cpu0_DTLB LOAD      ACCESS:    1440616  HIT:    1440258  MISS:        358
cpu0_DTLB RFO       ACCESS:      49035  HIT:      48674  MISS:        361
cpu0_DTLB PREFETCH  ACCESS:          0  HIT:          0  MISS:          0
cpu0_DTLB WRITEBACK ACCESS:          0  HIT:          0  MISS:          0
cpu0_ITLB TOTAL     ACCESS:      34199  HIT:      34199  MISS:          0
cpu0_ITLB LOAD      ACCESS:      34199  HIT:      34199  MISS:          0
cpu0_ITLB RFO       ACCESS:          0  HIT:          0  MISS:          0
cpu0_ITLB PREFETCH  ACCESS:          0  HIT:          0  MISS:          0
cpu0_ITLB WRITEBACK ACCESS:          0  HIT:          0  MISS:          0
cpu0_L1I TOTAL     ACCESS:        145  HIT:        145  MISS:          0
cpu0_L1I LOAD      ACCESS:        145  HIT:        145  MISS:          0
cpu0_L1I RFO       ACCESS:          0  HIT:          0  MISS:          0
cpu0_L1I PREFETCH  ACCESS:          0  HIT:          0  MISS:          0
cpu0_L1I WRITEBACK ACCESS:          0  HIT:          0  MISS:          0
cpu0_STLB TOTAL     ACCESS:        719  HIT:         10  MISS:        709
cpu0_STLB LOAD      ACCESS:        358  HIT:         10  MISS:        348
cpu0_STLB RFO       ACCESS:        361  HIT:          0  MISS:        361
cpu0_STLB PREFETCH  ACCESS:          0  HIT:          0  MISS:          0
cpu0_STLB WRITEBACK ACCESS:          0  HIT:          0  MISS:          0
cpu0_L1D TOTAL     ACCESS:    1908911  HIT:    1864664  MISS:      44247
cpu0_L1D LOAD      ACCESS:    1877997  HIT:    1855861  MISS:      22136
cpu0_L1D RFO       ACCESS:      30206  HIT:       8095  MISS:      22111
cpu0_L1D PREFETCH  ACCESS:          0  HIT:          0  MISS:          0
cpu0_L1D WRITEBACK ACCESS:          0  HIT:          0  MISS:          0
cpu0_L2C TOTAL     ACCESS:      66361  HIT:      22137  MISS:      44224
cpu0_L2C LOAD      ACCESS:      22136  HIT:         23  MISS:      22113
cpu0_L2C RFO       ACCESS:      22111  HIT:          0  MISS:      22111
cpu0_L2C PREFETCH  ACCESS:          0  HIT:          0  MISS:          0
cpu0_L2C WRITEBACK ACCESS:      22114  HIT:      22114  MISS:          0
LLC TOTAL     ACCESS:      66774  HIT:        359  MISS:      66415
LLC LOAD      ACCESS:      22113  HIT:          1  MISS:      22112
LLC RFO       ACCESS:      22111  HIT:          0  MISS:      22111
LLC PREFETCH  ACCESS:          0  HIT:          0  MISS:          0
LLC WRITEBACK ACCESS:      22550  HIT:        358  MISS:      22192
Heartbeat CPU 0 instructions: 60000001 cycles: 27526345 heartbeat IPC: 1.22142 cumulative IPC: 1.20856 (Simulation time: 0 hr 55 min 40 sec) 

Region of Interest Statistics
cpu0_DTLB TOTAL     ACCESS:    1862008  HIT:    1861108  MISS:        900
cpu0_DTLB LOAD      ACCESS:    1800792  HIT:    1800342  MISS:        450
cpu0_DTLB RFO       ACCESS:      61216  HIT:      60766  MISS:        450
cpu0_DTLB PREFETCH  ACCESS:          0  HIT:          0  MISS:          0
cpu0_DTLB WRITEBACK ACCESS:          0  HIT:          0  MISS:          0
cpu0_ITLB TOTAL     ACCESS:      42898  HIT:      42898  MISS:          0
cpu0_ITLB LOAD      ACCESS:      42898  HIT:      42898  MISS:          0
cpu0_ITLB RFO       ACCESS:          0  HIT:          0  MISS:          0
cpu0_ITLB PREFETCH  ACCESS:          0  HIT:          0  MISS:          0
cpu0_ITLB WRITEBACK ACCESS:          0  HIT:          0  MISS:          0
cpu0_L1I TOTAL     ACCESS:        181  HIT:        181  MISS:          0
cpu0_L1I LOAD      ACCESS:        181  HIT:        181  MISS:          0
cpu0_L1I RFO       ACCESS:          0  HIT:          0  MISS:          0
cpu0_L1I PREFETCH  ACCESS:          0  HIT:          0  MISS:          0
cpu0_L1I WRITEBACK ACCESS:          0  HIT:          0  MISS:          0
cpu0_STLB TOTAL     ACCESS:        900  HIT:         12  MISS:        888
cpu0_STLB LOAD      ACCESS:        450  HIT:         12  MISS:        438
cpu0_STLB RFO       ACCESS:        450  HIT:          0  MISS:        450
cpu0_STLB PREFETCH  ACCESS:          0  HIT:          0  MISS:          0
cpu0_STLB WRITEBACK ACCESS:          0  HIT:          0  MISS:          0
cpu0_L1D TOTAL     ACCESS:    2386112  HIT:    2330802  MISS:      55310
cpu0_L1D LOAD      ACCESS:    2347627  HIT:    2319957  MISS:      27670
cpu0_L1D RFO       ACCESS:      37600  HIT:       9961  MISS:      27639
cpu0_L1D PREFETCH  ACCESS:          0  HIT:          0  MISS:          0
cpu0_L1D WRITEBACK ACCESS:          0  HIT:          0  MISS:          0
cpu0_L2C TOTAL     ACCESS:      82953  HIT:      27671  MISS:      55282
cpu0_L2C LOAD      ACCESS:      27670  HIT:         28  MISS:      27642
cpu0_L2C RFO       ACCESS:      27639  HIT:          0  MISS:      27639
cpu0_L2C PREFETCH  ACCESS:          0  HIT:          0  MISS:          0
cpu0_L2C WRITEBACK ACCESS:      27643  HIT:      27643  MISS:          0
LLC TOTAL     ACCESS:      83359  HIT:        373  MISS:      82986
LLC LOAD      ACCESS:      27642  HIT:          2  MISS:      27640
LLC RFO       ACCESS:      27639  HIT:          0  MISS:      27639
LLC PREFETCH  ACCESS:          0  HIT:          0  MISS:          0
LLC WRITEBACK ACCESS:      28077  HIT:        371  MISS:      27706
Heartbeat CPU 0 instructions: 62000000 cycles: 29178373 heartbeat IPC: 1.21063 cumulative IPC: 1.20891 (Simulation time: 0 hr 58 min 14 sec) 

Region of Interest Statistics
cpu0_DTLB TOTAL     ACCESS:    2234445  HIT:    2233365  MISS:       1080
cpu0_DTLB LOAD      ACCESS:    2161044  HIT:    2160501  MISS:        543
cpu0_DTLB RFO       ACCESS:      73401  HIT:      72864  MISS:        537
cpu0_DTLB PREFETCH  ACCESS:          0  HIT:          0  MISS:          0
cpu0_DTLB WRITEBACK ACCESS:          0  HIT:          0  MISS:          0
cpu0_ITLB TOTAL     ACCESS:      51387  HIT:      51387  MISS:          0
cpu0_ITLB LOAD      ACCESS:      51387  HIT:      51387  MISS:          0
cpu0_ITLB RFO       ACCESS:          0  HIT:          0  MISS:          0
cpu0_ITLB PREFETCH  ACCESS:          0  HIT:          0  MISS:          0
cpu0_ITLB WRITEBACK ACCESS:          0  HIT:          0  MISS:          0
cpu0_L1I TOTAL     ACCESS:        217  HIT:        217  MISS:          0
cpu0_L1I LOAD      ACCESS:        217  HIT:        217  MISS:          0
cpu0_L1I RFO       ACCESS:          0  HIT:          0  MISS:          0
cpu0_L1I PREFETCH  ACCESS:          0  HIT:          0  MISS:          0
cpu0_L1I WRITEBACK ACCESS:          0  HIT:          0  MISS:          0
cpu0_STLB TOTAL     ACCESS:       1080  HIT:         15  MISS:       1065
cpu0_STLB LOAD      ACCESS:        543  HIT:         15  MISS:        528
cpu0_STLB RFO       ACCESS:        537  HIT:          0  MISS:        537
cpu0_STLB PREFETCH  ACCESS:          0  HIT:          0  MISS:          0
cpu0_STLB WRITEBACK ACCESS:          0  HIT:          0  MISS:          0
cpu0_L1D TOTAL     ACCESS:    2863274  HIT:    2796902  MISS:      66372
cpu0_L1D LOAD      ACCESS:    2817119  HIT:    2783915  MISS:      33204
cpu0_L1D RFO       ACCESS:      45093  HIT:      11926  MISS:      33167
cpu0_L1D PREFETCH  ACCESS:          0  HIT:          0  MISS:          0
cpu0_L1D WRITEBACK ACCESS:          0  HIT:          0  MISS:          0
cpu0_L2C TOTAL     ACCESS:      99537  HIT:      33199  MISS:      66338
cpu0_L2C LOAD      ACCESS:      33204  HIT:         34  MISS:      33170
cpu0_L2C RFO       ACCESS:      33167  HIT:          0  MISS:      33167
cpu0_L2C PREFETCH  ACCESS:          0  HIT:          0  MISS:          0
cpu0_L2C WRITEBACK ACCESS:      33165  HIT:      33165  MISS:          0
LLC TOTAL     ACCESS:      99865  HIT:        373  MISS:      99492
LLC LOAD      ACCESS:      33170  HIT:          2  MISS:      33168
LLC RFO       ACCESS:      33167  HIT:          0  MISS:      33167
LLC PREFETCH  ACCESS:          0  HIT:          0  MISS:          0
LLC WRITEBACK ACCESS:      33527  HIT:        371  MISS:      33156
Heartbeat CPU 0 instructions: 64000002 cycles: 30835433 heartbeat IPC: 1.20696 cumulative IPC: 1.20863 (Simulation time: 1 hr 0 min 47 sec) 

Region of Interest Statistics
cpu0_DTLB TOTAL     ACCESS:    2606783  HIT:    2605524  MISS:       1259
cpu0_DTLB LOAD      ACCESS:    2521195  HIT:    2520560  MISS:        635
cpu0_DTLB RFO       ACCESS:      85588  HIT:      84964  MISS:        624
cpu0_DTLB PREFETCH  ACCESS:          0  HIT:          0  MISS:          0
cpu0_DTLB WRITEBACK ACCESS:          0  HIT:          0  MISS:          0
cpu0_ITLB TOTAL     ACCESS:      60001  HIT:      60001  MISS:          0
cpu0_ITLB LOAD      ACCESS:      60001  HIT:      60001  MISS:          0
cpu0_ITLB RFO       ACCESS:          0  HIT:          0  MISS:          0
cpu0_ITLB PREFETCH  ACCESS:          0  HIT:          0  MISS:          0
cpu0_ITLB WRITEBACK ACCESS:          0  HIT:          0  MISS:          0
cpu0_L1I TOTAL     ACCESS:        249  HIT:        249  MISS:          0
cpu0_L1I LOAD      ACCESS:        249  HIT:        249  MISS:          0
cpu0_L1I RFO       ACCESS:          0  HIT:          0  MISS:          0
cpu0_L1I PREFETCH  ACCESS:          0  HIT:          0  MISS:          0
cpu0_L1I WRITEBACK ACCESS:          0  HIT:          0  MISS:          0
cpu0_STLB TOTAL     ACCESS:       1259  HIT:         17  MISS:       1242
cpu0_STLB LOAD      ACCESS:        635  HIT:         17  MISS:        618
cpu0_STLB RFO       ACCESS:        624  HIT:          0  MISS:        624
cpu0_STLB PREFETCH  ACCESS:          0  HIT:          0  MISS:          0
cpu0_STLB WRITEBACK ACCESS:          0  HIT:          0  MISS:          0
cpu0_L1D TOTAL     ACCESS:    3340416  HIT:    3263002  MISS:      77414
cpu0_L1D LOAD      ACCESS:    3286628  HIT:    3247908  MISS:      38720
cpu0_L1D RFO       ACCESS:      52549  HIT:      13856  MISS:      38693
cpu0_L1D PREFETCH  ACCESS:          0  HIT:          0  MISS:          0
cpu0_L1D WRITEBACK ACCESS:          0  HIT:          0  MISS:          0
cpu0_L2C TOTAL     ACCESS:     116102  HIT:      38728  MISS:      77374
cpu0_L2C LOAD      ACCESS:      38720  HIT:         40  MISS:      38680
cpu0_L2C RFO       ACCESS:      38693  HIT:          0  MISS:      38693
cpu0_L2C PREFETCH  ACCESS:          0  HIT:          0  MISS:          0
cpu0_L2C WRITEBACK ACCESS:      38688  HIT:      38688  MISS:          0
LLC TOTAL     ACCESS:     116351  HIT:        373  MISS:     115978
LLC LOAD      ACCESS:      38680  HIT:          2  MISS:      38678
LLC RFO       ACCESS:      38693  HIT:          0  MISS:      38693
LLC PREFETCH  ACCESS:          0  HIT:          0  MISS:          0
LLC WRITEBACK ACCESS:      38977  HIT:        371  MISS:      38606
Heartbeat CPU 0 instructions: 66000001 cycles: 32477328 heartbeat IPC: 1.2181 cumulative IPC: 1.2098 (Simulation time: 1 hr 3 min 18 sec) 

Region of Interest Statistics
cpu0_DTLB TOTAL     ACCESS:    2979182  HIT:    2977746  MISS:       1436
cpu0_DTLB LOAD      ACCESS:    2881474  HIT:    2880748  MISS:        726
cpu0_DTLB RFO       ACCESS:      97708  HIT:      96998  MISS:        710
cpu0_DTLB PREFETCH  ACCESS:          0  HIT:          0  MISS:          0
cpu0_DTLB WRITEBACK ACCESS:          0  HIT:          0  MISS:          0
cpu0_ITLB TOTAL     ACCESS:      68511  HIT:      68511  MISS:          0
cpu0_ITLB LOAD      ACCESS:      68511  HIT:      68511  MISS:          0
cpu0_ITLB RFO       ACCESS:          0  HIT:          0  MISS:          0
cpu0_ITLB PREFETCH  ACCESS:          0  HIT:          0  MISS:          0
cpu0_ITLB WRITEBACK ACCESS:          0  HIT:          0  MISS:          0
cpu0_L1I TOTAL     ACCESS:        277  HIT:        277  MISS:          0
cpu0_L1I LOAD      ACCESS:        277  HIT:        277  MISS:          0
cpu0_L1I RFO       ACCESS:          0  HIT:          0  MISS:          0
cpu0_L1I PREFETCH  ACCESS:          0  HIT:          0  MISS:          0
cpu0_L1I WRITEBACK ACCESS:          0  HIT:          0  MISS:          0
cpu0_STLB TOTAL     ACCESS:       1436  HIT:         19  MISS:       1417
cpu0_STLB LOAD      ACCESS:        726  HIT:         19  MISS:        707
cpu0_STLB RFO       ACCESS:        710  HIT:          0  MISS:        710
cpu0_STLB PREFETCH  ACCESS:          0  HIT:          0  MISS:          0
cpu0_STLB WRITEBACK ACCESS:          0  HIT:          0  MISS:          0
cpu0_L1D TOTAL     ACCESS:    3817343  HIT:    3728867  MISS:      88476
cpu0_L1D LOAD      ACCESS:    3755974  HIT:    3711713  MISS:      44261
cpu0_L1D RFO       ACCESS:      59955  HIT:      15741  MISS:      44214
cpu0_L1D PREFETCH  ACCESS:          0  HIT:          0  MISS:          0
cpu0_L1D WRITEBACK ACCESS:          0  HIT:          0  MISS:          0
cpu0_L2C TOTAL     ACCESS:     132690  HIT:      44257  MISS:      88433
cpu0_L2C LOAD      ACCESS:      44261  HIT:         43  MISS:      44218
cpu0_L2C RFO       ACCESS:      44214  HIT:          0  MISS:      44214
cpu0_L2C PREFETCH  ACCESS:          0  HIT:          0  MISS:          0
cpu0_L2C WRITEBACK ACCESS:      44214  HIT:      44214  MISS:          0
LLC TOTAL     ACCESS:     132805  HIT:        374  MISS:     132431
LLC LOAD      ACCESS:      44218  HIT:          3  MISS:      44215
LLC RFO       ACCESS:      44214  HIT:          0  MISS:      44214
LLC PREFETCH  ACCESS:          0  HIT:          0  MISS:          0
LLC WRITEBACK ACCESS:      44372  HIT:        371  MISS:      44001
Heartbeat CPU 0 instructions: 68000000 cycles: 34155474 heartbeat IPC: 1.19179 cumulative IPC: 1.20778 (Simulation time: 1 hr 5 min 53 sec) 

Region of Interest Statistics
cpu0_DTLB TOTAL     ACCESS:    3351622  HIT:    3350006  MISS:       1616
cpu0_DTLB LOAD      ACCESS:    3241715  HIT:    3240896  MISS:        819
cpu0_DTLB RFO       ACCESS:     109907  HIT:     109110  MISS:        797
cpu0_DTLB PREFETCH  ACCESS:          0  HIT:          0  MISS:          0
cpu0_DTLB WRITEBACK ACCESS:          0  HIT:          0  MISS:          0
cpu0_ITLB TOTAL     ACCESS:      77082  HIT:      77082  MISS:          0
cpu0_ITLB LOAD      ACCESS:      77082  HIT:      77082  MISS:          0
cpu0_ITLB RFO       ACCESS:          0  HIT:          0  MISS:          0
cpu0_ITLB PREFETCH  ACCESS:          0  HIT:          0  MISS:          0
cpu0_ITLB WRITEBACK ACCESS:          0  HIT:          0  MISS:          0
cpu0_L1I TOTAL     ACCESS:        313  HIT:        313  MISS:          0
cpu0_L1I LOAD      ACCESS:        313  HIT:        313  MISS:          0
cpu0_L1I RFO       ACCESS:          0  HIT:          0  MISS:          0
cpu0_L1I PREFETCH  ACCESS:          0  HIT:          0  MISS:          0
cpu0_L1I WRITEBACK ACCESS:          0  HIT:          0  MISS:          0
cpu0_STLB TOTAL     ACCESS:       1616  HIT:         22  MISS:       1594
cpu0_STLB LOAD      ACCESS:        819  HIT:         22  MISS:        797
cpu0_STLB RFO       ACCESS:        797  HIT:          0  MISS:        797
cpu0_STLB PREFETCH  ACCESS:          0  HIT:          0  MISS:          0
cpu0_STLB WRITEBACK ACCESS:          0  HIT:          0  MISS:          0
cpu0_L1D TOTAL     ACCESS:    4294387  HIT:    4194849  MISS:      99538
cpu0_L1D LOAD      ACCESS:    4225207  HIT:    4175412  MISS:      49795
cpu0_L1D RFO       ACCESS:      67589  HIT:      17847  MISS:      49742
cpu0_L1D PREFETCH  ACCESS:          0  HIT:          0  MISS:          0
cpu0_L1D WRITEBACK ACCESS:          0  HIT:          0  MISS:          0
cpu0_L2C TOTAL     ACCESS:     149280  HIT:      49791  MISS:      99489
cpu0_L2C LOAD      ACCESS:      49795  HIT:         49  MISS:      49746
cpu0_L2C RFO       ACCESS:      49742  HIT:          0  MISS:      49742
cpu0_L2C PREFETCH  ACCESS:          0  HIT:          0  MISS:          0
cpu0_L2C WRITEBACK ACCESS:      49742  HIT:      49742  MISS:          0
LLC TOTAL     ACCESS:     149667  HIT:        380  MISS:     149287
LLC LOAD      ACCESS:      49746  HIT:          3  MISS:      49743
LLC RFO       ACCESS:      49742  HIT:          6  MISS:      49736
LLC PREFETCH  ACCESS:          0  HIT:          0  MISS:          0
LLC WRITEBACK ACCESS:      50178  HIT:        371  MISS:      49807
Heartbeat CPU 0 instructions: 70000000 cycles: 35810812 heartbeat IPC: 1.20821 cumulative IPC: 1.20782 (Simulation time: 1 hr 8 min 27 sec) 

Region of Interest Statistics
cpu0_DTLB TOTAL     ACCESS:    3724104  HIT:    3722309  MISS:       1795
cpu0_DTLB LOAD      ACCESS:    3602075  HIT:    3601164  MISS:        911
cpu0_DTLB RFO       ACCESS:     122029  HIT:     121145  MISS:        884
cpu0_DTLB PREFETCH  ACCESS:          0  HIT:          0  MISS:          0
cpu0_DTLB WRITEBACK ACCESS:          0  HIT:          0  MISS:          0
cpu0_ITLB TOTAL     ACCESS:      85661  HIT:      85661  MISS:          0
cpu0_ITLB LOAD      ACCESS:      85661  HIT:      85661  MISS:          0
cpu0_ITLB RFO       ACCESS:          0  HIT:          0  MISS:          0
cpu0_ITLB PREFETCH  ACCESS:          0  HIT:          0  MISS:          0
cpu0_ITLB WRITEBACK ACCESS:          0  HIT:          0  MISS:          0
cpu0_L1I TOTAL     ACCESS:        350  HIT:        350  MISS:          0
cpu0_L1I LOAD      ACCESS:        350  HIT:        350  MISS:          0
cpu0_L1I RFO       ACCESS:          0  HIT:          0  MISS:          0
cpu0_L1I PREFETCH  ACCESS:          0  HIT:          0  MISS:          0
cpu0_L1I WRITEBACK ACCESS:          0  HIT:          0  MISS:          0
cpu0_STLB TOTAL     ACCESS:       1795  HIT:         24  MISS:       1771
cpu0_STLB LOAD      ACCESS:        911  HIT:         24  MISS:        887
cpu0_STLB RFO       ACCESS:        884  HIT:          0  MISS:        884
cpu0_STLB PREFETCH  ACCESS:          0  HIT:          0  MISS:          0
cpu0_STLB WRITEBACK ACCESS:          0  HIT:          0  MISS:          0
cpu0_L1D TOTAL     ACCESS:    4771719  HIT:    4661119  MISS:     110600
cpu0_L1D LOAD      ACCESS:    4694722  HIT:    4639393  MISS:      55329
cpu0_L1D RFO       ACCESS:      75229  HIT:      19959  MISS:      55270
cpu0_L1D PREFETCH  ACCESS:          0  HIT:          0  MISS:          0
cpu0_L1D WRITEBACK ACCESS:          0  HIT:          0  MISS:          0
cpu0_L2C TOTAL     ACCESS:     165870  HIT:      55325  MISS:     110545
cpu0_L2C LOAD      ACCESS:      55329  HIT:         55  MISS:      55274
cpu0_L2C RFO       ACCESS:      55270  HIT:          0  MISS:      55270
cpu0_L2C PREFETCH  ACCESS:          0  HIT:          0  MISS:          0
cpu0_L2C WRITEBACK ACCESS:      55270  HIT:      55270  MISS:          0
LLC TOTAL     ACCESS:     166341  HIT:        476  MISS:     165865
LLC LOAD      ACCESS:      55274  HIT:          3  MISS:      55271
LLC RFO       ACCESS:      55270  HIT:         51  MISS:      55219
LLC PREFETCH  ACCESS:          0  HIT:          0  MISS:          0
LLC WRITEBACK ACCESS:      55796  HIT:        422  MISS:      55374
Heartbeat CPU 0 instructions: 72000004 cycles: 37405184 heartbeat IPC: 1.25441 cumulative IPC: 1.21191 (Simulation time: 1 hr 10 min 58 sec) 

Region of Interest Statistics
cpu0_DTLB TOTAL     ACCESS:    4096611  HIT:    4094636  MISS:       1975
cpu0_DTLB LOAD      ACCESS:    3962420  HIT:    3961416  MISS:       1004
cpu0_DTLB RFO       ACCESS:     134191  HIT:     133220  MISS:        971
cpu0_DTLB PREFETCH  ACCESS:          0  HIT:          0  MISS:          0
cpu0_DTLB WRITEBACK ACCESS:          0  HIT:          0  MISS:          0
cpu0_ITLB TOTAL     ACCESS:      94242  HIT:      94242  MISS:          0
cpu0_ITLB LOAD      ACCESS:      94242  HIT:      94242  MISS:          0
cpu0_ITLB RFO       ACCESS:          0  HIT:          0  MISS:          0
cpu0_ITLB PREFETCH  ACCESS:          0  HIT:          0  MISS:          0
cpu0_ITLB WRITEBACK ACCESS:          0  HIT:          0  MISS:          0
cpu0_L1I TOTAL     ACCESS:        386  HIT:        386  MISS:          0
cpu0_L1I LOAD      ACCESS:        386  HIT:        386  MISS:          0
cpu0_L1I RFO       ACCESS:          0  HIT:          0  MISS:          0
cpu0_L1I PREFETCH  ACCESS:          0  HIT:          0  MISS:          0
cpu0_L1I WRITEBACK ACCESS:          0  HIT:          0  MISS:          0
cpu0_STLB TOTAL     ACCESS:       1975  HIT:         27  MISS:       1948
cpu0_STLB LOAD      ACCESS:       1004  HIT:         27  MISS:        977
cpu0_STLB RFO       ACCESS:        971  HIT:          0  MISS:        971
cpu0_STLB PREFETCH  ACCESS:          0  HIT:          0  MISS:          0
cpu0_STLB WRITEBACK ACCESS:          0  HIT:          0  MISS:          0
cpu0_L1D TOTAL     ACCESS:    5248585  HIT:    5126923  MISS:     121662
cpu0_L1D LOAD      ACCESS:    5164141  HIT:    5103278  MISS:      60863
cpu0_L1D RFO       ACCESS:      82499  HIT:      21701  MISS:      60798
cpu0_L1D PREFETCH  ACCESS:          0  HIT:          0  MISS:          0
cpu0_L1D WRITEBACK ACCESS:          0  HIT:          0  MISS:          0
cpu0_L2C TOTAL     ACCESS:     182460  HIT:      60858  MISS:     121602
cpu0_L2C LOAD      ACCESS:      60863  HIT:         60  MISS:      60803
cpu0_L2C RFO       ACCESS:      60798  HIT:          0  MISS:      60798
cpu0_L2C PREFETCH  ACCESS:          0  HIT:          0  MISS:          0
cpu0_L2C WRITEBACK ACCESS:      60798  HIT:      60798  MISS:          0
LLC TOTAL     ACCESS:     182551  HIT:        477  MISS:     182074
LLC LOAD      ACCESS:      60803  HIT:          4  MISS:      60799
LLC RFO       ACCESS:      60798  HIT:         51  MISS:      60747
LLC PREFETCH  ACCESS:          0  HIT:          0  MISS:          0
LLC WRITEBACK ACCESS:      60949  HIT:        422  MISS:      60527
Heartbeat CPU 0 instructions: 74000001 cycles: 39080014 heartbeat IPC: 1.19415 cumulative IPC: 1.21041 (Simulation time: 1 hr 13 min 34 sec) 

Region of Interest Statistics
cpu0_DTLB TOTAL     ACCESS:    4469385  HIT:    4467231  MISS:       2154
cpu0_DTLB LOAD      ACCESS:    4322833  HIT:    4321737  MISS:       1096
cpu0_DTLB RFO       ACCESS:     146552  HIT:     145494  MISS:       1058
cpu0_DTLB PREFETCH  ACCESS:          0  HIT:          0  MISS:          0
cpu0_DTLB WRITEBACK ACCESS:          0  HIT:          0  MISS:          0
cpu0_ITLB TOTAL     ACCESS:     102784  HIT:     102784  MISS:          0
cpu0_ITLB LOAD      ACCESS:     102784  HIT:     102784  MISS:          0
cpu0_ITLB RFO       ACCESS:          0  HIT:          0  MISS:          0
cpu0_ITLB PREFETCH  ACCESS:          0  HIT:          0  MISS:          0
cpu0_ITLB WRITEBACK ACCESS:          0  HIT:          0  MISS:          0
cpu0_L1I TOTAL     ACCESS:        422  HIT:        422  MISS:          0
cpu0_L1I LOAD      ACCESS:        422  HIT:        422  MISS:          0
cpu0_L1I RFO       ACCESS:          0  HIT:          0  MISS:          0
cpu0_L1I PREFETCH  ACCESS:          0  HIT:          0  MISS:          0
cpu0_L1I WRITEBACK ACCESS:          0  HIT:          0  MISS:          0
cpu0_STLB TOTAL     ACCESS:       2154  HIT:         29  MISS:       2125
cpu0_STLB LOAD      ACCESS:       1096  HIT:         29  MISS:       1067
cpu0_STLB RFO       ACCESS:       1058  HIT:          0  MISS:       1058
cpu0_STLB PREFETCH  ACCESS:          0  HIT:          0  MISS:          0
cpu0_STLB WRITEBACK ACCESS:          0  HIT:          0  MISS:          0
cpu0_L1D TOTAL     ACCESS:    5726069  HIT:    5593343  MISS:     132726
cpu0_L1D LOAD      ACCESS:    5633763  HIT:    5567365  MISS:      66398
cpu0_L1D RFO       ACCESS:      90184  HIT:      23857  MISS:      66327
cpu0_L1D PREFETCH  ACCESS:          0  HIT:          0  MISS:          0
cpu0_L1D WRITEBACK ACCESS:          0  HIT:          0  MISS:          0
cpu0_L2C TOTAL     ACCESS:     199054  HIT:      66394  MISS:     132660
cpu0_L2C LOAD      ACCESS:      66398  HIT:         66  MISS:      66332
cpu0_L2C RFO       ACCESS:      66327  HIT:          0  MISS:      66327
cpu0_L2C PREFETCH  ACCESS:          0  HIT:          0  MISS:          0
cpu0_L2C WRITEBACK ACCESS:      66328  HIT:      66328  MISS:          0
LLC TOTAL     ACCESS:     199080  HIT:        477  MISS:     198603
LLC LOAD      ACCESS:      66332  HIT:          4  MISS:      66328
LLC RFO       ACCESS:      66327  HIT:         51  MISS:      66276
LLC PREFETCH  ACCESS:          0  HIT:          0  MISS:          0
LLC WRITEBACK ACCESS:      66420  HIT:        422  MISS:      65998
Heartbeat CPU 0 instructions: 76000000 cycles: 40724252 heartbeat IPC: 1.21637 cumulative IPC: 1.21087 (Simulation time: 1 hr 16 min 4 sec) 

Region of Interest Statistics
cpu0_DTLB TOTAL     ACCESS:    4842136  HIT:    4839801  MISS:       2335
cpu0_DTLB LOAD      ACCESS:    4683276  HIT:    4682087  MISS:       1189
cpu0_DTLB RFO       ACCESS:     158860  HIT:     157714  MISS:       1146
cpu0_DTLB PREFETCH  ACCESS:          0  HIT:          0  MISS:          0
cpu0_DTLB WRITEBACK ACCESS:          0  HIT:          0  MISS:          0
cpu0_ITLB TOTAL     ACCESS:     111278  HIT:     111278  MISS:          0
cpu0_ITLB LOAD      ACCESS:     111278  HIT:     111278  MISS:          0
cpu0_ITLB RFO       ACCESS:          0  HIT:          0  MISS:          0
cpu0_ITLB PREFETCH  ACCESS:          0  HIT:          0  MISS:          0
cpu0_ITLB WRITEBACK ACCESS:          0  HIT:          0  MISS:          0
cpu0_L1I TOTAL     ACCESS:        458  HIT:        458  MISS:          0
cpu0_L1I LOAD      ACCESS:        458  HIT:        458  MISS:          0
cpu0_L1I RFO       ACCESS:          0  HIT:          0  MISS:          0
cpu0_L1I PREFETCH  ACCESS:          0  HIT:          0  MISS:          0
cpu0_L1I WRITEBACK ACCESS:          0  HIT:          0  MISS:          0
cpu0_STLB TOTAL     ACCESS:       2335  HIT:         32  MISS:       2303
cpu0_STLB LOAD      ACCESS:       1189  HIT:         32  MISS:       1157
cpu0_STLB RFO       ACCESS:       1146  HIT:          0  MISS:       1146
cpu0_STLB PREFETCH  ACCESS:          0  HIT:          0  MISS:          0
cpu0_STLB WRITEBACK ACCESS:          0  HIT:          0  MISS:          0
cpu0_L1D TOTAL     ACCESS:    6203273  HIT:    6059484  MISS:     143789
cpu0_L1D LOAD      ACCESS:    6103241  HIT:    6031309  MISS:      71932
cpu0_L1D RFO       ACCESS:      97732  HIT:      25876  MISS:      71856
cpu0_L1D PREFETCH  ACCESS:          0  HIT:          0  MISS:          0
cpu0_L1D WRITEBACK ACCESS:          0  HIT:          0  MISS:          0
cpu0_L2C TOTAL     ACCESS:     215647  HIT:      71930  MISS:     143717
cpu0_L2C LOAD      ACCESS:      71932  HIT:         72  MISS:      71860
cpu0_L2C RFO       ACCESS:      71856  HIT:          0  MISS:      71856
cpu0_L2C PREFETCH  ACCESS:          0  HIT:          0  MISS:          0
cpu0_L2C WRITEBACK ACCESS:      71858  HIT:      71858  MISS:          0
LLC TOTAL     ACCESS:     215654  HIT:        477  MISS:     215177
LLC LOAD      ACCESS:      71860  HIT:          4  MISS:      71856
LLC RFO       ACCESS:      71856  HIT:         51  MISS:      71805
LLC PREFETCH  ACCESS:          0  HIT:          0  MISS:          0
LLC WRITEBACK ACCESS:      71937  HIT:        422  MISS:      71515
Heartbeat CPU 0 instructions: 78000004 cycles: 42395252 heartbeat IPC: 1.19689 cumulative IPC: 1.20986 (Simulation time: 1 hr 18 min 41 sec) 

Region of Interest Statistics
cpu0_DTLB TOTAL     ACCESS:    5214800  HIT:    5212285  MISS:       2515
cpu0_DTLB LOAD      ACCESS:    5043759  HIT:    5042477  MISS:       1282
cpu0_DTLB RFO       ACCESS:     171041  HIT:     169808  MISS:       1233
cpu0_DTLB PREFETCH  ACCESS:          0  HIT:          0  MISS:          0
cpu0_DTLB WRITEBACK ACCESS:          0  HIT:          0  MISS:          0
cpu0_ITLB TOTAL     ACCESS:     119837  HIT:     119837  MISS:          0
cpu0_ITLB LOAD      ACCESS:     119837  HIT:     119837  MISS:          0
cpu0_ITLB RFO       ACCESS:          0  HIT:          0  MISS:          0
cpu0_ITLB PREFETCH  ACCESS:          0  HIT:          0  MISS:          0
cpu0_ITLB WRITEBACK ACCESS:          0  HIT:          0  MISS:          0
cpu0_L1I TOTAL     ACCESS:        494  HIT:        494  MISS:          0
cpu0_L1I LOAD      ACCESS:        494  HIT:        494  MISS:          0
cpu0_L1I RFO       ACCESS:          0  HIT:          0  MISS:          0
cpu0_L1I PREFETCH  ACCESS:          0  HIT:          0  MISS:          0
cpu0_L1I WRITEBACK ACCESS:          0  HIT:          0  MISS:          0
cpu0_STLB TOTAL     ACCESS:       2515  HIT:         35  MISS:       2480
cpu0_STLB LOAD      ACCESS:       1282  HIT:         35  MISS:       1247
cpu0_STLB RFO       ACCESS:       1233  HIT:          0  MISS:       1233
cpu0_STLB PREFETCH  ACCESS:          0  HIT:          0  MISS:          0
cpu0_STLB WRITEBACK ACCESS:          0  HIT:          0  MISS:          0
cpu0_L1D TOTAL     ACCESS:    6680427  HIT:    6525577  MISS:     154850
cpu0_L1D LOAD      ACCESS:    6572757  HIT:    6495291  MISS:      77466
cpu0_L1D RFO       ACCESS:     105193  HIT:      27810  MISS:      77383
cpu0_L1D PREFETCH  ACCESS:          0  HIT:          0  MISS:          0
cpu0_L1D WRITEBACK ACCESS:          0  HIT:          0  MISS:          0
cpu0_L2C TOTAL     ACCESS:     232236  HIT:      77464  MISS:     154772
cpu0_L2C LOAD      ACCESS:      77466  HIT:         78  MISS:      77388
cpu0_L2C RFO       ACCESS:      77383  HIT:          0  MISS:      77383
cpu0_L2C PREFETCH  ACCESS:          0  HIT:          0  MISS:          0
cpu0_L2C WRITEBACK ACCESS:      77386  HIT:      77386  MISS:          0
LLC TOTAL     ACCESS:     232416  HIT:        477  MISS:     231939
LLC LOAD      ACCESS:      77388  HIT:          4  MISS:      77384
LLC RFO       ACCESS:      77383  HIT:         51  MISS:      77332
LLC PREFETCH  ACCESS:          0  HIT:          0  MISS:          0
LLC WRITEBACK ACCESS:      77644  HIT:        422  MISS:      77222
Heartbeat CPU 0 instructions: 80000003 cycles: 44048746 heartbeat IPC: 1.20956 cumulative IPC: 1.20984 (Simulation time: 1 hr 21 min 9 sec) 

Region of Interest Statistics
cpu0_DTLB TOTAL     ACCESS:    5587476  HIT:    5584780  MISS:       2696
cpu0_DTLB LOAD      ACCESS:    5404277  HIT:    5402903  MISS:       1374
cpu0_DTLB RFO       ACCESS:     183199  HIT:     181877  MISS:       1322
cpu0_DTLB PREFETCH  ACCESS:          0  HIT:          0  MISS:          0
cpu0_DTLB WRITEBACK ACCESS:          0  HIT:          0  MISS:          0
cpu0_ITLB TOTAL     ACCESS:     128344  HIT:     128344  MISS:          0
cpu0_ITLB LOAD      ACCESS:     128344  HIT:     128344  MISS:          0
cpu0_ITLB RFO       ACCESS:          0  HIT:          0  MISS:          0
cpu0_ITLB PREFETCH  ACCESS:          0  HIT:          0  MISS:          0
cpu0_ITLB WRITEBACK ACCESS:          0  HIT:          0  MISS:          0
cpu0_L1I TOTAL     ACCESS:        530  HIT:        530  MISS:          0
cpu0_L1I LOAD      ACCESS:        530  HIT:        530  MISS:          0
cpu0_L1I RFO       ACCESS:          0  HIT:          0  MISS:          0
cpu0_L1I PREFETCH  ACCESS:          0  HIT:          0  MISS:          0
cpu0_L1I WRITEBACK ACCESS:          0  HIT:          0  MISS:          0
cpu0_STLB TOTAL     ACCESS:       2696  HIT:         37  MISS:       2659
cpu0_STLB LOAD      ACCESS:       1374  HIT:         37  MISS:       1337
cpu0_STLB RFO       ACCESS:       1322  HIT:          0  MISS:       1322
cpu0_STLB PREFETCH  ACCESS:          0  HIT:          0  MISS:          0
cpu0_STLB WRITEBACK ACCESS:          0  HIT:          0  MISS:          0
cpu0_L1D TOTAL     ACCESS:    7157324  HIT:    6991412  MISS:     165912
cpu0_L1D LOAD      ACCESS:    7042070  HIT:    6959070  MISS:      83000
cpu0_L1D RFO       ACCESS:     112598  HIT:      29687  MISS:      82911
cpu0_L1D PREFETCH  ACCESS:          0  HIT:          0  MISS:          0
cpu0_L1D WRITEBACK ACCESS:          0  HIT:          0  MISS:          0
cpu0_L2C TOTAL     ACCESS:     248836  HIT:      83008  MISS:     165828
cpu0_L2C LOAD      ACCESS:      83000  HIT:         84  MISS:      82916
cpu0_L2C RFO       ACCESS:      82911  HIT:          0  MISS:      82911
cpu0_L2C PREFETCH  ACCESS:          0  HIT:          0  MISS:          0
cpu0_L2C WRITEBACK ACCESS:      82924  HIT:      82924  MISS:          0
LLC TOTAL     ACCESS:     248993  HIT:        477  MISS:     248516
LLC LOAD      ACCESS:      82916  HIT:          4  MISS:      82912
LLC RFO       ACCESS:      82911  HIT:         51  MISS:      82860
LLC PREFETCH  ACCESS:          0  HIT:          0  MISS:          0
LLC WRITEBACK ACCESS:      83165  HIT:        422  MISS:      82743
Heartbeat CPU 0 instructions: 82000002 cycles: 45721725 heartbeat IPC: 1.19547 cumulative IPC: 1.20893 (Simulation time: 1 hr 23 min 45 sec) 

Region of Interest Statistics
cpu0_DTLB TOTAL     ACCESS:    5959136  HIT:    5956251  MISS:       2885
cpu0_DTLB LOAD      ACCESS:    5763439  HIT:    5761967  MISS:       1472
cpu0_DTLB RFO       ACCESS:     195697  HIT:     194284  MISS:       1413
cpu0_DTLB PREFETCH  ACCESS:          0  HIT:          0  MISS:          0
cpu0_DTLB WRITEBACK ACCESS:          0  HIT:          0  MISS:          0
cpu0_ITLB TOTAL     ACCESS:     137165  HIT:     137165  MISS:          0
cpu0_ITLB LOAD      ACCESS:     137165  HIT:     137165  MISS:          0
cpu0_ITLB RFO       ACCESS:          0  HIT:          0  MISS:          0
cpu0_ITLB PREFETCH  ACCESS:          0  HIT:          0  MISS:          0
cpu0_ITLB WRITEBACK ACCESS:          0  HIT:          0  MISS:          0
cpu0_L1I TOTAL     ACCESS:        565  HIT:        561  MISS:          4
cpu0_L1I LOAD      ACCESS:        565  HIT:        561  MISS:          4
cpu0_L1I RFO       ACCESS:          0  HIT:          0  MISS:          0
cpu0_L1I PREFETCH  ACCESS:          0  HIT:          0  MISS:          0
cpu0_L1I WRITEBACK ACCESS:          0  HIT:          0  MISS:          0
cpu0_STLB TOTAL     ACCESS:       2885  HIT:         39  MISS:       2846
cpu0_STLB LOAD      ACCESS:       1472  HIT:         39  MISS:       1433
cpu0_STLB RFO       ACCESS:       1413  HIT:          0  MISS:       1413
cpu0_STLB PREFETCH  ACCESS:          0  HIT:          0  MISS:          0
cpu0_STLB WRITEBACK ACCESS:          0  HIT:          0  MISS:          0
cpu0_L1D TOTAL     ACCESS:    7632056  HIT:    7454701  MISS:     177355
cpu0_L1D LOAD      ACCESS:    7509233  HIT:    7420381  MISS:      88852
cpu0_L1D RFO       ACCESS:     119980  HIT:      31479  MISS:      88501
cpu0_L1D PREFETCH  ACCESS:          0  HIT:          0  MISS:          0
cpu0_L1D WRITEBACK ACCESS:          0  HIT:          0  MISS:          0
cpu0_L2C TOTAL     ACCESS:     265989  HIT:      88719  MISS:     177270
cpu0_L2C LOAD      ACCESS:      88856  HIT:         89  MISS:      88767
cpu0_L2C RFO       ACCESS:      88501  HIT:          0  MISS:      88501
cpu0_L2C PREFETCH  ACCESS:          0  HIT:          0  MISS:          0
cpu0_L2C WRITEBACK ACCESS:      88630  HIT:      88630  MISS:          0
LLC TOTAL     ACCESS:     266320  HIT:        774  MISS:     265546
LLC LOAD      ACCESS:      88767  HIT:        300  MISS:      88467
LLC RFO       ACCESS:      88501  HIT:         51  MISS:      88450
LLC PREFETCH  ACCESS:          0  HIT:          0  MISS:          0
LLC WRITEBACK ACCESS:      89050  HIT:        422  MISS:      88628
Heartbeat CPU 0 instructions: 84000000 cycles: 47931316 heartbeat IPC: 0.905144 cumulative IPC: 1.18553 (Simulation time: 1 hr 26 min 59 sec) 

Region of Interest Statistics
cpu0_DTLB TOTAL     ACCESS:    6304094  HIT:    6300822  MISS:       3272
cpu0_DTLB LOAD      ACCESS:    6087661  HIT:    6085931  MISS:       1730
cpu0_DTLB RFO       ACCESS:     216433  HIT:     214891  MISS:       1542
cpu0_DTLB PREFETCH  ACCESS:          0  HIT:          0  MISS:          0
cpu0_DTLB WRITEBACK ACCESS:          0  HIT:          0  MISS:          0
cpu0_ITLB TOTAL     ACCESS:     151568  HIT:     151568  MISS:          0
cpu0_ITLB LOAD      ACCESS:     151568  HIT:     151568  MISS:          0
cpu0_ITLB RFO       ACCESS:          0  HIT:          0  MISS:          0
cpu0_ITLB PREFETCH  ACCESS:          0  HIT:          0  MISS:          0
cpu0_ITLB WRITEBACK ACCESS:          0  HIT:          0  MISS:          0
cpu0_L1I TOTAL     ACCESS:        567  HIT:        562  MISS:          5
cpu0_L1I LOAD      ACCESS:        567  HIT:        562  MISS:          5
cpu0_L1I RFO       ACCESS:          0  HIT:          0  MISS:          0
cpu0_L1I PREFETCH  ACCESS:          0  HIT:          0  MISS:          0
cpu0_L1I WRITEBACK ACCESS:          0  HIT:          0  MISS:          0
cpu0_STLB TOTAL     ACCESS:       3272  HIT:         39  MISS:       3233
cpu0_STLB LOAD      ACCESS:       1730  HIT:         39  MISS:       1691
cpu0_STLB RFO       ACCESS:       1542  HIT:          0  MISS:       1542
cpu0_STLB PREFETCH  ACCESS:          0  HIT:          0  MISS:          0
cpu0_STLB WRITEBACK ACCESS:          0  HIT:          0  MISS:          0
cpu0_L1D TOTAL     ACCESS:    8038818  HIT:    7837665  MISS:     201153
cpu0_L1D LOAD      ACCESS:    7907668  HIT:    7802958  MISS:     104710
cpu0_L1D RFO       ACCESS:     127920  HIT:      31479  MISS:      96441
cpu0_L1D PREFETCH  ACCESS:          0  HIT:          0  MISS:          0
cpu0_L1D WRITEBACK ACCESS:          0  HIT:          0  MISS:          0
cpu0_L2C TOTAL     ACCESS:     297725  HIT:      96659  MISS:     201066
cpu0_L2C LOAD      ACCESS:     104715  HIT:         92  MISS:     104623
cpu0_L2C RFO       ACCESS:      96441  HIT:          0  MISS:      96441
cpu0_L2C PREFETCH  ACCESS:          0  HIT:          0  MISS:          0
cpu0_L2C WRITEBACK ACCESS:      96567  HIT:      96567  MISS:          0
LLC TOTAL     ACCESS:     299057  HIT:      10701  MISS:     288356
LLC LOAD      ACCESS:     104623  HIT:       4880  MISS:      99743
LLC RFO       ACCESS:      96441  HIT:         51  MISS:      96390
LLC PREFETCH  ACCESS:          0  HIT:          0  MISS:          0
LLC WRITEBACK ACCESS:      97991  HIT:       5769  MISS:      92222
Heartbeat CPU 0 instructions: 86000003 cycles: 50434934 heartbeat IPC: 0.798845 cumulative IPC: 1.15448 (Simulation time: 1 hr 30 min 26 sec) 

Region of Interest Statistics
cpu0_DTLB TOTAL     ACCESS:    6647452  HIT:    6643794  MISS:       3658
cpu0_DTLB LOAD      ACCESS:    6412058  HIT:    6410070  MISS:       1988
cpu0_DTLB RFO       ACCESS:     235394  HIT:     233724  MISS:       1670
cpu0_DTLB PREFETCH  ACCESS:          0  HIT:          0  MISS:          0
cpu0_DTLB WRITEBACK ACCESS:          0  HIT:          0  MISS:          0
cpu0_ITLB TOTAL     ACCESS:     164798  HIT:     164798  MISS:          0
cpu0_ITLB LOAD      ACCESS:     164798  HIT:     164798  MISS:          0
cpu0_ITLB RFO       ACCESS:          0  HIT:          0  MISS:          0
cpu0_ITLB PREFETCH  ACCESS:          0  HIT:          0  MISS:          0
cpu0_ITLB WRITEBACK ACCESS:          0  HIT:          0  MISS:          0
cpu0_L1I TOTAL     ACCESS:        567  HIT:        562  MISS:          5
cpu0_L1I LOAD      ACCESS:        567  HIT:        562  MISS:          5
cpu0_L1I RFO       ACCESS:          0  HIT:          0  MISS:          0
cpu0_L1I PREFETCH  ACCESS:          0  HIT:          0  MISS:          0
cpu0_L1I WRITEBACK ACCESS:          0  HIT:          0  MISS:          0
cpu0_STLB TOTAL     ACCESS:       3658  HIT:         39  MISS:       3619
cpu0_STLB LOAD      ACCESS:       1988  HIT:         39  MISS:       1949
cpu0_STLB RFO       ACCESS:       1670  HIT:          0  MISS:       1670
cpu0_STLB PREFETCH  ACCESS:          0  HIT:          0  MISS:          0
cpu0_STLB WRITEBACK ACCESS:          0  HIT:          0  MISS:          0
cpu0_L1D TOTAL     ACCESS:    8441813  HIT:    8216874  MISS:     224939
cpu0_L1D LOAD      ACCESS:    8302350  HIT:    8181781  MISS:     120569
cpu0_L1D RFO       ACCESS:     135847  HIT:      31479  MISS:     104368
cpu0_L1D PREFETCH  ACCESS:          0  HIT:          0  MISS:          0
cpu0_L1D WRITEBACK ACCESS:          0  HIT:          0  MISS:          0
cpu0_L2C TOTAL     ACCESS:     329438  HIT:     104590  MISS:     224848
cpu0_L2C LOAD      ACCESS:     120574  HIT:         96  MISS:     120478
cpu0_L2C RFO       ACCESS:     104368  HIT:          0  MISS:     104368
cpu0_L2C PREFETCH  ACCESS:          0  HIT:          0  MISS:          0
cpu0_L2C WRITEBACK ACCESS:     104494  HIT:     104494  MISS:          0
LLC TOTAL     ACCESS:     330890  HIT:      19101  MISS:     311789
LLC LOAD      ACCESS:     120478  HIT:       5229  MISS:     115249
LLC RFO       ACCESS:     104368  HIT:         51  MISS:     104317
LLC PREFETCH  ACCESS:          0  HIT:          0  MISS:          0
LLC WRITEBACK ACCESS:     106042  HIT:      13820  MISS:      92222
Heartbeat CPU 0 instructions: 88000002 cycles: 52891076 heartbeat IPC: 0.814285 cumulative IPC: 1.12964 (Simulation time: 1 hr 33 min 51 sec) 

Region of Interest Statistics
cpu0_DTLB TOTAL     ACCESS:    6990525  HIT:    6986482  MISS:       4043
cpu0_DTLB LOAD      ACCESS:    6736011  HIT:    6733767  MISS:       2244
cpu0_DTLB RFO       ACCESS:     254514  HIT:     252715  MISS:       1799
cpu0_DTLB PREFETCH  ACCESS:          0  HIT:          0  MISS:          0
cpu0_DTLB WRITEBACK ACCESS:          0  HIT:          0  MISS:          0
cpu0_ITLB TOTAL     ACCESS:     178160  HIT:     178160  MISS:          0
cpu0_ITLB LOAD      ACCESS:     178160  HIT:     178160  MISS:          0
cpu0_ITLB RFO       ACCESS:          0  HIT:          0  MISS:          0
cpu0_ITLB PREFETCH  ACCESS:          0  HIT:          0  MISS:          0
cpu0_ITLB WRITEBACK ACCESS:          0  HIT:          0  MISS:          0
cpu0_L1I TOTAL     ACCESS:        567  HIT:        562  MISS:          5
cpu0_L1I LOAD      ACCESS:        567  HIT:        562  MISS:          5
cpu0_L1I RFO       ACCESS:          0  HIT:          0  MISS:          0
cpu0_L1I PREFETCH  ACCESS:          0  HIT:          0  MISS:          0
cpu0_L1I WRITEBACK ACCESS:          0  HIT:          0  MISS:          0
cpu0_STLB TOTAL     ACCESS:       4043  HIT:         39  MISS:       4004
cpu0_STLB LOAD      ACCESS:       2244  HIT:         39  MISS:       2205
cpu0_STLB RFO       ACCESS:       1799  HIT:          0  MISS:       1799
cpu0_STLB PREFETCH  ACCESS:          0  HIT:          0  MISS:          0
cpu0_STLB WRITEBACK ACCESS:          0  HIT:          0  MISS:          0
cpu0_L1D TOTAL     ACCESS:    8845716  HIT:    8596989  MISS:     248727
cpu0_L1D LOAD      ACCESS:    8697940  HIT:    8561511  MISS:     136429
cpu0_L1D RFO       ACCESS:     143775  HIT:      31479  MISS:     112296
cpu0_L1D PREFETCH  ACCESS:          0  HIT:          0  MISS:          0
cpu0_L1D WRITEBACK ACCESS:          0  HIT:          0  MISS:          0
cpu0_L2C TOTAL     ACCESS:     361155  HIT:     112522  MISS:     248633
cpu0_L2C LOAD      ACCESS:     136434  HIT:         99  MISS:     136335
cpu0_L2C RFO       ACCESS:     112296  HIT:          0  MISS:     112296
cpu0_L2C PREFETCH  ACCESS:          0  HIT:          0  MISS:          0
cpu0_L2C WRITEBACK ACCESS:     112423  HIT:     112423  MISS:          0
LLC TOTAL     ACCESS:     362473  HIT:      27241  MISS:     335232
LLC LOAD      ACCESS:     136335  HIT:       5571  MISS:     130764
LLC RFO       ACCESS:     112296  HIT:         51  MISS:     112245
LLC PREFETCH  ACCESS:          0  HIT:          0  MISS:          0
LLC WRITEBACK ACCESS:     113840  HIT:      21618  MISS:      92222
Heartbeat CPU 0 instructions: 90000000 cycles: 55417134 heartbeat IPC: 0.791747 cumulative IPC: 1.10604 (Simulation time: 1 hr 37 min 19 sec) 

Region of Interest Statistics
cpu0_DTLB TOTAL     ACCESS:    7333951  HIT:    7329521  MISS:       4430
cpu0_DTLB LOAD      ACCESS:    7062731  HIT:    7060229  MISS:       2502
cpu0_DTLB RFO       ACCESS:     271220  HIT:     269292  MISS:       1928
cpu0_DTLB PREFETCH  ACCESS:          0  HIT:          0  MISS:          0
cpu0_DTLB WRITEBACK ACCESS:          0  HIT:          0  MISS:          0
cpu0_ITLB TOTAL     ACCESS:     190401  HIT:     190401  MISS:          0
cpu0_ITLB LOAD      ACCESS:     190401  HIT:     190401  MISS:          0
cpu0_ITLB RFO       ACCESS:          0  HIT:          0  MISS:          0
cpu0_ITLB PREFETCH  ACCESS:          0  HIT:          0  MISS:          0
cpu0_ITLB WRITEBACK ACCESS:          0  HIT:          0  MISS:          0
cpu0_L1I TOTAL     ACCESS:        567  HIT:        562  MISS:          5
cpu0_L1I LOAD      ACCESS:        567  HIT:        562  MISS:          5
cpu0_L1I RFO       ACCESS:          0  HIT:          0  MISS:          0
cpu0_L1I PREFETCH  ACCESS:          0  HIT:          0  MISS:          0
cpu0_L1I WRITEBACK ACCESS:          0  HIT:          0  MISS:          0
cpu0_STLB TOTAL     ACCESS:       4430  HIT:         39  MISS:       4391
cpu0_STLB LOAD      ACCESS:       2502  HIT:         39  MISS:       2463
cpu0_STLB RFO       ACCESS:       1928  HIT:          0  MISS:       1928
cpu0_STLB PREFETCH  ACCESS:          0  HIT:          0  MISS:          0
cpu0_STLB WRITEBACK ACCESS:          0  HIT:          0  MISS:          0
cpu0_L1D TOTAL     ACCESS:    9243531  HIT:    8971018  MISS:     272513
cpu0_L1D LOAD      ACCESS:    9087441  HIT:    8935154  MISS:     152287
cpu0_L1D RFO       ACCESS:     151702  HIT:      31479  MISS:     120223
cpu0_L1D PREFETCH  ACCESS:          0  HIT:          0  MISS:          0
cpu0_L1D WRITEBACK ACCESS:          0  HIT:          0  MISS:          0
cpu0_L2C TOTAL     ACCESS:     392867  HIT:     120451  MISS:     272416
cpu0_L2C LOAD      ACCESS:     152292  HIT:        102  MISS:     152190
cpu0_L2C RFO       ACCESS:     120223  HIT:          0  MISS:     120223
cpu0_L2C PREFETCH  ACCESS:          0  HIT:          0  MISS:          0
cpu0_L2C WRITEBACK ACCESS:     120349  HIT:     120349  MISS:          0
LLC TOTAL     ACCESS:     394365  HIT:      32729  MISS:     361636
LLC LOAD      ACCESS:     152190  HIT:       5652  MISS:     146538
LLC RFO       ACCESS:     120223  HIT:         51  MISS:     120172
LLC PREFETCH  ACCESS:          0  HIT:          0  MISS:          0
LLC WRITEBACK ACCESS:     121949  HIT:      27025  MISS:      94924
Heartbeat CPU 0 instructions: 92000001 cycles: 57922987 heartbeat IPC: 0.798132 cumulative IPC: 1.08609 (Simulation time: 1 hr 40 min 43 sec) 

Region of Interest Statistics
cpu0_DTLB TOTAL     ACCESS:    7675912  HIT:    7671104  MISS:       4808
cpu0_DTLB LOAD      ACCESS:    7385908  HIT:    7383154  MISS:       2754
cpu0_DTLB RFO       ACCESS:     290004  HIT:     287950  MISS:       2054
cpu0_DTLB PREFETCH  ACCESS:          0  HIT:          0  MISS:          0
cpu0_DTLB WRITEBACK ACCESS:          0  HIT:          0  MISS:          0
cpu0_ITLB TOTAL     ACCESS:     203336  HIT:     203335  MISS:          1
cpu0_ITLB LOAD      ACCESS:     203336  HIT:     203335  MISS:          1
cpu0_ITLB RFO       ACCESS:          0  HIT:          0  MISS:          0
cpu0_ITLB PREFETCH  ACCESS:          0  HIT:          0  MISS:          0
cpu0_ITLB WRITEBACK ACCESS:          0  HIT:          0  MISS:          0
cpu0_L1I TOTAL     ACCESS:        575  HIT:        566  MISS:          9
cpu0_L1I LOAD      ACCESS:        575  HIT:        566  MISS:          9
cpu0_L1I RFO       ACCESS:          0  HIT:          0  MISS:          0
cpu0_L1I PREFETCH  ACCESS:          0  HIT:          0  MISS:          0
cpu0_L1I WRITEBACK ACCESS:          0  HIT:          0  MISS:          0
cpu0_STLB TOTAL     ACCESS:       4809  HIT:         62  MISS:       4747
cpu0_STLB LOAD      ACCESS:       2755  HIT:         62  MISS:       2693
cpu0_STLB RFO       ACCESS:       2054  HIT:          0  MISS:       2054
cpu0_STLB PREFETCH  ACCESS:          0  HIT:          0  MISS:          0
cpu0_STLB WRITEBACK ACCESS:          0  HIT:          0  MISS:          0
cpu0_L1D TOTAL     ACCESS:    9634506  HIT:    9338712  MISS:     295794
cpu0_L1D LOAD      ACCESS:    9470301  HIT:    9302493  MISS:     167808
cpu0_L1D RFO       ACCESS:     159461  HIT:      31479  MISS:     127982
cpu0_L1D PREFETCH  ACCESS:          0  HIT:          0  MISS:          0
cpu0_L1D WRITEBACK ACCESS:          0  HIT:          0  MISS:          0
cpu0_L2C TOTAL     ACCESS:     423911  HIT:     128212  MISS:     295699
cpu0_L2C LOAD      ACCESS:     167817  HIT:        104  MISS:     167713
cpu0_L2C RFO       ACCESS:     127982  HIT:          0  MISS:     127982
cpu0_L2C PREFETCH  ACCESS:          0  HIT:          0  MISS:          0
cpu0_L2C WRITEBACK ACCESS:     128108  HIT:     128108  MISS:          0
LLC TOTAL     ACCESS:     425209  HIT:      36195  MISS:     389014
LLC LOAD      ACCESS:     167713  HIT:       6555  MISS:     161158
LLC RFO       ACCESS:     127982  HIT:         51  MISS:     127931
LLC PREFETCH  ACCESS:          0  HIT:          0  MISS:          0
LLC WRITEBACK ACCESS:     129510  HIT:      29588  MISS:      99922
Heartbeat CPU 0 instructions: 94000000 cycles: 60274048 heartbeat IPC: 0.850679 cumulative IPC: 1.0726 (Simulation time: 1 hr 44 min 1 sec) 

Region of Interest Statistics
cpu0_DTLB TOTAL     ACCESS:    8017091  HIT:    8011908  MISS:       5183
cpu0_DTLB LOAD      ACCESS:    7707787  HIT:    7704783  MISS:       3004
cpu0_DTLB RFO       ACCESS:     309304  HIT:     307125  MISS:       2179
cpu0_DTLB PREFETCH  ACCESS:          0  HIT:          0  MISS:          0
cpu0_DTLB WRITEBACK ACCESS:          0  HIT:          0  MISS:          0
cpu0_ITLB TOTAL     ACCESS:     216392  HIT:     216391  MISS:          1
cpu0_ITLB LOAD      ACCESS:     216392  HIT:     216391  MISS:          1
cpu0_ITLB RFO       ACCESS:          0  HIT:          0  MISS:          0
cpu0_ITLB PREFETCH  ACCESS:          0  HIT:          0  MISS:          0
cpu0_ITLB WRITEBACK ACCESS:          0  HIT:          0  MISS:          0
cpu0_L1I TOTAL     ACCESS:        575  HIT:        566  MISS:          9
cpu0_L1I LOAD      ACCESS:        575  HIT:        566  MISS:          9
cpu0_L1I RFO       ACCESS:          0  HIT:          0  MISS:          0
cpu0_L1I PREFETCH  ACCESS:          0  HIT:          0  MISS:          0
cpu0_L1I WRITEBACK ACCESS:          0  HIT:          0  MISS:          0
cpu0_STLB TOTAL     ACCESS:       5184  HIT:         82  MISS:       5102
cpu0_STLB LOAD      ACCESS:       3005  HIT:         82  MISS:       2923
cpu0_STLB RFO       ACCESS:       2179  HIT:          0  MISS:       2179
cpu0_STLB PREFETCH  ACCESS:          0  HIT:          0  MISS:          0
cpu0_STLB WRITEBACK ACCESS:          0  HIT:          0  MISS:          0
cpu0_L1D TOTAL     ACCESS:   10020506  HIT:    9701647  MISS:     318859
cpu0_L1D LOAD      ACCESS:    9848258  HIT:    9665073  MISS:     183185
cpu0_L1D RFO       ACCESS:     167149  HIT:      31479  MISS:     135670
cpu0_L1D PREFETCH  ACCESS:          0  HIT:          0  MISS:          0
cpu0_L1D WRITEBACK ACCESS:          0  HIT:          0  MISS:          0
cpu0_L2C TOTAL     ACCESS:     454664  HIT:     135900  MISS:     318764
cpu0_L2C LOAD      ACCESS:     183194  HIT:        104  MISS:     183090
cpu0_L2C RFO       ACCESS:     135670  HIT:          0  MISS:     135670
cpu0_L2C PREFETCH  ACCESS:          0  HIT:          0  MISS:          0
cpu0_L2C WRITEBACK ACCESS:     135796  HIT:     135796  MISS:          0
LLC TOTAL     ACCESS:     456246  HIT:      44995  MISS:     411251
LLC LOAD      ACCESS:     183090  HIT:       7397  MISS:     175693
LLC RFO       ACCESS:     135670  HIT:         51  MISS:     135619
LLC PREFETCH  ACCESS:          0  HIT:          0  MISS:          0
LLC WRITEBACK ACCESS:     137482  HIT:      37546  MISS:      99936
Heartbeat CPU 0 instructions: 96000000 cycles: 62575239 heartbeat IPC: 0.869115 cumulative IPC: 1.06179 (Simulation time: 1 hr 47 min 18 sec) 

Region of Interest Statistics
cpu0_DTLB TOTAL     ACCESS:    8358895  HIT:    8353337  MISS:       5558
cpu0_DTLB LOAD      ACCESS:    8029669  HIT:    8026415  MISS:       3254
cpu0_DTLB RFO       ACCESS:     329226  HIT:     326922  MISS:       2304
cpu0_DTLB PREFETCH  ACCESS:          0  HIT:          0  MISS:          0
cpu0_DTLB WRITEBACK ACCESS:          0  HIT:          0  MISS:          0
cpu0_ITLB TOTAL     ACCESS:     229737  HIT:     229736  MISS:          1
cpu0_ITLB LOAD      ACCESS:     229737  HIT:     229736  MISS:          1
cpu0_ITLB RFO       ACCESS:          0  HIT:          0  MISS:          0
cpu0_ITLB PREFETCH  ACCESS:          0  HIT:          0  MISS:          0
cpu0_ITLB WRITEBACK ACCESS:          0  HIT:          0  MISS:          0
cpu0_L1I TOTAL     ACCESS:        575  HIT:        566  MISS:          9
cpu0_L1I LOAD      ACCESS:        575  HIT:        566  MISS:          9
cpu0_L1I RFO       ACCESS:          0  HIT:          0  MISS:          0
cpu0_L1I PREFETCH  ACCESS:          0  HIT:          0  MISS:          0
cpu0_L1I WRITEBACK ACCESS:          0  HIT:          0  MISS:          0
cpu0_STLB TOTAL     ACCESS:       5559  HIT:        102  MISS:       5457
cpu0_STLB LOAD      ACCESS:       3255  HIT:        102  MISS:       3153
cpu0_STLB RFO       ACCESS:       2304  HIT:          0  MISS:       2304
cpu0_STLB PREFETCH  ACCESS:          0  HIT:          0  MISS:          0
cpu0_STLB WRITEBACK ACCESS:          0  HIT:          0  MISS:          0
cpu0_L1D TOTAL     ACCESS:   10407974  HIT:   10066054  MISS:     341920
cpu0_L1D LOAD      ACCESS:   10227684  HIT:   10029125  MISS:     198559
cpu0_L1D RFO       ACCESS:     174836  HIT:      31479  MISS:     143357
cpu0_L1D PREFETCH  ACCESS:          0  HIT:          0  MISS:          0
cpu0_L1D WRITEBACK ACCESS:          0  HIT:          0  MISS:          0
cpu0_L2C TOTAL     ACCESS:     485412  HIT:     143587  MISS:     341825
cpu0_L2C LOAD      ACCESS:     198568  HIT:        104  MISS:     198464
cpu0_L2C RFO       ACCESS:     143357  HIT:          0  MISS:     143357
cpu0_L2C PREFETCH  ACCESS:          0  HIT:          0  MISS:          0
cpu0_L2C WRITEBACK ACCESS:     143483  HIT:     143483  MISS:          0
LLC TOTAL     ACCESS:     486825  HIT:      53534  MISS:     433291
LLC LOAD      ACCESS:     198464  HIT:       8418  MISS:     190046
LLC RFO       ACCESS:     143357  HIT:         51  MISS:     143306
LLC PREFETCH  ACCESS:          0  HIT:          0  MISS:          0
LLC WRITEBACK ACCESS:     145000  HIT:      45064  MISS:      99936
Heartbeat CPU 0 instructions: 98000002 cycles: 64895710 heartbeat IPC: 0.861895 cumulative IPC: 1.05162 (Simulation time: 1 hr 50 min 38 sec) 

Region of Interest Statistics
cpu0_DTLB TOTAL     ACCESS:    8699675  HIT:    8693742  MISS:       5933
cpu0_DTLB LOAD      ACCESS:    8352124  HIT:    8348620  MISS:       3504
cpu0_DTLB RFO       ACCESS:     347551  HIT:     345122  MISS:       2429
cpu0_DTLB PREFETCH  ACCESS:          0  HIT:          0  MISS:          0
cpu0_DTLB WRITEBACK ACCESS:          0  HIT:          0  MISS:          0
cpu0_ITLB TOTAL     ACCESS:     242330  HIT:     242329  MISS:          1
cpu0_ITLB LOAD      ACCESS:     242330  HIT:     242329  MISS:          1
cpu0_ITLB RFO       ACCESS:          0  HIT:          0  MISS:          0
cpu0_ITLB PREFETCH  ACCESS:          0  HIT:          0  MISS:          0
cpu0_ITLB WRITEBACK ACCESS:          0  HIT:          0  MISS:          0
cpu0_L1I TOTAL     ACCESS:        575  HIT:        566  MISS:          9
cpu0_L1I LOAD      ACCESS:        575  HIT:        566  MISS:          9
cpu0_L1I RFO       ACCESS:          0  HIT:          0  MISS:          0
cpu0_L1I PREFETCH  ACCESS:          0  HIT:          0  MISS:          0
cpu0_L1I WRITEBACK ACCESS:          0  HIT:          0  MISS:          0
cpu0_STLB TOTAL     ACCESS:       5934  HIT:        122  MISS:       5812
cpu0_STLB LOAD      ACCESS:       3505  HIT:        122  MISS:       3383
cpu0_STLB RFO       ACCESS:       2429  HIT:          0  MISS:       2429
cpu0_STLB PREFETCH  ACCESS:          0  HIT:          0  MISS:          0
cpu0_STLB WRITEBACK ACCESS:          0  HIT:          0  MISS:          0
cpu0_L1D TOTAL     ACCESS:   10792235  HIT:   10427251  MISS:     364984
cpu0_L1D LOAD      ACCESS:   10603902  HIT:   10389967  MISS:     213935
cpu0_L1D RFO       ACCESS:     182524  HIT:      31479  MISS:     151045
cpu0_L1D PREFETCH  ACCESS:          0  HIT:          0  MISS:          0
cpu0_L1D WRITEBACK ACCESS:          0  HIT:          0  MISS:          0
cpu0_L2C TOTAL     ACCESS:     516164  HIT:     151275  MISS:     364889
cpu0_L2C LOAD      ACCESS:     213944  HIT:        104  MISS:     213840
cpu0_L2C RFO       ACCESS:     151045  HIT:          0  MISS:     151045
cpu0_L2C PREFETCH  ACCESS:          0  HIT:          0  MISS:          0
cpu0_L2C WRITEBACK ACCESS:     151171  HIT:     151171  MISS:          0
LLC TOTAL     ACCESS:     517263  HIT:      61745  MISS:     455518
LLC LOAD      ACCESS:     213840  HIT:       9255  MISS:     204585
LLC RFO       ACCESS:     151045  HIT:         51  MISS:     150994
LLC PREFETCH  ACCESS:          0  HIT:          0  MISS:          0
LLC WRITEBACK ACCESS:     152374  HIT:      52438  MISS:      99936
Heartbeat CPU 0 instructions: 100000000 cycles: 67262444 heartbeat IPC: 0.845046 cumulative IPC: 1.04144 (Simulation time: 1 hr 53 min 54 sec) 

Region of Interest Statistics
cpu0_DTLB TOTAL     ACCESS:    9041874  HIT:    9035563  MISS:       6311
cpu0_DTLB LOAD      ACCESS:    8674120  HIT:    8670364  MISS:       3756
cpu0_DTLB RFO       ACCESS:     367754  HIT:     365199  MISS:       2555
cpu0_DTLB PREFETCH  ACCESS:          0  HIT:          0  MISS:          0
cpu0_DTLB WRITEBACK ACCESS:          0  HIT:          0  MISS:          0
cpu0_ITLB TOTAL     ACCESS:     255798  HIT:     255797  MISS:          1
cpu0_ITLB LOAD      ACCESS:     255798  HIT:     255797  MISS:          1
cpu0_ITLB RFO       ACCESS:          0  HIT:          0  MISS:          0
cpu0_ITLB PREFETCH  ACCESS:          0  HIT:          0  MISS:          0
cpu0_ITLB WRITEBACK ACCESS:          0  HIT:          0  MISS:          0
cpu0_L1I TOTAL     ACCESS:        582  HIT:        569  MISS:         13
cpu0_L1I LOAD      ACCESS:        582  HIT:        569  MISS:         13
cpu0_L1I RFO       ACCESS:          0  HIT:          0  MISS:          0
cpu0_L1I PREFETCH  ACCESS:          0  HIT:          0  MISS:          0
cpu0_L1I WRITEBACK ACCESS:          0  HIT:          0  MISS:          0
cpu0_STLB TOTAL     ACCESS:       6312  HIT:        131  MISS:       6181
cpu0_STLB LOAD      ACCESS:       3757  HIT:        131  MISS:       3626
cpu0_STLB RFO       ACCESS:       2555  HIT:          0  MISS:       2555
cpu0_STLB PREFETCH  ACCESS:          0  HIT:          0  MISS:          0
cpu0_STLB WRITEBACK ACCESS:          0  HIT:          0  MISS:          0
cpu0_L1D TOTAL     ACCESS:   11186201  HIT:   10797981  MISS:     388220
cpu0_L1D LOAD      ACCESS:   10989754  HIT:   10760328  MISS:     229426
cpu0_L1D RFO       ACCESS:     190269  HIT:      31479  MISS:     158790
cpu0_L1D PREFETCH  ACCESS:          0  HIT:          0  MISS:          0
cpu0_L1D WRITEBACK ACCESS:          0  HIT:          0  MISS:          0
cpu0_L2C TOTAL     ACCESS:     547150  HIT:     159021  MISS:     388129
cpu0_L2C LOAD      ACCESS:     229439  HIT:        104  MISS:     229335
cpu0_L2C RFO       ACCESS:     158790  HIT:          0  MISS:     158790
cpu0_L2C PREFETCH  ACCESS:          0  HIT:          0  MISS:          0
cpu0_L2C WRITEBACK ACCESS:     158917  HIT:     158917  MISS:          0
LLC TOTAL     ACCESS:     548488  HIT:      69654  MISS:     478834
LLC LOAD      ACCESS:     229335  HIT:       9504  MISS:     219831
LLC RFO       ACCESS:     158790  HIT:         51  MISS:     158739
LLC PREFETCH  ACCESS:          0  HIT:          0  MISS:          0
LLC WRITEBACK ACCESS:     160359  HIT:      60098  MISS:     100261
Heartbeat CPU 0 instructions: 102000002 cycles: 70238907 heartbeat IPC: 0.671939 cumulative IPC: 1.01987 (Simulation time: 1 hr 57 min 44 sec) 

Region of Interest Statistics
cpu0_DTLB TOTAL     ACCESS:    9384297  HIT:    9377598  MISS:       6699
cpu0_DTLB LOAD      ACCESS:    8996466  HIT:    8992452  MISS:       4014
cpu0_DTLB RFO       ACCESS:     387831  HIT:     385146  MISS:       2685
cpu0_DTLB PREFETCH  ACCESS:          0  HIT:          0  MISS:          0
cpu0_DTLB WRITEBACK ACCESS:          0  HIT:          0  MISS:          0
cpu0_ITLB TOTAL     ACCESS:     268765  HIT:     268764  MISS:          1
cpu0_ITLB LOAD      ACCESS:     268765  HIT:     268764  MISS:          1
cpu0_ITLB RFO       ACCESS:          0  HIT:          0  MISS:          0
cpu0_ITLB PREFETCH  ACCESS:          0  HIT:          0  MISS:          0
cpu0_ITLB WRITEBACK ACCESS:          0  HIT:          0  MISS:          0
cpu0_L1I TOTAL     ACCESS:        583  HIT:        570  MISS:         13
cpu0_L1I LOAD      ACCESS:        583  HIT:        570  MISS:         13
cpu0_L1I RFO       ACCESS:          0  HIT:          0  MISS:          0
cpu0_L1I PREFETCH  ACCESS:          0  HIT:          0  MISS:          0
cpu0_L1I WRITEBACK ACCESS:          0  HIT:          0  MISS:          0
cpu0_STLB TOTAL     ACCESS:       6700  HIT:        142  MISS:       6558
cpu0_STLB LOAD      ACCESS:       4015  HIT:        142  MISS:       3873
cpu0_STLB RFO       ACCESS:       2685  HIT:          0  MISS:       2685
cpu0_STLB PREFETCH  ACCESS:          0  HIT:          0  MISS:          0
cpu0_STLB WRITEBACK ACCESS:          0  HIT:          0  MISS:          0
cpu0_L1D TOTAL     ACCESS:   11598760  HIT:   11186751  MISS:     412009
cpu0_L1D LOAD      ACCESS:   11394003  HIT:   11148721  MISS:     245282
cpu0_L1D RFO       ACCESS:     198202  HIT:      31479  MISS:     166723
cpu0_L1D PREFETCH  ACCESS:          0  HIT:          0  MISS:          0
cpu0_L1D WRITEBACK ACCESS:          0  HIT:          0  MISS:          0
cpu0_L2C TOTAL     ACCESS:     578871  HIT:     166957  MISS:     411914
cpu0_L2C LOAD      ACCESS:     245295  HIT:        104  MISS:     245191
cpu0_L2C RFO       ACCESS:     166723  HIT:          4  MISS:     166719
cpu0_L2C PREFETCH  ACCESS:          0  HIT:          0  MISS:          0
cpu0_L2C WRITEBACK ACCESS:     166849  HIT:     166849  MISS:          0
LLC TOTAL     ACCESS:     579918  HIT:      77115  MISS:     502803
LLC LOAD      ACCESS:     245191  HIT:       9919  MISS:     235272
LLC RFO       ACCESS:     166719  HIT:         51  MISS:     166668
LLC PREFETCH  ACCESS:          0  HIT:          0  MISS:          0
LLC WRITEBACK ACCESS:     168004  HIT:      67144  MISS:     100860
Heartbeat CPU 0 instructions: 104000000 cycles: 73116182 heartbeat IPC: 0.695101 cumulative IPC: 1.00252 (Simulation time: 2 hr 1 min 28 sec) 

Region of Interest Statistics
cpu0_DTLB TOTAL     ACCESS:    9726350  HIT:    9719270  MISS:       7080
cpu0_DTLB LOAD      ACCESS:    9318691  HIT:    9314424  MISS:       4267
cpu0_DTLB RFO       ACCESS:     407659  HIT:     404846  MISS:       2813
cpu0_DTLB PREFETCH  ACCESS:          0  HIT:          0  MISS:          0
cpu0_DTLB WRITEBACK ACCESS:          0  HIT:          0  MISS:          0
cpu0_ITLB TOTAL     ACCESS:     281364  HIT:     281363  MISS:          1
cpu0_ITLB LOAD      ACCESS:     281364  HIT:     281363  MISS:          1
cpu0_ITLB RFO       ACCESS:          0  HIT:          0  MISS:          0
cpu0_ITLB PREFETCH  ACCESS:          0  HIT:          0  MISS:          0
cpu0_ITLB WRITEBACK ACCESS:          0  HIT:          0  MISS:          0
cpu0_L1I TOTAL     ACCESS:        583  HIT:        570  MISS:         13
cpu0_L1I LOAD      ACCESS:        583  HIT:        570  MISS:         13
cpu0_L1I RFO       ACCESS:          0  HIT:          0  MISS:          0
cpu0_L1I PREFETCH  ACCESS:          0  HIT:          0  MISS:          0
cpu0_L1I WRITEBACK ACCESS:          0  HIT:          0  MISS:          0
cpu0_STLB TOTAL     ACCESS:       7081  HIT:        157  MISS:       6924
cpu0_STLB LOAD      ACCESS:       4268  HIT:        157  MISS:       4111
cpu0_STLB RFO       ACCESS:       2813  HIT:          0  MISS:       2813
cpu0_STLB PREFETCH  ACCESS:          0  HIT:          0  MISS:          0
cpu0_STLB WRITEBACK ACCESS:          0  HIT:          0  MISS:          0
cpu0_L1D TOTAL     ACCESS:   12011220  HIT:   11575425  MISS:     435795
cpu0_L1D LOAD      ACCESS:   11798166  HIT:   11537029  MISS:     261137
cpu0_L1D RFO       ACCESS:     206133  HIT:      31479  MISS:     174654
cpu0_L1D PREFETCH  ACCESS:          0  HIT:          0  MISS:          0
cpu0_L1D WRITEBACK ACCESS:          0  HIT:          0  MISS:          0
cpu0_L2C TOTAL     ACCESS:     610588  HIT:     174892  MISS:     435696
cpu0_L2C LOAD      ACCESS:     261150  HIT:        104  MISS:     261046
cpu0_L2C RFO       ACCESS:     174654  HIT:          8  MISS:     174646
cpu0_L2C PREFETCH  ACCESS:          0  HIT:          0  MISS:          0
cpu0_L2C WRITEBACK ACCESS:     174780  HIT:     174780  MISS:          0
LLC TOTAL     ACCESS:     612066  HIT:      85855  MISS:     526211
LLC LOAD      ACCESS:     261046  HIT:      10293  MISS:     250753
LLC RFO       ACCESS:     174646  HIT:         51  MISS:     174595
LLC PREFETCH  ACCESS:          0  HIT:          0  MISS:          0
LLC WRITEBACK ACCESS:     176370  HIT:      75510  MISS:     100860
Heartbeat CPU 0 instructions: 106000004 cycles: 75795122 heartbeat IPC: 0.746565 cumulative IPC: 0.990395 (Simulation time: 2 hr 4 min 59 sec) 

Region of Interest Statistics
cpu0_DTLB TOTAL     ACCESS:   10069052  HIT:   10061589  MISS:       7463
cpu0_DTLB LOAD      ACCESS:    9640925  HIT:    9636404  MISS:       4521
cpu0_DTLB RFO       ACCESS:     428127  HIT:     425185  MISS:       2942
cpu0_DTLB PREFETCH  ACCESS:          0  HIT:          0  MISS:          0
cpu0_DTLB WRITEBACK ACCESS:          0  HIT:          0  MISS:          0
cpu0_ITLB TOTAL     ACCESS:     294349  HIT:     294348  MISS:          1
cpu0_ITLB LOAD      ACCESS:     294349  HIT:     294348  MISS:          1
cpu0_ITLB RFO       ACCESS:          0  HIT:          0  MISS:          0
cpu0_ITLB PREFETCH  ACCESS:          0  HIT:          0  MISS:          0
cpu0_ITLB WRITEBACK ACCESS:          0  HIT:          0  MISS:          0
cpu0_L1I TOTAL     ACCESS:        583  HIT:        570  MISS:         13
cpu0_L1I LOAD      ACCESS:        583  HIT:        570  MISS:         13
cpu0_L1I RFO       ACCESS:          0  HIT:          0  MISS:          0
cpu0_L1I PREFETCH  ACCESS:          0  HIT:          0  MISS:          0
cpu0_L1I WRITEBACK ACCESS:          0  HIT:          0  MISS:          0
cpu0_STLB TOTAL     ACCESS:       7464  HIT:        176  MISS:       7288
cpu0_STLB LOAD      ACCESS:       4522  HIT:        176  MISS:       4346
cpu0_STLB RFO       ACCESS:       2942  HIT:          0  MISS:       2942
cpu0_STLB PREFETCH  ACCESS:          0  HIT:          0  MISS:          0
cpu0_STLB WRITEBACK ACCESS:          0  HIT:          0  MISS:          0
cpu0_L1D TOTAL     ACCESS:   12424310  HIT:   11964727  MISS:     459583
cpu0_L1D LOAD      ACCESS:   12202960  HIT:   11925967  MISS:     276993
cpu0_L1D RFO       ACCESS:     214065  HIT:      31479  MISS:     182586
cpu0_L1D PREFETCH  ACCESS:          0  HIT:          0  MISS:          0
cpu0_L1D WRITEBACK ACCESS:          0  HIT:          0  MISS:          0
cpu0_L2C TOTAL     ACCESS:     642308  HIT:     182827  MISS:     459481
cpu0_L2C LOAD      ACCESS:     277006  HIT:        104  MISS:     276902
cpu0_L2C RFO       ACCESS:     182586  HIT:         11  MISS:     182575
cpu0_L2C PREFETCH  ACCESS:          0  HIT:          0  MISS:          0
[...]
cpu0_DTLB WRITEBACK ACCESS:          0  HIT:          0  MISS:          0
cpu0_DTLB TRANSLATION ACCESS:          0  HIT:          0  MISS:          0
cpu0_DTLB PREFETCH  REQUESTED:          0  ISSUED:          0  USEFUL:          0  USELESS:          0
cpu0_DTLB AVERAGE MISS LATENCY: 23.2045 cycles
cpu0_ITLB TOTAL     ACCESS:   18050742  HIT:   18050679  MISS:         63
cpu0_ITLB LOAD      ACCESS:   18050742  HIT:   18050679  MISS:         63
cpu0_ITLB RFO       ACCESS:          0  HIT:          0  MISS:          0
cpu0_ITLB PREFETCH  ACCESS:          0  HIT:          0  MISS:          0
cpu0_ITLB WRITEBACK ACCESS:          0  HIT:          0  MISS:          0
cpu0_ITLB TRANSLATION ACCESS:          0  HIT:          0  MISS:          0
cpu0_ITLB PREFETCH  REQUESTED:          0  ISSUED:          0  USEFUL:          0  USELESS:          0
cpu0_ITLB AVERAGE MISS LATENCY: 214.429 cycles
cpu0_L1I TOTAL     ACCESS:   33971370  HIT:   33970047  MISS:       1323
cpu0_L1I LOAD      ACCESS:   33971370  HIT:   33970047  MISS:       1323
cpu0_L1I RFO       ACCESS:          0  HIT:          0  MISS:          0
cpu0_L1I PREFETCH  ACCESS:          0  HIT:          0  MISS:          0
cpu0_L1I WRITEBACK ACCESS:          0  HIT:          0  MISS:          0
cpu0_L1I TRANSLATION ACCESS:          0  HIT:          0  MISS:          0
cpu0_L1I PREFETCH  REQUESTED:          0  ISSUED:          0  USEFUL:          0  USELESS:          0
cpu0_L1I AVERAGE MISS LATENCY: 370.376 cycles
cpu0_STLB TOTAL     ACCESS:     350086  HIT:     183925  MISS:     166161
cpu0_STLB LOAD      ACCESS:     281501  HIT:     161329  MISS:     120172
cpu0_STLB RFO       ACCESS:      68585  HIT:      22596  MISS:      45989
cpu0_STLB PREFETCH  ACCESS:          0  HIT:          0  MISS:          0
cpu0_STLB WRITEBACK ACCESS:          0  HIT:          0  MISS:          0
cpu0_STLB TRANSLATION ACCESS:          0  HIT:          0  MISS:          0
cpu0_STLB PREFETCH  REQUESTED:          0  ISSUED:          0  USEFUL:          0  USELESS:          0
cpu0_STLB AVERAGE MISS LATENCY: 29.9434 cycles
cpu0_L1D TOTAL     ACCESS:  397576088  HIT:  382654507  MISS:   14921581
cpu0_L1D LOAD      ACCESS:  360576335  HIT:  349149234  MISS:   11427101
cpu0_L1D RFO       ACCESS:   36843870  HIT:   33363057  MISS:    3480813
cpu0_L1D PREFETCH  ACCESS:          0  HIT:          0  MISS:          0
cpu0_L1D WRITEBACK ACCESS:          0  HIT:          0  MISS:          0
cpu0_L1D TRANSLATION ACCESS:     155883  HIT:     142216  MISS:      13667
cpu0_L1D PREFETCH  REQUESTED:          0  ISSUED:          0  USEFUL:          0  USELESS:          0
cpu0_L1D AVERAGE MISS LATENCY: 199.244 cycles
cpu0_L2C TOTAL     ACCESS:   19562193  HIT:    8092136  MISS:   11470057
cpu0_L2C LOAD      ACCESS:   11428199  HIT:    2604023  MISS:    8824176
cpu0_L2C RFO       ACCESS:    3480744  HIT:     842967  MISS:    2637777
cpu0_L2C PREFETCH  ACCESS:          0  HIT:          0  MISS:          0
cpu0_L2C WRITEBACK ACCESS:    4639583  HIT:    4632210  MISS:       7373
cpu0_L2C TRANSLATION ACCESS:      13667  HIT:      12936  MISS:        731
cpu0_L2C PREFETCH  REQUESTED:          0  ISSUED:          0  USEFUL:          0  USELESS:          0
cpu0_L2C AVERAGE MISS LATENCY: 244.914 cycles
LLC TOTAL     ACCESS:   14973466  HIT:    3678173  MISS:   11295293
LLC LOAD      ACCESS:    8824174  HIT:    2185801  MISS:    6638373
LLC RFO       ACCESS:    2637773  HIT:     351865  MISS:    2285908
LLC PREFETCH  ACCESS:          0  HIT:          0  MISS:          0
LLC WRITEBACK ACCESS:    3510788  HIT:    1140270  MISS:    2370518
LLC TRANSLATION ACCESS:        731  HIT:        237  MISS:        494
LLC PREFETCH  REQUESTED:          0  ISSUED:          0  USEFUL:          0  USELESS:          0
LLC AVERAGE MISS LATENCY: 227.392 cycles
~~~~~~~~~~Reuse Distance Profiler output~~~~~~~~~~
0	12836864	8186432
1	15759472	12147760
2	22614624	18562112
3	23961232	22346704
4	27867552	27105488
5	24836160	24295616
6	25074512	24513184
7	22701344	22146736
8	17495920	16674144
9	14562576	14078416
10	12389584	11768464
11	10994960	10460528
12	9438896	8648256
13	7148064	6439232
14	7865872	7085456
15	8385872	7363568
16	8495280	7363744
17	6338176	5817088
18	5561840	4848576
19	5815776	5235296
20	5331168	4842912
21	4577920	4189760
22	4995648	4635200
23	4453456	4153328
24	4381936	4115472
25	3551952	3321568
26	3556384	3306800
27	3165520	2900896
28	2972288	2804144
29	3107776	2907760
30	2969872	2786704
31	3231040	3004720
32	2034848	1898288
33	2640192	2500112
34	2717456	2552176
35	2637280	2355584
36	3243872	3026928
37	3979184	3679344
38	2311472	2133136
39	1874144	1721184
40	1701472	1514976
41	1704624	1527072
42	1516000	1384080
43	1731840	1635296
44	1378768	1211456
45	1663600	1468160
46	1503424	1424768
47	1313488	1207776
48	1073504	995520
49	1174448	1069552
50	921664	862864
51	781328	666176
52	743392	648576
53	887232	767888
54	704000	574576
55	881440	808384
56	634640	558064
57	588256	509744
58	375536	319040
59	478720	338432
60	575552	529552
61	471296	433248
62	541760	484592
63	396752	355312
64	824576	759344
66	936128	832304
68	751184	666000
70	820352	766400
72	811120	765648
74	632944	575872
76	489696	420560
78	414432	378992
80	281776	250000
82	460528	444544
84	324768	287536
86	330592	318576
88	291152	244576
90	283248	273696
92	286384	279824
94	152608	145344
96	136144	130416
98	202832	137616
100	185232	179920
102	143328	139344
104	127424	123968
106	81824	78880
108	46592	43904
110	182928	180832
112	85824	83888
114	78560	76352
116	156768	154736
118	54992	52992
120	31376	29008
122	33888	31920
124	69312	67296
126	55248	53808
128	50608	48608
132	34160	32640
136	23904	22608
140	18144	17152
144	13632	12960
148	19408	19104
152	20640	20304
156	47728	47600
160	46624	46560
164	35584	35440
168	43792	43760
172	19808	19776
176	10672	10656
180	5136	5088
184	7824	5152
188	10960	3456
192	15104	8224
196	14144	9856
200	7296	3568
204	8944	6128
208	4112	2416
212	3808	3728
216	2336	2336
220	1088	1088
224	640	640
228	1616	1616
232	1344	1344
236	1440	1440
240	1504	1504
244	688	688
248	1616	1616
252	1232	1232
256	1920	1920
264	4624	4624
272	3968	3968
280	4720	4720
288	6928	6928
296	10784	10784
304	11264	11248
312	14464	14448
320	16784	16656
328	21040	20992
336	17168	16912
344	16560	14592
352	22912	18160
360	22720	19264
368	19280	18544
376	19776	18512
384	19952	16304
392	23296	20560
400	17760	16192
408	16032	15856
416	18928	18928
424	19520	19520
432	24176	24176
440	31392	31392
448	28064	28048
456	31648	31648
464	34000	34000
472	40000	40000
480	41728	41728
488	49152	49152
496	58000	58000
504	52576	52576
512	105584	105584
528	112288	111872
544	118048	115984
560	116256	111664
576	92912	92624
592	78464	77376
608	72608	70960
624	103680	103216
640	124960	124944
656	98112	98096
672	73488	73488
688	29792	29744
704	14112	14032
720	16400	16208
736	29248	27904
752	39936	38288
768	39712	38832
784	39376	38784
800	44480	42960
816	37312	36560
832	37088	37088
848	34960	34960
864	28544	28544
880	24128	24128
896	19760	19760
912	18032	18016
928	11200	11120
944	9920	9712
960	10864	10496
976	10304	9600
992	10944	10144
1008	9440	8704
1024	19760	17760
1056	19104	15120
1088	12128	10432
1120	6672	6608
1152	3792	3760
1184	8992	8992
1216	206912	206848
1248	155600	155248
1280	168976	166496
1312	22144	20992
1344	26528	24032
1376	12848	12064
1408	35744	33552
1440	16688	14640
1472	13872	13152
1504	11472	10544
1536	8112	6928
1568	5584	4640
1600	9008	7776
1632	15264	10928
1664	9248	8672
1696	7728	6192
1728	6000	4416
1760	7232	7232
1792	4848	4848
1824	6032	6000
1856	4288	4112
1888	7728	5312
1920	38960	37872
1952	83424	82608
1984	58816	57088
2016	16464	13392
2048	33344	26160
2112	7552	5424
2176	12800	8192
2240	9840	8928
2304	13216	10272
2368	12480	11792
2432	10480	6912
2496	12720	11808
2560	14032	10224
2624	18976	17328
2688	31648	26688
2752	16048	15056
2816	13360	12720
2880	18288	15952
2944	13808	11040
3008	13568	11760
3072	19376	15408
3136	23552	10032
3200	33664	13520
3264	30896	10112
3328	38448	21472
3392	39744	21776
3456	43408	20736
3520	40208	17392
3584	26800	19888
3648	24480	24192
3712	25344	23312
3776	27664	22576
3840	11344	11344
3904	10016	10016
3968	17216	17056
4032	29968	23872
4096	56400	56064
4224	73120	71120
4352	108352	103264
4480	83728	80464
4608	78992	72704
4736	74848	74848
4864	77552	73296
4992	100352	90544
5120	100752	93488
5248	83696	81280
5376	78640	77216
5504	67424	66448
5632	61440	60384
5760	54640	53904
5888	31152	30256
6016	32880	32240
6144	29024	28096
6272	12880	11792
6400	18656	16448
6528	53920	34688
6656	41584	32160
6784	47088	32832
6912	52256	35936
7040	32464	17024
7168	21008	9680
7296	12336	2016
7424	14976	4704
7552	20752	10176
7680	46528	35664
7808	79072	68288
7936	76272	65456
8064	67408	56176
8192	131120	108160
8448	128288	108192
8704	128560	110816
8960	110464	98384
9216	54688	50336
9472	15744	15392
9728	19776	18208
9984	41424	27536
10240	114064	52736
10496	128912	61264
10752	128544	69424
11008	144112	84880
11264	155440	97248
11520	132176	86880
11776	92096	64784
12032	87168	64688
12288	68656	58320
12544	72000	68784
12800	64048	63312
13056	46528	46272
13312	44800	43088
13568	55968	42400
13824	122544	80976
14080	131696	78512
14336	129872	75504
14592	139600	78592
14848	138912	77376
15104	128944	69520
15360	95072	55488
15616	60832	42416
15872	53440	35344
16128	51632	30688
16384	185632	64624
16896	100240	70912
17408	85184	49040
17920	68480	32464
18432	64352	24352
18944	78976	37136
19456	340720	204992
19968	244720	155424
20480	60576	28640
20992	15920	7344
21504	9584	4368
22016	5504	688
22528	5728	800
23040	6608	2976
23552	116368	90064
24064	107904	78880
24576	5296	2592
25088	1648	480
25600	1216	672
26112	1248	688
26624	1344	640
27136	1584	1040
27648	992	336
28160	4096	3280
28672	2032	1520
29184	1760	1152
29696	17808	11552
30208	12304	8720
30720	3520	2256
31232	5312	2416
31744	5216	5216
32256	5232	5232
32768	9840	9840
33792	5456	5456
34816	16	0
35840	0	0
36864	112	112
37888	2928	1200
38912	3824	1536
39936	5696	2176
40960	2992	2992
41984	2736	2736
43008	704	704
44032	0	0
45056	16	16
46080	416	304
47104	18976	16480
48128	44560	41792
49152	3600	1616
50176	5056	1584
51200	2144	2016
52224	576	576
53248	464	16
54272	2752	0
55296	3120	0
56320	1776	576
57344	7808	1904
58368	5760	1536
59392	7824	3280
60416	8912	6208
61440	11632	3264
62464	6096	464
63488	5072	288
64512	2368	496
65536	11712	3152
67584	12944	5424
69632	6096	2720
71680	480	480
73728	96	32
75776	3136	1040
77824	7408	2768
79872	3536	3024
81920	224	224
83968	160	96
86016	9056	5472
88064	7920	3200
90112	3664	1408
92160	16	16
94208	560	480
96256	6208	2528
98304	6768	2896
100352	1792	1760
102400	96	96
104448	4320	1584
106496	9280	4768
108544	6768	2976
110592	576	576
112640	32	32
114688	2208	1184
116736	8048	2816
118784	4480	2576
120832	576	544
122880	224	144
124928	8896	5296
126976	7632	3472
129024	4720	2032
131072	592	544
135168	12496	5216
139264	2240	2240
143360	12992	6576
147456	8720	3856
151552	1504	1136
155648	14944	7200
159744	8704	8624
163840	301440	293440
167936	253600	250432
172032	5312	2384
176128	10784	6192
180224	2160	1456
184320	16368	7984
188416	3296	1680
192512	8480	3600
196608	7104	4000
200704	6128	3184
204800	15360	7568
208896	1296	1040
212992	11488	4688
217088	4320	3104
221184	10656	5456
225280	11312	5488
229376	1616	1200
233472	13760	6032
237568	2352	2144
241664	14688	7296
245760	7392	3568
249856	4064	1824
253952	12496	5424
258048	2320	1584
262144	25440	12752
270336	63728	27120
278528	41296	19472
286720	12720	5040
294912	15648	9392
303104	16256	11632
311296	9872	4368
319488	9504	5616
327680	5184	2944
335872	53248	52736
344064	467120	465280
352256	174144	173584
360448	1712	1072
368640	2784	928
376832	1072	480
385024	4448	1904
393216	3344	784
401408	7040	2128
409600	1024	848
417792	736	672
425984	3520	1792
434176	480	432
442368	4000	1728
450560	256	224
458752	2928	1328
466944	1456	1056
475136	880	688
483328	3360	1504
491520	400	368
499712	3888	1904
507904	496	464
516096	2208	1216
524288	3024	1568
540672	4336	2368
557056	4576	2352
573440	4496	2528
589824	4736	2608
606208	4032	1888
622592	2720	1760
638976	3712	2064
655360	4176	2080
671744	4544	2496
688128	5056	2704
704512	4560	2720
720896	3696	1984
737280	3264	1984
753664	3920	2128
770048	4496	2432
786432	4768	2784
802816	4592	2864
819200	4112	2368
835584	3008	1808
851968	2656	1664
868352	4672	2672
884736	4464	2416
901120	4368	2480
917504	4464	2496
933888	3584	2128
950272	3696	1792
966656	3920	2672
983040	4592	2128
999424	4704	2496
1015808	4672	2528
1032192	4192	2192
1048576	6784	3664
1081344	7664	4304
1114112	9872	5232
1146880	8192	4464
1179648	7568	4256
1212416	9296	5120
1245184	7680	4512
1277952	7344	4512
1310720	8976	5136
1343488	7952	4512
1376256	8288	4832
1409024	9072	5184
1441792	61024	57056
1474560	25936	22448
1507328	14128	10640
1540096	15040	10320
1572864	14512	11136
1605632	13936	10752
1638400	15216	10928
1671168	13360	10064
1703936	113648	109456
1736704	40272	37168
1769472	22320	18704
1802240	9328	6080
1835008	78176	75152
1867776	9248	5840
1900544	8224	5232
1933312	9888	6432
1966080	9264	5696
1998848	8576	5776
2031616	9072	5648
2064384	8976	5872
2097152	18720	11472
2162688	19040	10896
2228224	19184	12048
2293760	17984	11184
2359296	17984	11104
2424832	15488	10240
2490368	13232	8544
2555904	11296	7312
2621440	8160	6000
2686976	10144	9072
2752512	590992	590432
2818048	152224	151552
2883584	151904	151168
2949120	4960	4208
3014656	6256	5360
3080192	4448	3872
3145728	5264	4352
3211264	4768	4000
3276800	5408	4704
3342336	5232	4512
3407872	4784	3808
3473408	4688	3776
3538944	14752	14016
3604480	15264	14528
3670016	6160	5600
3735552	5920	5568
3801088	5344	4928
3866624	4784	4176
3932160	4928	4736
3997696	5344	4928
4063232	5456	4864
4128768	4608	4000
4194304	34608	33856
4325376	47808	47072
4456448	9408	8240
4587520	8992	8192
4718592	11504	10400
4849664	9488	8416
4980736	10224	9552
5111808	11072	10208
5242880	10432	9744
5373952	12288	11168
5505024	11280	10128
5636096	12672	11056
5767168	13360	12336
5898240	12112	10704
6029312	14208	12880
6160384	13344	12192
6291456	14192	12704
6422528	13904	12720
6553600	13168	11760
6684672	14640	13264
6815744	14288	12992
6946816	13200	11728
7077888	13776	12240
7208960	19728	18272
7340032	20672	19360
7471104	22128	20928
7602176	19280	18192
7733248	21696	20480
7864320	21200	19936
7995392	24144	22896
8126464	27904	26320
8257536	31248	29376
8388608	62160	58960
8650752	69568	65728
8912896	72320	68288
9175040	75728	72176
9437184	79424	75808
9699328	75312	71664
9961472	65872	61744
10223616	52496	49056
10485760	54880	51616
10747904	52784	48512
11010048	55344	50976
11272192	51232	47312
11534336	53776	49616
11796480	68928	64544
12058624	75664	70896
12320768	61296	56896
12582912	47424	43312
12845056	103888	101008
13107200	46304	42672
13369344	44912	40704
13631488	42592	37472
13893632	42848	38224
14155776	38048	33072
14417920	37184	31712
14680064	37552	31696
14942208	38368	31472
15204352	34848	29344
15466496	29392	24656
15728640	26768	20992
15990784	30336	22672
16252928	29232	20400
16515072	28144	20560
16777216	54352	39680
17301504	58336	40528
17825792	57072	38096
18350080	52208	34608
18874368	44448	25856
19398656	45312	26672
19922944	41616	24848
20447232	43840	28528
20971520	43168	27632
21495808	43424	25856
22020096	40832	24240
22544384	43168	25792
23068672	41824	25920
23592960	39824	23504
24117248	41936	23728
24641536	41232	24352
25165824	39280	22048
25690112	38160	22928
26214400	36912	21248
26738688	42496	25296
27262976	40048	23168
27787264	37728	21648
28311552	37344	21696
28835840	37680	22688
29360128	40592	23024
29884416	37376	20592
30408704	37328	21024
30932992	39824	23472
31457280	37664	21792
31981568	39632	21472
32505856	39040	20464
33030144	43328	23296
33554432	80832	44448
34603008	82896	46704
35651584	83616	45680
36700160	86544	47040
37748736	90768	49424
38797312	81536	47408
39845888	77984	43392
40894464	69184	36752
41943040	62736	30608
42991616	62336	29520
44040192	58544	27776
45088768	55920	26896
46137344	50608	25376
47185920	52336	25520
48234496	48640	23408
49283072	44048	22688
50331648	48064	22256
51380224	43360	19712
52428800	39200	18240
53477376	39088	16736
54525952	35568	15232
55574528	38656	16432
56623104	31040	14016
57671680	30080	14464
58720256	33952	15440
59768832	38432	19424
60817408	41424	21632
61865984	42112	25472
62914560	46480	27280
63963136	49648	28960
65011712	50144	33776
66060288	45168	34352
67108864	332976	252144
69206016	378416	360720
71303168	416896	371824
73400320	389248	360736
75497472	83344	69728
77594624	52960	40528
79691776	22576	19968
81788928	19584	18448
83886080	19264	18032
85983232	15440	14800
88080384	16176	15616
90177536	131552	100448
92274688	11840	11568
94371840	10080	9824
96468992	8464	8384
98566144	7008	6704
100663296	4704	4432
102760448	6176	4160
104857600	7328	2656
106954752	5280	608
109051904	2128	752
111149056	1072	848
113246208	864	736
115343360	864	496
117440512	1024	592
119537664	832	624
121634816	624	544
123731968	368	368
125829120	256	176
127926272	7120	192
130023424	1056	208
132120576	464	144
134217728	2704	64
138412032	10656	944
142606336	5056	1312
146800640	32064	16
150994944	4720	16
155189248	9792	5728
159383552	26784	11088
163577856	32	16
167772160	0	0
171966464	208	208
176160768	1744	1744
180355072	2544	2544
184549376	2160	2160
188743680	2288	2288
192937984	2224	2224
197132288	2112	2112
201326592	2384	2336
205520896	2480	2480
209715200	2288	2272
213909504	2144	2144
218103808	4672	336
222298112	1456	0
226492416	6768	880
230686720	247120	218048
234881024	5776	128
239075328	0	0
243269632	0	0
247463936	0	0
251658240	0	0
255852544	0	0
260046848	0	0
264241152	0	0
268435456	0	0
276824064	0	0
285212672	0	0
293601280	0	0
301989888	12528	1520
310378496	17856	1120
318767104	496	0
327155712	0	0
335544320	0	0
343932928	0	0
352321536	0	0
360710144	0	0
369098752	3824	480
377487360	4080	544
385875968	2048	160
394264576	0	0
402653184	0	0
411041792	0	0
419430400	0	0
427819008	0	0
436207616	0	0
444596224	0	0
452984832	0	0
461373440	0	0
469762048	0	0
478150656	0	0
486539264	0	0
494927872	0	0
503316480	0	0
511705088	0	0
520093696	0	0
528482304	0	0
536870912	0	0
553648128	0	0
570425344	0	0
587202560	0	0
603979776	0	0
620756992	0	0
637534208	0	0
654311424	0	0
671088640	0	0
687865856	0	0
704643072	0	0
721420288	0	0
738197504	0	0
754974720	0	0
771751936	0	0
788529152	0	0
805306368	0	0
822083584	0	0
838860800	0	0
855638016	0	0
872415232	0	0
889192448	0	0
905969664	0	0
922746880	0	0
939524096	0	0
956301312	0	0
973078528	0	0
989855744	0	0
1006632960	0	0
1023410176	0	0
1040187392	0	0
1056964608	0	0
1073741824	0	0
1107296256	0	0
1140850688	0	0
1174405120	0	0
1207959552	0	0
1241513984	0	0
1275068416	0	0
1308622848	0	0
1342177280	0	0
1375731712	0	0
1409286144	0	0
1442840576	0	0
1476395008	0	0
1509949440	0	0
1543503872	0	0
1577058304	0	0
1610612736	0	0
1644167168	0	0
1677721600	0	0
1711276032	0	0
1744830464	0	0
1778384896	0	0
1811939328	0	0
1845493760	0	0
1879048192	0	0
1912602624	0	0
1946157056	0	0
1979711488	0	0
2013265920	0	0
2046820352	0	0
2080374784	0	0
2113929216	0	0
2147483648	0	0
2214592512	0	0
2281701376	0	0
2348810240	0	0
2415919104	0	0
2483027968	0	0
2550136832	0	0
2617245696	0	0
2684354560	0	0
2751463424	0	0
2818572288	0	0
2885681152	0	0
2952790016	0	0
3019898880	0	0
3087007744	0	0
3154116608	0	0
3221225472	0	0
3288334336	0	0
3355443200	0	0
3422552064	0	0
3489660928	0	0
3556769792	0	0
3623878656	0	0
3690987520	0	0
3758096384	0	0
3825205248	0	0
3892314112	0	0
3959422976	0	0
4026531840	0	0
4093640704	0	0
4160749568	0	0
4227858432	0	0
~~~~~~~~~~Reuse Distance Profiler output end~~~~~~~~~~

Sampler size:76908

DRAM Statistics
 CHANNEL 0
 RQ ROW_BUFFER_HIT:     581916  ROW_BUFFER_MISS:    8342594
 DBUS AVG_CONGESTED_CYCLE:    3.94765
 WQ ROW_BUFFER_HIT:     455640  ROW_BUFFER_MISS:    2683787  FULL:       5711


CPU 0 Branch Prediction Accuracy: 98.2816% MPKI: 0.437764 Average ROB Occupancy at Mispredict: 311.409
Branch type MPKI
BRANCH_DIRECT_JUMP: 8.2e-05
BRANCH_INDIRECT: 1.66667e-05
BRANCH_CONDITIONAL: 0.437447
BRANCH_DIRECT_CALL: 0.000110667
BRANCH_INDIRECT_CALL: 4.66667e-06
BRANCH_RETURN: 0.000102667

