
*** ChampSim Multicore Out-of-Order Simulator ***

Warmup Instructions: 50000000
Simulation Instructions: 1500000000
Number of CPUs: 1
Off-chip DRAM Size: 4 GiB Channels: 1 Width: 64-bit Data Rate: 3200 MT/s

VirtualMemory physical capacity: 8588881920 num_ppages: 2096895
VirtualMemory page size: 4096 log2_page_size: 12

CPU 0 runs /s/traces/champsim_traces/459.GemsFDTD-765B.champsimtrace.xz
CPU 0 Bimodal branch predictor
Basic BTB sets: 1024 ways: 8 indirect buffer size: 4096 RAS size: 64
Initializing LRU.
Initializing LRU.
Initializing LRU.
Initializing LRU.
Initializing rdLRU.
Initializing LRU.
Heartbeat CPU 0 instructions: 2000003 cycles: 1090525 heartbeat IPC: 1.83398 cumulative IPC: 1.83398 (Simulation time: 0 hr 2 min 59 sec) 
Heartbeat CPU 0 instructions: 4000004 cycles: 2180923 heartbeat IPC: 1.83419 cumulative IPC: 1.83409 (Simulation time: 0 hr 5 min 41 sec) 
Heartbeat CPU 0 instructions: 6000001 cycles: 3271334 heartbeat IPC: 1.83417 cumulative IPC: 1.83411 (Simulation time: 0 hr 8 min 22 sec) 
Heartbeat CPU 0 instructions: 8000001 cycles: 4361733 heartbeat IPC: 1.83419 cumulative IPC: 1.83413 (Simulation time: 0 hr 10 min 57 sec) 
Heartbeat CPU 0 instructions: 10000000 cycles: 5452119 heartbeat IPC: 1.83421 cumulative IPC: 1.83415 (Simulation time: 0 hr 13 min 42 sec) 
Heartbeat CPU 0 instructions: 12000001 cycles: 6542527 heartbeat IPC: 1.83418 cumulative IPC: 1.83415 (Simulation time: 0 hr 16 min 23 sec) 
Heartbeat CPU 0 instructions: 14000001 cycles: 7632932 heartbeat IPC: 1.83418 cumulative IPC: 1.83416 (Simulation time: 0 hr 19 min 8 sec) 
Heartbeat CPU 0 instructions: 16000000 cycles: 8723336 heartbeat IPC: 1.83418 cumulative IPC: 1.83416 (Simulation time: 0 hr 21 min 41 sec) 
Heartbeat CPU 0 instructions: 18000000 cycles: 9813726 heartbeat IPC: 1.83421 cumulative IPC: 1.83417 (Simulation time: 0 hr 24 min 13 sec) 
Heartbeat CPU 0 instructions: 20000004 cycles: 10904113 heartbeat IPC: 1.83421 cumulative IPC: 1.83417 (Simulation time: 0 hr 26 min 46 sec) 
Heartbeat CPU 0 instructions: 22000000 cycles: 11994536 heartbeat IPC: 1.83415 cumulative IPC: 1.83417 (Simulation time: 0 hr 29 min 30 sec) 
Heartbeat CPU 0 instructions: 24000000 cycles: 13084926 heartbeat IPC: 1.83421 cumulative IPC: 1.83417 (Simulation time: 0 hr 32 min 1 sec) 
Heartbeat CPU 0 instructions: 26000003 cycles: 14175324 heartbeat IPC: 1.8342 cumulative IPC: 1.83417 (Simulation time: 0 hr 34 min 41 sec) 
Heartbeat CPU 0 instructions: 28000003 cycles: 15265710 heartbeat IPC: 1.83421 cumulative IPC: 1.83418 (Simulation time: 0 hr 37 min 12 sec) 
Heartbeat CPU 0 instructions: 30000000 cycles: 16356126 heartbeat IPC: 1.83416 cumulative IPC: 1.83418 (Simulation time: 0 hr 39 min 44 sec) 
Heartbeat CPU 0 instructions: 32000002 cycles: 17446523 heartbeat IPC: 1.8342 cumulative IPC: 1.83418 (Simulation time: 0 hr 42 min 17 sec) 
Heartbeat CPU 0 instructions: 34000001 cycles: 18536906 heartbeat IPC: 1.83422 cumulative IPC: 1.83418 (Simulation time: 0 hr 44 min 44 sec) 
Heartbeat CPU 0 instructions: 36000002 cycles: 19627317 heartbeat IPC: 1.83417 cumulative IPC: 1.83418 (Simulation time: 0 hr 47 min 25 sec) 
Heartbeat CPU 0 instructions: 38000004 cycles: 20717703 heartbeat IPC: 1.83421 cumulative IPC: 1.83418 (Simulation time: 0 hr 49 min 58 sec) 
Heartbeat CPU 0 instructions: 40000000 cycles: 21808127 heartbeat IPC: 1.83415 cumulative IPC: 1.83418 (Simulation time: 0 hr 52 min 31 sec) 
Heartbeat CPU 0 instructions: 42000004 cycles: 22898513 heartbeat IPC: 1.83422 cumulative IPC: 1.83418 (Simulation time: 0 hr 55 min 8 sec) 
Heartbeat CPU 0 instructions: 44000001 cycles: 23988914 heartbeat IPC: 1.83418 cumulative IPC: 1.83418 (Simulation time: 0 hr 57 min 43 sec) 
Heartbeat CPU 0 instructions: 46000001 cycles: 25079299 heartbeat IPC: 1.83421 cumulative IPC: 1.83418 (Simulation time: 1 hr 0 min 18 sec) 
Heartbeat CPU 0 instructions: 48000003 cycles: 26304410 heartbeat IPC: 1.63251 cumulative IPC: 1.82479 (Simulation time: 1 hr 3 min 28 sec) 
Heartbeat CPU 0 instructions: 50000003 cycles: 27642161 heartbeat IPC: 1.49505 cumulative IPC: 1.80883 (Simulation time: 1 hr 7 min 13 sec) 

Warmup complete CPU 0 instructions: 50000003 cycles: 27642161 (Simulation time: 1 hr 7 min 13 sec) 

Heartbeat CPU 0 instructions: 52000004 cycles: 39680459 heartbeat IPC: 0.166137 cumulative IPC: 0.166137 (Simulation time: 1 hr 18 min 7 sec) 

Region of Interest Statistics
cpu0_DTLB TOTAL     ACCESS:    1036376  HIT:     992358  MISS:      44018
cpu0_DTLB LOAD      ACCESS:     959430  HIT:     915568  MISS:      43862
cpu0_DTLB RFO       ACCESS:      76946  HIT:      76790  MISS:        156
cpu0_DTLB PREFETCH  ACCESS:          0  HIT:          0  MISS:          0
cpu0_DTLB WRITEBACK ACCESS:          0  HIT:          0  MISS:          0
cpu0_ITLB TOTAL     ACCESS:       2700  HIT:       2700  MISS:          0
cpu0_ITLB LOAD      ACCESS:       2700  HIT:       2700  MISS:          0
cpu0_ITLB RFO       ACCESS:          0  HIT:          0  MISS:          0
cpu0_ITLB PREFETCH  ACCESS:          0  HIT:          0  MISS:          0
cpu0_ITLB WRITEBACK ACCESS:          0  HIT:          0  MISS:          0
cpu0_STLB TOTAL     ACCESS:      44019  HIT:       7721  MISS:      36298
cpu0_STLB LOAD      ACCESS:      43863  HIT:       7568  MISS:      36295
cpu0_STLB RFO       ACCESS:        156  HIT:        153  MISS:          3
cpu0_STLB PREFETCH  ACCESS:          0  HIT:          0  MISS:          0
cpu0_STLB WRITEBACK ACCESS:          0  HIT:          0  MISS:          0
cpu0_L1D TOTAL     ACCESS:    1155737  HIT:    1016615  MISS:     139122
cpu0_L1D LOAD      ACCESS:    1042084  HIT:     903006  MISS:     139078
cpu0_L1D RFO       ACCESS:      77383  HIT:      77383  MISS:          0
cpu0_L1D PREFETCH  ACCESS:          0  HIT:          0  MISS:          0
cpu0_L1D WRITEBACK ACCESS:          0  HIT:          0  MISS:          0
cpu0_L2C TOTAL     ACCESS:     200634  HIT:      85294  MISS:     115340
cpu0_L2C LOAD      ACCESS:     139078  HIT:      23767  MISS:     115311
cpu0_L2C RFO       ACCESS:          0  HIT:          0  MISS:          0
cpu0_L2C PREFETCH  ACCESS:          0  HIT:          0  MISS:          0
cpu0_L2C WRITEBACK ACCESS:      61512  HIT:      61512  MISS:          0
LLC TOTAL     ACCESS:     176702  HIT:         19  MISS:     176683
LLC LOAD      ACCESS:     115311  HIT:          0  MISS:     115311
LLC RFO       ACCESS:          0  HIT:          0  MISS:          0
LLC PREFETCH  ACCESS:          0  HIT:          0  MISS:          0
LLC WRITEBACK ACCESS:      61362  HIT:          0  MISS:      61362
Heartbeat CPU 0 instructions: 54000002 cycles: 50172714 heartbeat IPC: 0.190617 cumulative IPC: 0.177537 (Simulation time: 1 hr 27 min 34 sec) 

Region of Interest Statistics
cpu0_DTLB TOTAL     ACCESS:    1996721  HIT:    1905925  MISS:      90796
cpu0_DTLB LOAD      ACCESS:    1859977  HIT:    1769433  MISS:      90544
cpu0_DTLB RFO       ACCESS:     136744  HIT:     136492  MISS:        252
cpu0_DTLB PREFETCH  ACCESS:          0  HIT:          0  MISS:          0
cpu0_DTLB WRITEBACK ACCESS:          0  HIT:          0  MISS:          0
cpu0_ITLB TOTAL     ACCESS:       6062  HIT:       6061  MISS:          1
cpu0_ITLB LOAD      ACCESS:       6062  HIT:       6061  MISS:          1
cpu0_ITLB RFO       ACCESS:          0  HIT:          0  MISS:          0
cpu0_ITLB PREFETCH  ACCESS:          0  HIT:          0  MISS:          0
cpu0_ITLB WRITEBACK ACCESS:          0  HIT:          0  MISS:          0
cpu0_L1I TOTAL     ACCESS:       1041  HIT:       1024  MISS:         17
cpu0_L1I LOAD      ACCESS:       1041  HIT:       1024  MISS:         17
cpu0_L1I RFO       ACCESS:          0  HIT:          0  MISS:          0
cpu0_L1I PREFETCH  ACCESS:          0  HIT:          0  MISS:          0
cpu0_L1I WRITEBACK ACCESS:          0  HIT:          0  MISS:          0
cpu0_STLB TOTAL     ACCESS:      90798  HIT:      18317  MISS:      72481
cpu0_STLB LOAD      ACCESS:      90546  HIT:      18069  MISS:      72477
cpu0_STLB RFO       ACCESS:        252  HIT:        248  MISS:          4
cpu0_STLB PREFETCH  ACCESS:          0  HIT:          0  MISS:          0
cpu0_STLB WRITEBACK ACCESS:          0  HIT:          0  MISS:          0
cpu0_L1D TOTAL     ACCESS:    2269761  HIT:    1994010  MISS:     275751
cpu0_L1D LOAD      ACCESS:    2059713  HIT:    1784059  MISS:     275654
cpu0_L1D RFO       ACCESS:     137624  HIT:     137622  MISS:          2
cpu0_L1D PREFETCH  ACCESS:          0  HIT:          0  MISS:          0
cpu0_L1D WRITEBACK ACCESS:          0  HIT:          0  MISS:          0
cpu0_L2C TOTAL     ACCESS:     391932  HIT:     169652  MISS:     222280
cpu0_L2C LOAD      ACCESS:     275671  HIT:      53456  MISS:     222215
cpu0_L2C RFO       ACCESS:          2  HIT:          0  MISS:          2
cpu0_L2C PREFETCH  ACCESS:          0  HIT:          0  MISS:          0
cpu0_L2C WRITEBACK ACCESS:     116164  HIT:     116162  MISS:          2
LLC TOTAL     ACCESS:     338475  HIT:      17136  MISS:     321339
LLC LOAD      ACCESS:     222215  HIT:          1  MISS:     222214
LLC RFO       ACCESS:          2  HIT:          0  MISS:          2
LLC PREFETCH  ACCESS:          0  HIT:          0  MISS:          0
LLC WRITEBACK ACCESS:     116197  HIT:      17101  MISS:      99096
Heartbeat CPU 0 instructions: 56000001 cycles: 59779972 heartbeat IPC: 0.208176 cumulative IPC: 0.186696 (Simulation time: 1 hr 35 min 55 sec) 

Region of Interest Statistics
cpu0_DTLB TOTAL     ACCESS:    2923841  HIT:    2784896  MISS:     138945
cpu0_DTLB LOAD      ACCESS:    2735652  HIT:    2597032  MISS:     138620
cpu0_DTLB RFO       ACCESS:     188189  HIT:     187864  MISS:        325
cpu0_DTLB PREFETCH  ACCESS:          0  HIT:          0  MISS:          0
cpu0_DTLB WRITEBACK ACCESS:          0  HIT:          0  MISS:          0
cpu0_ITLB TOTAL     ACCESS:       9802  HIT:       9801  MISS:          1
cpu0_ITLB LOAD      ACCESS:       9802  HIT:       9801  MISS:          1
cpu0_ITLB RFO       ACCESS:          0  HIT:          0  MISS:          0
cpu0_ITLB PREFETCH  ACCESS:          0  HIT:          0  MISS:          0
cpu0_ITLB WRITEBACK ACCESS:          0  HIT:          0  MISS:          0
cpu0_L1I TOTAL     ACCESS:       2585  HIT:       2568  MISS:         17
cpu0_L1I LOAD      ACCESS:       2585  HIT:       2568  MISS:         17
cpu0_L1I RFO       ACCESS:          0  HIT:          0  MISS:          0
cpu0_L1I PREFETCH  ACCESS:          0  HIT:          0  MISS:          0
cpu0_L1I WRITEBACK ACCESS:          0  HIT:          0  MISS:          0
cpu0_STLB TOTAL     ACCESS:     138946  HIT:      30499  MISS:     108447
cpu0_STLB LOAD      ACCESS:     138621  HIT:      30178  MISS:     108443
cpu0_STLB RFO       ACCESS:        325  HIT:        321  MISS:          4
cpu0_STLB PREFETCH  ACCESS:          0  HIT:          0  MISS:          0
cpu0_STLB WRITEBACK ACCESS:          0  HIT:          0  MISS:          0
cpu0_L1D TOTAL     ACCESS:    3364908  HIT:    2953758  MISS:     411150
cpu0_L1D LOAD      ACCESS:    3067002  HIT:    2655994  MISS:     411008
cpu0_L1D RFO       ACCESS:     189541  HIT:     189539  MISS:          2
cpu0_L1D PREFETCH  ACCESS:          0  HIT:          0  MISS:          0
cpu0_L1D WRITEBACK ACCESS:          0  HIT:          0  MISS:          0
cpu0_L2C TOTAL     ACCESS:     578592  HIT:     253859  MISS:     324733
cpu0_L2C LOAD      ACCESS:     411025  HIT:      86385  MISS:     324640
cpu0_L2C RFO       ACCESS:          2  HIT:          0  MISS:          2
cpu0_L2C PREFETCH  ACCESS:          0  HIT:          0  MISS:          0
cpu0_L2C WRITEBACK ACCESS:     167425  HIT:     167423  MISS:          2
LLC TOTAL     ACCESS:     492099  HIT:      17153  MISS:     474946
LLC LOAD      ACCESS:     324640  HIT:          2  MISS:     324638
LLC RFO       ACCESS:          2  HIT:          0  MISS:          2
LLC PREFETCH  ACCESS:          0  HIT:          0  MISS:          0
LLC WRITEBACK ACCESS:     167368  HIT:      17101  MISS:     150267
Heartbeat CPU 0 instructions: 58000004 cycles: 66165906 heartbeat IPC: 0.313189 cumulative IPC: 0.207664 (Simulation time: 1 hr 41 min 45 sec) 

Region of Interest Statistics
cpu0_DTLB TOTAL     ACCESS:    3827645  HIT:    3664546  MISS:     163099
cpu0_DTLB LOAD      ACCESS:    3574198  HIT:    3411494  MISS:     162704
cpu0_DTLB RFO       ACCESS:     253447  HIT:     253052  MISS:        395
cpu0_DTLB PREFETCH  ACCESS:          0  HIT:          0  MISS:          0
cpu0_DTLB WRITEBACK ACCESS:          0  HIT:          0  MISS:          0
cpu0_ITLB TOTAL     ACCESS:      40515  HIT:      40514  MISS:          1
cpu0_ITLB LOAD      ACCESS:      40515  HIT:      40514  MISS:          1
cpu0_ITLB RFO       ACCESS:          0  HIT:          0  MISS:          0
cpu0_ITLB PREFETCH  ACCESS:          0  HIT:          0  MISS:          0
cpu0_ITLB WRITEBACK ACCESS:          0  HIT:          0  MISS:          0
cpu0_L1I TOTAL     ACCESS:      84747  HIT:      84659  MISS:         88
cpu0_L1I LOAD      ACCESS:      84747  HIT:      84659  MISS:         88
cpu0_L1I RFO       ACCESS:          0  HIT:          0  MISS:          0
cpu0_L1I PREFETCH  ACCESS:          0  HIT:          0  MISS:          0
cpu0_L1I WRITEBACK ACCESS:          0  HIT:          0  MISS:          0
cpu0_STLB TOTAL     ACCESS:     163100  HIT:      36445  MISS:     126655
cpu0_STLB LOAD      ACCESS:     162705  HIT:      36055  MISS:     126650
cpu0_STLB RFO       ACCESS:        395  HIT:        390  MISS:          5
cpu0_STLB PREFETCH  ACCESS:          0  HIT:          0  MISS:          0
cpu0_STLB WRITEBACK ACCESS:          0  HIT:          0  MISS:          0
cpu0_L1D TOTAL     ACCESS:    4415067  HIT:    3932205  MISS:     482862
cpu0_L1D LOAD      ACCESS:    4009370  HIT:    3526720  MISS:     482650
cpu0_L1D RFO       ACCESS:     279138  HIT:     279129  MISS:          9
cpu0_L1D PREFETCH  ACCESS:          0  HIT:          0  MISS:          0
cpu0_L1D WRITEBACK ACCESS:          0  HIT:          0  MISS:          0
cpu0_L2C TOTAL     ACCESS:     678485  HIT:     297403  MISS:     381082
cpu0_L2C LOAD      ACCESS:     482738  HIT:     101799  MISS:     380939
cpu0_L2C RFO       ACCESS:          9  HIT:          0  MISS:          9
cpu0_L2C PREFETCH  ACCESS:          0  HIT:          0  MISS:          0
cpu0_L2C WRITEBACK ACCESS:     195535  HIT:     195528  MISS:          7
LLC TOTAL     ACCESS:     576319  HIT:      18537  MISS:     557782
LLC LOAD      ACCESS:     380939  HIT:        197  MISS:     380742
LLC RFO       ACCESS:          9  HIT:          0  MISS:          9
LLC PREFETCH  ACCESS:          0  HIT:          0  MISS:          0
LLC WRITEBACK ACCESS:     195244  HIT:      18279  MISS:     176965
Heartbeat CPU 0 instructions: 60000003 cycles: 69107633 heartbeat IPC: 0.679872 cumulative IPC: 0.241165 (Simulation time: 1 hr 45 min 26 sec) 

Region of Interest Statistics
cpu0_DTLB TOTAL     ACCESS:    4739023  HIT:    4572450  MISS:     166573
cpu0_DTLB LOAD      ACCESS:    4398106  HIT:    4232015  MISS:     166091
cpu0_DTLB RFO       ACCESS:     340917  HIT:     340435  MISS:        482
cpu0_DTLB PREFETCH  ACCESS:          0  HIT:          0  MISS:          0
cpu0_DTLB WRITEBACK ACCESS:          0  HIT:          0  MISS:          0
cpu0_ITLB TOTAL     ACCESS:      78523  HIT:      78522  MISS:          1
cpu0_ITLB LOAD      ACCESS:      78523  HIT:      78522  MISS:          1
cpu0_ITLB RFO       ACCESS:          0  HIT:          0  MISS:          0
cpu0_ITLB PREFETCH  ACCESS:          0  HIT:          0  MISS:          0
cpu0_ITLB WRITEBACK ACCESS:          0  HIT:          0  MISS:          0
cpu0_L1I TOTAL     ACCESS:     307061  HIT:     306973  MISS:         88
cpu0_L1I LOAD      ACCESS:     307061  HIT:     306973  MISS:         88
cpu0_L1I RFO       ACCESS:          0  HIT:          0  MISS:          0
cpu0_L1I PREFETCH  ACCESS:          0  HIT:          0  MISS:          0
cpu0_L1I WRITEBACK ACCESS:          0  HIT:          0  MISS:          0
cpu0_STLB TOTAL     ACCESS:     166574  HIT:      37751  MISS:     128823
cpu0_STLB LOAD      ACCESS:     166092  HIT:      37274  MISS:     128818
cpu0_STLB RFO       ACCESS:        482  HIT:        477  MISS:          5
cpu0_STLB PREFETCH  ACCESS:          0  HIT:          0  MISS:          0
cpu0_STLB WRITEBACK ACCESS:          0  HIT:          0  MISS:          0
cpu0_L1D TOTAL     ACCESS:    5502006  HIT:    5000573  MISS:     501433
cpu0_L1D LOAD      ACCESS:    4940770  HIT:    4439589  MISS:     501181
cpu0_L1D RFO       ACCESS:     432515  HIT:     432506  MISS:          9
cpu0_L1D PREFETCH  ACCESS:          0  HIT:          0  MISS:          0
cpu0_L1D WRITEBACK ACCESS:          0  HIT:          0  MISS:          0
cpu0_L2C TOTAL     ACCESS:     706214  HIT:     309742  MISS:     396472
cpu0_L2C LOAD      ACCESS:     501269  HIT:     104943  MISS:     396326
cpu0_L2C RFO       ACCESS:          9  HIT:          0  MISS:          9
cpu0_L2C PREFETCH  ACCESS:          0  HIT:          0  MISS:          0
cpu0_L2C WRITEBACK ACCESS:     204693  HIT:     204686  MISS:          7
LLC TOTAL     ACCESS:     600634  HIT:      27892  MISS:     572742
LLC LOAD      ACCESS:     396326  HIT:        839  MISS:     395487
LLC RFO       ACCESS:          9  HIT:          0  MISS:          9
LLC PREFETCH  ACCESS:          0  HIT:          0  MISS:          0
LLC WRITEBACK ACCESS:     204169  HIT:      26990  MISS:     177179
Heartbeat CPU 0 instructions: 62000004 cycles: 72057043 heartbeat IPC: 0.678102 cumulative IPC: 0.27018 (Simulation time: 1 hr 48 min 58 sec) 

Region of Interest Statistics
cpu0_DTLB TOTAL     ACCESS:    5650490  HIT:    5480379  MISS:     170111
cpu0_DTLB LOAD      ACCESS:    5222060  HIT:    5052516  MISS:     169544
cpu0_DTLB RFO       ACCESS:     428430  HIT:     427863  MISS:        567
cpu0_DTLB PREFETCH  ACCESS:          0  HIT:          0  MISS:          0
cpu0_DTLB WRITEBACK ACCESS:          0  HIT:          0  MISS:          0
cpu0_ITLB TOTAL     ACCESS:     116515  HIT:     116514  MISS:          1
cpu0_ITLB LOAD      ACCESS:     116515  HIT:     116514  MISS:          1
cpu0_ITLB RFO       ACCESS:          0  HIT:          0  MISS:          0
cpu0_ITLB PREFETCH  ACCESS:          0  HIT:          0  MISS:          0
cpu0_ITLB WRITEBACK ACCESS:          0  HIT:          0  MISS:          0
cpu0_L1I TOTAL     ACCESS:     529305  HIT:     529217  MISS:         88
cpu0_L1I LOAD      ACCESS:     529305  HIT:     529217  MISS:         88
cpu0_L1I RFO       ACCESS:          0  HIT:          0  MISS:          0
cpu0_L1I PREFETCH  ACCESS:          0  HIT:          0  MISS:          0
cpu0_L1I WRITEBACK ACCESS:          0  HIT:          0  MISS:          0
cpu0_STLB TOTAL     ACCESS:     170112  HIT:      39129  MISS:     130983
cpu0_STLB LOAD      ACCESS:     169545  HIT:      38567  MISS:     130978
cpu0_STLB RFO       ACCESS:        567  HIT:        562  MISS:          5
cpu0_STLB PREFETCH  ACCESS:          0  HIT:          0  MISS:          0
cpu0_STLB WRITEBACK ACCESS:          0  HIT:          0  MISS:          0
cpu0_L1D TOTAL     ACCESS:    6589442  HIT:    6069454  MISS:     519988
cpu0_L1D LOAD      ACCESS:    5872702  HIT:    5352999  MISS:     519703
cpu0_L1D RFO       ACCESS:     585866  HIT:     585857  MISS:          9
cpu0_L1D PREFETCH  ACCESS:          0  HIT:          0  MISS:          0
cpu0_L1D WRITEBACK ACCESS:          0  HIT:          0  MISS:          0
cpu0_L2C TOTAL     ACCESS:     733929  HIT:     322010  MISS:     411919
cpu0_L2C LOAD      ACCESS:     519791  HIT:     108018  MISS:     411773
cpu0_L2C RFO       ACCESS:          9  HIT:          0  MISS:          9
cpu0_L2C PREFETCH  ACCESS:          0  HIT:          0  MISS:          0
cpu0_L2C WRITEBACK ACCESS:     213853  HIT:     213846  MISS:          7
LLC TOTAL     ACCESS:     625204  HIT:      36963  MISS:     588241
LLC LOAD      ACCESS:     411773  HIT:       1545  MISS:     410228
LLC RFO       ACCESS:          9  HIT:          0  MISS:          9
LLC PREFETCH  ACCESS:          0  HIT:          0  MISS:          0
LLC WRITEBACK ACCESS:     213292  HIT:      35355  MISS:     177937
Heartbeat CPU 0 instructions: 64000002 cycles: 75014545 heartbeat IPC: 0.676246 cumulative IPC: 0.295531 (Simulation time: 1 hr 52 min 39 sec) 

Region of Interest Statistics
cpu0_DTLB TOTAL     ACCESS:    6561905  HIT:    6388226  MISS:     173679
cpu0_DTLB LOAD      ACCESS:    6045980  HIT:    5872966  MISS:     173014
cpu0_DTLB RFO       ACCESS:     515925  HIT:     515260  MISS:        665
cpu0_DTLB PREFETCH  ACCESS:          0  HIT:          0  MISS:          0
cpu0_DTLB WRITEBACK ACCESS:          0  HIT:          0  MISS:          0
cpu0_ITLB TOTAL     ACCESS:     154495  HIT:     154494  MISS:          1
cpu0_ITLB LOAD      ACCESS:     154495  HIT:     154494  MISS:          1
cpu0_ITLB RFO       ACCESS:          0  HIT:          0  MISS:          0
cpu0_ITLB PREFETCH  ACCESS:          0  HIT:          0  MISS:          0
cpu0_ITLB WRITEBACK ACCESS:          0  HIT:          0  MISS:          0
cpu0_L1I TOTAL     ACCESS:     751614  HIT:     751526  MISS:         88
cpu0_L1I LOAD      ACCESS:     751614  HIT:     751526  MISS:         88
cpu0_L1I RFO       ACCESS:          0  HIT:          0  MISS:          0
cpu0_L1I PREFETCH  ACCESS:          0  HIT:          0  MISS:          0
cpu0_L1I WRITEBACK ACCESS:          0  HIT:          0  MISS:          0
cpu0_STLB TOTAL     ACCESS:     173680  HIT:      40527  MISS:     133153
cpu0_STLB LOAD      ACCESS:     173015  HIT:      39867  MISS:     133148
cpu0_STLB RFO       ACCESS:        665  HIT:        660  MISS:          5
cpu0_STLB PREFETCH  ACCESS:          0  HIT:          0  MISS:          0
cpu0_STLB WRITEBACK ACCESS:          0  HIT:          0  MISS:          0
cpu0_L1D TOTAL     ACCESS:    7676764  HIT:    7138201  MISS:     538563
cpu0_L1D LOAD      ACCESS:    6804491  HIT:    6266249  MISS:     538242
cpu0_L1D RFO       ACCESS:     739235  HIT:     739226  MISS:          9
cpu0_L1D PREFETCH  ACCESS:          0  HIT:          0  MISS:          0
cpu0_L1D WRITEBACK ACCESS:          0  HIT:          0  MISS:          0
cpu0_L2C TOTAL     ACCESS:     761690  HIT:     334213  MISS:     427477
cpu0_L2C LOAD      ACCESS:     538330  HIT:     111000  MISS:     427330
cpu0_L2C RFO       ACCESS:          9  HIT:          0  MISS:          9
cpu0_L2C PREFETCH  ACCESS:          0  HIT:          0  MISS:          0
cpu0_L2C WRITEBACK ACCESS:     223039  HIT:     223032  MISS:          7
LLC TOTAL     ACCESS:     649963  HIT:      42254  MISS:     607709
LLC LOAD      ACCESS:     427330  HIT:       2361  MISS:     424969
LLC RFO       ACCESS:          9  HIT:          0  MISS:          9
LLC PREFETCH  ACCESS:          0  HIT:          0  MISS:          0
LLC WRITEBACK ACCESS:     222493  HIT:      39830  MISS:     182663
Heartbeat CPU 0 instructions: 66000001 cycles: 78021947 heartbeat IPC: 0.665025 cumulative IPC: 0.317588 (Simulation time: 1 hr 56 min 12 sec) 

Region of Interest Statistics
cpu0_DTLB TOTAL     ACCESS:    7471249  HIT:    7293873  MISS:     177376
cpu0_DTLB LOAD      ACCESS:    6867860  HIT:    6691261  MISS:     176599
cpu0_DTLB RFO       ACCESS:     603389  HIT:     602612  MISS:        777
cpu0_DTLB PREFETCH  ACCESS:          0  HIT:          0  MISS:          0
cpu0_DTLB WRITEBACK ACCESS:          0  HIT:          0  MISS:          0
cpu0_ITLB TOTAL     ACCESS:     192497  HIT:     192496  MISS:          1
cpu0_ITLB LOAD      ACCESS:     192497  HIT:     192496  MISS:          1
cpu0_ITLB RFO       ACCESS:          0  HIT:          0  MISS:          0
cpu0_ITLB PREFETCH  ACCESS:          0  HIT:          0  MISS:          0
cpu0_ITLB WRITEBACK ACCESS:          0  HIT:          0  MISS:          0
cpu0_L1I TOTAL     ACCESS:     973771  HIT:     973683  MISS:         88
cpu0_L1I LOAD      ACCESS:     973771  HIT:     973683  MISS:         88
cpu0_L1I RFO       ACCESS:          0  HIT:          0  MISS:          0
cpu0_L1I PREFETCH  ACCESS:          0  HIT:          0  MISS:          0
cpu0_L1I WRITEBACK ACCESS:          0  HIT:          0  MISS:          0
cpu0_STLB TOTAL     ACCESS:     177377  HIT:      42058  MISS:     135319
cpu0_STLB LOAD      ACCESS:     176600  HIT:      41286  MISS:     135314
cpu0_STLB RFO       ACCESS:        777  HIT:        772  MISS:          5
cpu0_STLB PREFETCH  ACCESS:          0  HIT:          0  MISS:          0
cpu0_STLB WRITEBACK ACCESS:          0  HIT:          0  MISS:          0
cpu0_L1D TOTAL     ACCESS:    8761844  HIT:    8204709  MISS:     557135
cpu0_L1D LOAD      ACCESS:    7734022  HIT:    7177245  MISS:     556777
cpu0_L1D RFO       ACCESS:     892624  HIT:     892615  MISS:          9
cpu0_L1D PREFETCH  ACCESS:          0  HIT:          0  MISS:          0
cpu0_L1D WRITEBACK ACCESS:          0  HIT:          0  MISS:          0
cpu0_L2C TOTAL     ACCESS:     789398  HIT:     346539  MISS:     442859
cpu0_L2C LOAD      ACCESS:     556865  HIT:     114154  MISS:     442711
cpu0_L2C RFO       ACCESS:          9  HIT:          0  MISS:          9
cpu0_L2C PREFETCH  ACCESS:          0  HIT:          0  MISS:          0
cpu0_L2C WRITEBACK ACCESS:     232175  HIT:     232168  MISS:          7
LLC TOTAL     ACCESS:     674491  HIT:      42964  MISS:     631527
LLC LOAD      ACCESS:     442711  HIT:       3025  MISS:     439686
LLC RFO       ACCESS:          9  HIT:          0  MISS:          9
LLC PREFETCH  ACCESS:          0  HIT:          0  MISS:          0
LLC WRITEBACK ACCESS:     231639  HIT:      39876  MISS:     191763
Heartbeat CPU 0 instructions: 68000000 cycles: 81007998 heartbeat IPC: 0.669781 cumulative IPC: 0.337294 (Simulation time: 1 hr 59 min 49 sec) 

Region of Interest Statistics
cpu0_DTLB TOTAL     ACCESS:    8380180  HIT:    8199095  MISS:     181085
cpu0_DTLB LOAD      ACCESS:    7689328  HIT:    7509145  MISS:     180183
cpu0_DTLB RFO       ACCESS:     690852  HIT:     689950  MISS:        902
cpu0_DTLB PREFETCH  ACCESS:          0  HIT:          0  MISS:          0
cpu0_DTLB WRITEBACK ACCESS:          0  HIT:          0  MISS:          0
cpu0_ITLB TOTAL     ACCESS:     230489  HIT:     230488  MISS:          1
cpu0_ITLB LOAD      ACCESS:     230489  HIT:     230488  MISS:          1
cpu0_ITLB RFO       ACCESS:          0  HIT:          0  MISS:          0
cpu0_ITLB PREFETCH  ACCESS:          0  HIT:          0  MISS:          0
cpu0_ITLB WRITEBACK ACCESS:          0  HIT:          0  MISS:          0
cpu0_L1I TOTAL     ACCESS:    1196020  HIT:    1195932  MISS:         88
cpu0_L1I LOAD      ACCESS:    1196020  HIT:    1195932  MISS:         88
cpu0_L1I RFO       ACCESS:          0  HIT:          0  MISS:          0
cpu0_L1I PREFETCH  ACCESS:          0  HIT:          0  MISS:          0
cpu0_L1I WRITEBACK ACCESS:          0  HIT:          0  MISS:          0
cpu0_STLB TOTAL     ACCESS:     181086  HIT:      43604  MISS:     137482
cpu0_STLB LOAD      ACCESS:     180184  HIT:      42707  MISS:     137477
cpu0_STLB RFO       ACCESS:        902  HIT:        897  MISS:          5
cpu0_STLB PREFETCH  ACCESS:          0  HIT:          0  MISS:          0
cpu0_STLB WRITEBACK ACCESS:          0  HIT:          0  MISS:          0
cpu0_L1D TOTAL     ACCESS:    9846431  HIT:    9270734  MISS:     575697
cpu0_L1D LOAD      ACCESS:    8663101  HIT:    8087801  MISS:     575300
cpu0_L1D RFO       ACCESS:    1045976  HIT:    1045967  MISS:          9
cpu0_L1D PREFETCH  ACCESS:          0  HIT:          0  MISS:          0
cpu0_L1D WRITEBACK ACCESS:          0  HIT:          0  MISS:          0
cpu0_L2C TOTAL     ACCESS:     817122  HIT:     358889  MISS:     458233
cpu0_L2C LOAD      ACCESS:     575388  HIT:     117304  MISS:     458084
cpu0_L2C RFO       ACCESS:          9  HIT:          0  MISS:          9
cpu0_L2C PREFETCH  ACCESS:          0  HIT:          0  MISS:          0
cpu0_L2C WRITEBACK ACCESS:     241337  HIT:     241330  MISS:          7
LLC TOTAL     ACCESS:     699011  HIT:      43630  MISS:     655381
LLC LOAD      ACCESS:     458084  HIT:       3690  MISS:     454394
LLC RFO       ACCESS:          9  HIT:          0  MISS:          9
LLC PREFETCH  ACCESS:          0  HIT:          0  MISS:          0
LLC WRITEBACK ACCESS:     240785  HIT:      39877  MISS:     200908
Heartbeat CPU 0 instructions: 70000003 cycles: 83982802 heartbeat IPC: 0.672314 cumulative IPC: 0.354984 (Simulation time: 2 hr 3 min 33 sec) 

Region of Interest Statistics
cpu0_DTLB TOTAL     ACCESS:    9289681  HIT:    9105185  MISS:     184496
cpu0_DTLB LOAD      ACCESS:    8511392  HIT:    8327865  MISS:     183527
cpu0_DTLB RFO       ACCESS:     778289  HIT:     777320  MISS:        969
cpu0_DTLB PREFETCH  ACCESS:          0  HIT:          0  MISS:          0
cpu0_DTLB WRITEBACK ACCESS:          0  HIT:          0  MISS:          0
cpu0_ITLB TOTAL     ACCESS:     268485  HIT:     268484  MISS:          1
cpu0_ITLB LOAD      ACCESS:     268485  HIT:     268484  MISS:          1
cpu0_ITLB RFO       ACCESS:          0  HIT:          0  MISS:          0
cpu0_ITLB PREFETCH  ACCESS:          0  HIT:          0  MISS:          0
cpu0_ITLB WRITEBACK ACCESS:          0  HIT:          0  MISS:          0
cpu0_L1I TOTAL     ACCESS:    1418308  HIT:    1418220  MISS:         88
cpu0_L1I LOAD      ACCESS:    1418308  HIT:    1418220  MISS:         88
cpu0_L1I RFO       ACCESS:          0  HIT:          0  MISS:          0
cpu0_L1I PREFETCH  ACCESS:          0  HIT:          0  MISS:          0
cpu0_L1I WRITEBACK ACCESS:          0  HIT:          0  MISS:          0
cpu0_STLB TOTAL     ACCESS:     184497  HIT:      44850  MISS:     139647
cpu0_STLB LOAD      ACCESS:     183528  HIT:      43886  MISS:     139642
cpu0_STLB RFO       ACCESS:        969  HIT:        964  MISS:          5
cpu0_STLB PREFETCH  ACCESS:          0  HIT:          0  MISS:          0
cpu0_STLB WRITEBACK ACCESS:          0  HIT:          0  MISS:          0
cpu0_L1D TOTAL     ACCESS:   10931402  HIT:   10337139  MISS:     594263
cpu0_L1D LOAD      ACCESS:    9592531  HIT:    8998700  MISS:     593831
cpu0_L1D RFO       ACCESS:    1199355  HIT:    1199346  MISS:          9
cpu0_L1D PREFETCH  ACCESS:          0  HIT:          0  MISS:          0
cpu0_L1D WRITEBACK ACCESS:          0  HIT:          0  MISS:          0
cpu0_L2C TOTAL     ACCESS:     844847  HIT:     371300  MISS:     473547
cpu0_L2C LOAD      ACCESS:     593919  HIT:     120524  MISS:     473395
cpu0_L2C RFO       ACCESS:          9  HIT:          0  MISS:          9
cpu0_L2C PREFETCH  ACCESS:          0  HIT:          0  MISS:          0
cpu0_L2C WRITEBACK ACCESS:     250496  HIT:     250489  MISS:          7
LLC TOTAL     ACCESS:     723542  HIT:      44227  MISS:     679315
LLC LOAD      ACCESS:     473395  HIT:       4286  MISS:     469109
LLC RFO       ACCESS:          9  HIT:          0  MISS:          9
LLC PREFETCH  ACCESS:          0  HIT:          0  MISS:          0
LLC WRITEBACK ACCESS:     250002  HIT:      39878  MISS:     210124
Heartbeat CPU 0 instructions: 72000001 cycles: 86952468 heartbeat IPC: 0.673476 cumulative IPC: 0.37093 (Simulation time: 2 hr 7 min 18 sec) 

Region of Interest Statistics
cpu0_DTLB TOTAL     ACCESS:   10198514  HIT:   10010562  MISS:     187952
cpu0_DTLB LOAD      ACCESS:    9332808  HIT:    9145903  MISS:     186905
cpu0_DTLB RFO       ACCESS:     865706  HIT:     864659  MISS:       1047
cpu0_DTLB PREFETCH  ACCESS:          0  HIT:          0  MISS:          0
cpu0_DTLB WRITEBACK ACCESS:          0  HIT:          0  MISS:          0
cpu0_ITLB TOTAL     ACCESS:     306487  HIT:     306486  MISS:          1
cpu0_ITLB LOAD      ACCESS:     306487  HIT:     306486  MISS:          1
cpu0_ITLB RFO       ACCESS:          0  HIT:          0  MISS:          0
cpu0_ITLB PREFETCH  ACCESS:          0  HIT:          0  MISS:          0
cpu0_ITLB WRITEBACK ACCESS:          0  HIT:          0  MISS:          0
cpu0_L1I TOTAL     ACCESS:    1640602  HIT:    1640514  MISS:         88
cpu0_L1I LOAD      ACCESS:    1640602  HIT:    1640514  MISS:         88
cpu0_L1I RFO       ACCESS:          0  HIT:          0  MISS:          0
cpu0_L1I PREFETCH  ACCESS:          0  HIT:          0  MISS:          0
cpu0_L1I WRITEBACK ACCESS:          0  HIT:          0  MISS:          0
cpu0_STLB TOTAL     ACCESS:     187953  HIT:      46133  MISS:     141820
cpu0_STLB LOAD      ACCESS:     186906  HIT:      45091  MISS:     141815
cpu0_STLB RFO       ACCESS:       1047  HIT:       1042  MISS:          5
cpu0_STLB PREFETCH  ACCESS:          0  HIT:          0  MISS:          0
cpu0_STLB WRITEBACK ACCESS:          0  HIT:          0  MISS:          0
cpu0_L1D TOTAL     ACCESS:   12015823  HIT:   11402988  MISS:     612835
cpu0_L1D LOAD      ACCESS:   10521403  HIT:    9909037  MISS:     612366
cpu0_L1D RFO       ACCESS:    1352735  HIT:    1352726  MISS:          9
cpu0_L1D PREFETCH  ACCESS:          0  HIT:          0  MISS:          0
cpu0_L1D WRITEBACK ACCESS:          0  HIT:          0  MISS:          0
cpu0_L2C TOTAL     ACCESS:     872598  HIT:     383693  MISS:     488905
cpu0_L2C LOAD      ACCESS:     612454  HIT:     123702  MISS:     488752
cpu0_L2C RFO       ACCESS:          9  HIT:          0  MISS:          9
cpu0_L2C PREFETCH  ACCESS:          0  HIT:          0  MISS:          0
cpu0_L2C WRITEBACK ACCESS:     259675  HIT:     259668  MISS:          7
LLC TOTAL     ACCESS:     748062  HIT:      44860  MISS:     703202
LLC LOAD      ACCESS:     488752  HIT:       4918  MISS:     483834
LLC RFO       ACCESS:          9  HIT:          0  MISS:          9
LLC PREFETCH  ACCESS:          0  HIT:          0  MISS:          0
LLC WRITEBACK ACCESS:     259164  HIT:      39878  MISS:     219286
Heartbeat CPU 0 instructions: 74000000 cycles: 89928695 heartbeat IPC: 0.671991 cumulative IPC: 0.385316 (Simulation time: 2 hr 10 min 59 sec) 

Region of Interest Statistics
cpu0_DTLB TOTAL     ACCESS:   11108287  HIT:   10916457  MISS:     191830
cpu0_DTLB LOAD      ACCESS:   10155127  HIT:    9964467  MISS:     190660
cpu0_DTLB RFO       ACCESS:     953160  HIT:     951990  MISS:       1170
cpu0_DTLB PREFETCH  ACCESS:          0  HIT:          0  MISS:          0
cpu0_DTLB WRITEBACK ACCESS:          0  HIT:          0  MISS:          0
cpu0_ITLB TOTAL     ACCESS:     344459  HIT:     344458  MISS:          1
cpu0_ITLB LOAD      ACCESS:     344459  HIT:     344458  MISS:          1
cpu0_ITLB RFO       ACCESS:          0  HIT:          0  MISS:          0
cpu0_ITLB PREFETCH  ACCESS:          0  HIT:          0  MISS:          0
cpu0_ITLB WRITEBACK ACCESS:          0  HIT:          0  MISS:          0
cpu0_L1I TOTAL     ACCESS:    1862801  HIT:    1862713  MISS:         88
cpu0_L1I LOAD      ACCESS:    1862801  HIT:    1862713  MISS:         88
cpu0_L1I RFO       ACCESS:          0  HIT:          0  MISS:          0
cpu0_L1I PREFETCH  ACCESS:          0  HIT:          0  MISS:          0
cpu0_L1I WRITEBACK ACCESS:          0  HIT:          0  MISS:          0
cpu0_STLB TOTAL     ACCESS:     191831  HIT:      47851  MISS:     143980
cpu0_STLB LOAD      ACCESS:     190661  HIT:      46686  MISS:     143975
cpu0_STLB RFO       ACCESS:       1170  HIT:       1165  MISS:          5
cpu0_STLB PREFETCH  ACCESS:          0  HIT:          0  MISS:          0
cpu0_STLB WRITEBACK ACCESS:          0  HIT:          0  MISS:          0
cpu0_L1D TOTAL     ACCESS:   13100878  HIT:   12469471  MISS:     631407
cpu0_L1D LOAD      ACCESS:   11450943  HIT:   10820045  MISS:     630898
cpu0_L1D RFO       ACCESS:    1506095  HIT:    1506086  MISS:          9
cpu0_L1D PREFETCH  ACCESS:          0  HIT:          0  MISS:          0
cpu0_L1D WRITEBACK ACCESS:          0  HIT:          0  MISS:          0
cpu0_L2C TOTAL     ACCESS:     900340  HIT:     395887  MISS:     504453
cpu0_L2C LOAD      ACCESS:     630986  HIT:     126687  MISS:     504299
cpu0_L2C RFO       ACCESS:          9  HIT:          0  MISS:          9
cpu0_L2C PREFETCH  ACCESS:          0  HIT:          0  MISS:          0
cpu0_L2C WRITEBACK ACCESS:     268845  HIT:     268838  MISS:          7
LLC TOTAL     ACCESS:     772821  HIT:      45649  MISS:     727172
LLC LOAD      ACCESS:     504299  HIT:       5707  MISS:     498592
LLC RFO       ACCESS:          9  HIT:          0  MISS:          9
LLC PREFETCH  ACCESS:          0  HIT:          0  MISS:          0
LLC WRITEBACK ACCESS:     268375  HIT:      39878  MISS:     228497
Heartbeat CPU 0 instructions: 76000001 cycles: 92908794 heartbeat IPC: 0.671119 cumulative IPC: 0.398366 (Simulation time: 2 hr 14 min 40 sec) 

Region of Interest Statistics
cpu0_DTLB TOTAL     ACCESS:   12017772  HIT:   11822127  MISS:     195645
cpu0_DTLB LOAD      ACCESS:   10977165  HIT:   10782810  MISS:     194355
cpu0_DTLB RFO       ACCESS:    1040607  HIT:    1039317  MISS:       1290
cpu0_DTLB PREFETCH  ACCESS:          0  HIT:          0  MISS:          0
cpu0_DTLB WRITEBACK ACCESS:          0  HIT:          0  MISS:          0
cpu0_ITLB TOTAL     ACCESS:     382458  HIT:     382457  MISS:          1
cpu0_ITLB LOAD      ACCESS:     382458  HIT:     382457  MISS:          1
cpu0_ITLB RFO       ACCESS:          0  HIT:          0  MISS:          0
cpu0_ITLB PREFETCH  ACCESS:          0  HIT:          0  MISS:          0
cpu0_ITLB WRITEBACK ACCESS:          0  HIT:          0  MISS:          0
cpu0_L1I TOTAL     ACCESS:    2084995  HIT:    2084907  MISS:         88
cpu0_L1I LOAD      ACCESS:    2084995  HIT:    2084907  MISS:         88
cpu0_L1I RFO       ACCESS:          0  HIT:          0  MISS:          0
cpu0_L1I PREFETCH  ACCESS:          0  HIT:          0  MISS:          0
cpu0_L1I WRITEBACK ACCESS:          0  HIT:          0  MISS:          0
cpu0_STLB TOTAL     ACCESS:     195646  HIT:      49502  MISS:     146144
cpu0_STLB LOAD      ACCESS:     194356  HIT:      48217  MISS:     146139
cpu0_STLB RFO       ACCESS:       1290  HIT:       1285  MISS:          5
cpu0_STLB PREFETCH  ACCESS:          0  HIT:          0  MISS:          0
cpu0_STLB WRITEBACK ACCESS:          0  HIT:          0  MISS:          0
cpu0_L1D TOTAL     ACCESS:   14185989  HIT:   13536019  MISS:     649970
cpu0_L1D LOAD      ACCESS:   12380524  HIT:   11731100  MISS:     649424
cpu0_L1D RFO       ACCESS:    1659464  HIT:    1659455  MISS:          9
cpu0_L1D PREFETCH  ACCESS:          0  HIT:          0  MISS:          0
cpu0_L1D WRITEBACK ACCESS:          0  HIT:          0  MISS:          0
cpu0_L2C TOTAL     ACCESS:     928027  HIT:     408149  MISS:     519878
cpu0_L2C LOAD      ACCESS:     649512  HIT:     129789  MISS:     519723
cpu0_L2C RFO       ACCESS:          9  HIT:          0  MISS:          9
cpu0_L2C PREFETCH  ACCESS:          0  HIT:          0  MISS:          0
cpu0_L2C WRITEBACK ACCESS:     277969  HIT:     277962  MISS:          7
LLC TOTAL     ACCESS:     797278  HIT:      46256  MISS:     751022
LLC LOAD      ACCESS:     519723  HIT:       6313  MISS:     513410
LLC RFO       ACCESS:          9  HIT:          0  MISS:          9
LLC PREFETCH  ACCESS:          0  HIT:          0  MISS:          0
LLC WRITEBACK ACCESS:     277407  HIT:      39878  MISS:     237529
Heartbeat CPU 0 instructions: 78000000 cycles: 95889666 heartbeat IPC: 0.670944 cumulative IPC: 0.410271 (Simulation time: 2 hr 18 min 6 sec) 

Region of Interest Statistics
cpu0_DTLB TOTAL     ACCESS:   12927191  HIT:   12727836  MISS:     199355
cpu0_DTLB LOAD      ACCESS:   11799082  HIT:   11601127  MISS:     197955
cpu0_DTLB RFO       ACCESS:    1128109  HIT:    1126709  MISS:       1400
cpu0_DTLB PREFETCH  ACCESS:          0  HIT:          0  MISS:          0
cpu0_DTLB WRITEBACK ACCESS:          0  HIT:          0  MISS:          0
cpu0_ITLB TOTAL     ACCESS:     420448  HIT:     420447  MISS:          1
cpu0_ITLB LOAD      ACCESS:     420448  HIT:     420447  MISS:          1
cpu0_ITLB RFO       ACCESS:          0  HIT:          0  MISS:          0
cpu0_ITLB PREFETCH  ACCESS:          0  HIT:          0  MISS:          0
cpu0_ITLB WRITEBACK ACCESS:          0  HIT:          0  MISS:          0
cpu0_L1I TOTAL     ACCESS:    2307239  HIT:    2307151  MISS:         88
cpu0_L1I LOAD      ACCESS:    2307239  HIT:    2307151  MISS:         88
cpu0_L1I RFO       ACCESS:          0  HIT:          0  MISS:          0
cpu0_L1I PREFETCH  ACCESS:          0  HIT:          0  MISS:          0
cpu0_L1I WRITEBACK ACCESS:          0  HIT:          0  MISS:          0
cpu0_STLB TOTAL     ACCESS:     199356  HIT:      51048  MISS:     148308
cpu0_STLB LOAD      ACCESS:     197956  HIT:      49653  MISS:     148303
cpu0_STLB RFO       ACCESS:       1400  HIT:       1395  MISS:          5
cpu0_STLB PREFETCH  ACCESS:          0  HIT:          0  MISS:          0
cpu0_STLB WRITEBACK ACCESS:          0  HIT:          0  MISS:          0
cpu0_L1D TOTAL     ACCESS:   15270870  HIT:   14602331  MISS:     668539
cpu0_L1D LOAD      ACCESS:   13309878  HIT:   12641923  MISS:     667955
cpu0_L1D RFO       ACCESS:    1812834  HIT:    1812825  MISS:          9
cpu0_L1D PREFETCH  ACCESS:          0  HIT:          0  MISS:          0
cpu0_L1D WRITEBACK ACCESS:          0  HIT:          0  MISS:          0
cpu0_L2C TOTAL     ACCESS:     955799  HIT:     420555  MISS:     535244
cpu0_L2C LOAD      ACCESS:     668043  HIT:     132955  MISS:     535088
cpu0_L2C RFO       ACCESS:          9  HIT:          0  MISS:          9
cpu0_L2C PREFETCH  ACCESS:          0  HIT:          0  MISS:          0
cpu0_L2C WRITEBACK ACCESS:     287172  HIT:     287165  MISS:          7
LLC TOTAL     ACCESS:     821752  HIT:      46712  MISS:     775040
LLC LOAD      ACCESS:     535088  HIT:       6767  MISS:     528321
LLC RFO       ACCESS:          9  HIT:          0  MISS:          9
LLC PREFETCH  ACCESS:          0  HIT:          0  MISS:          0
LLC WRITEBACK ACCESS:     286515  HIT:      39879  MISS:     246636
Heartbeat CPU 0 instructions: 80000002 cycles: 98883297 heartbeat IPC: 0.668086 cumulative IPC: 0.421105 (Simulation time: 2 hr 21 min 35 sec) 

Region of Interest Statistics
cpu0_DTLB TOTAL     ACCESS:   13836783  HIT:   13633962  MISS:     202821
cpu0_DTLB LOAD      ACCESS:   12621201  HIT:   12419869  MISS:     201332
cpu0_DTLB RFO       ACCESS:    1215582  HIT:    1214093  MISS:       1489
cpu0_DTLB PREFETCH  ACCESS:          0  HIT:          0  MISS:          0
cpu0_DTLB WRITEBACK ACCESS:          0  HIT:          0  MISS:          0
cpu0_ITLB TOTAL     ACCESS:     458422  HIT:     458421  MISS:          1
cpu0_ITLB LOAD      ACCESS:     458422  HIT:     458421  MISS:          1
cpu0_ITLB RFO       ACCESS:          0  HIT:          0  MISS:          0
cpu0_ITLB PREFETCH  ACCESS:          0  HIT:          0  MISS:          0
cpu0_ITLB WRITEBACK ACCESS:          0  HIT:          0  MISS:          0
cpu0_L1I TOTAL     ACCESS:    2529540  HIT:    2529452  MISS:         88
cpu0_L1I LOAD      ACCESS:    2529540  HIT:    2529452  MISS:         88
cpu0_L1I RFO       ACCESS:          0  HIT:          0  MISS:          0
cpu0_L1I PREFETCH  ACCESS:          0  HIT:          0  MISS:          0
cpu0_L1I WRITEBACK ACCESS:          0  HIT:          0  MISS:          0
cpu0_STLB TOTAL     ACCESS:     202822  HIT:      52348  MISS:     150474
cpu0_STLB LOAD      ACCESS:     201333  HIT:      50864  MISS:     150469
cpu0_STLB RFO       ACCESS:       1489  HIT:       1484  MISS:          5
cpu0_STLB PREFETCH  ACCESS:          0  HIT:          0  MISS:          0
cpu0_STLB WRITEBACK ACCESS:          0  HIT:          0  MISS:          0
cpu0_L1D TOTAL     ACCESS:   16356041  HIT:   15668930  MISS:     687111
cpu0_L1D LOAD      ACCESS:   14239517  HIT:   13553029  MISS:     686488
cpu0_L1D RFO       ACCESS:    1966205  HIT:    1966196  MISS:          9
cpu0_L1D PREFETCH  ACCESS:          0  HIT:          0  MISS:          0
cpu0_L1D WRITEBACK ACCESS:          0  HIT:          0  MISS:          0
cpu0_L2C TOTAL     ACCESS:     983527  HIT:     432872  MISS:     550655
cpu0_L2C LOAD      ACCESS:     686576  HIT:     136078  MISS:     550498
cpu0_L2C RFO       ACCESS:          9  HIT:          0  MISS:          9
cpu0_L2C PREFETCH  ACCESS:          0  HIT:          0  MISS:          0
cpu0_L2C WRITEBACK ACCESS:     296328  HIT:     296321  MISS:          7
LLC TOTAL     ACCESS:     846361  HIT:      47076  MISS:     799285
LLC LOAD      ACCESS:     550498  HIT:       7130  MISS:     543368
LLC RFO       ACCESS:          9  HIT:          0  MISS:          9
LLC PREFETCH  ACCESS:          0  HIT:          0  MISS:          0
LLC WRITEBACK ACCESS:     295713  HIT:      39880  MISS:     255833
Heartbeat CPU 0 instructions: 82000001 cycles: 101894086 heartbeat IPC: 0.664277 cumulative IPC: 0.430965 (Simulation time: 2 hr 25 min 9 sec) 

Region of Interest Statistics
cpu0_DTLB TOTAL     ACCESS:   14745864  HIT:   14539260  MISS:     206604
cpu0_DTLB LOAD      ACCESS:   13442795  HIT:   13237807  MISS:     204988
cpu0_DTLB RFO       ACCESS:    1303069  HIT:    1301453  MISS:       1616
cpu0_DTLB PREFETCH  ACCESS:          0  HIT:          0  MISS:          0
cpu0_DTLB WRITEBACK ACCESS:          0  HIT:          0  MISS:          0
cpu0_ITLB TOTAL     ACCESS:     496396  HIT:     496395  MISS:          1
cpu0_ITLB LOAD      ACCESS:     496396  HIT:     496395  MISS:          1
cpu0_ITLB RFO       ACCESS:          0  HIT:          0  MISS:          0
cpu0_ITLB PREFETCH  ACCESS:          0  HIT:          0  MISS:          0
cpu0_ITLB WRITEBACK ACCESS:          0  HIT:          0  MISS:          0
cpu0_L1I TOTAL     ACCESS:    2751822  HIT:    2751734  MISS:         88
cpu0_L1I LOAD      ACCESS:    2751822  HIT:    2751734  MISS:         88
cpu0_L1I RFO       ACCESS:          0  HIT:          0  MISS:          0
cpu0_L1I PREFETCH  ACCESS:          0  HIT:          0  MISS:          0
cpu0_L1I WRITEBACK ACCESS:          0  HIT:          0  MISS:          0
cpu0_STLB TOTAL     ACCESS:     206605  HIT:      53967  MISS:     152638
cpu0_STLB LOAD      ACCESS:     204989  HIT:      52356  MISS:     152633
cpu0_STLB RFO       ACCESS:       1616  HIT:       1611  MISS:          5
cpu0_STLB PREFETCH  ACCESS:          0  HIT:          0  MISS:          0
cpu0_STLB WRITEBACK ACCESS:          0  HIT:          0  MISS:          0
cpu0_L1D TOTAL     ACCESS:   17441075  HIT:   16735395  MISS:     705680
cpu0_L1D LOAD      ACCESS:   15169023  HIT:   14464007  MISS:     705016
cpu0_L1D RFO       ACCESS:    2119575  HIT:    2119566  MISS:          9
cpu0_L1D PREFETCH  ACCESS:          0  HIT:          0  MISS:          0
cpu0_L1D WRITEBACK ACCESS:          0  HIT:          0  MISS:          0
cpu0_L2C TOTAL     ACCESS:    1011243  HIT:     445019  MISS:     566224
cpu0_L2C LOAD      ACCESS:     705104  HIT:     139038  MISS:     566066
cpu0_L2C RFO       ACCESS:          9  HIT:          0  MISS:          9
cpu0_L2C PREFETCH  ACCESS:          0  HIT:          0  MISS:          0
cpu0_L2C WRITEBACK ACCESS:     305475  HIT:     305468  MISS:          7
LLC TOTAL     ACCESS:     871143  HIT:      47386  MISS:     823757
LLC LOAD      ACCESS:     566066  HIT:       7440  MISS:     558626
LLC RFO       ACCESS:          9  HIT:          0  MISS:          9
LLC PREFETCH  ACCESS:          0  HIT:          0  MISS:          0
LLC WRITEBACK ACCESS:     304926  HIT:      39880  MISS:     265046
Heartbeat CPU 0 instructions: 84000000 cycles: 104899667 heartbeat IPC: 0.665428 cumulative IPC: 0.440087 (Simulation time: 2 hr 28 min 49 sec) 

Region of Interest Statistics
cpu0_DTLB TOTAL     ACCESS:   15655525  HIT:   15445388  MISS:     210137
cpu0_DTLB LOAD      ACCESS:   14265022  HIT:   14056574  MISS:     208448
cpu0_DTLB RFO       ACCESS:    1390503  HIT:    1388814  MISS:       1689
cpu0_DTLB PREFETCH  ACCESS:          0  HIT:          0  MISS:          0
cpu0_DTLB WRITEBACK ACCESS:          0  HIT:          0  MISS:          0
cpu0_ITLB TOTAL     ACCESS:     534388  HIT:     534387  MISS:          1
cpu0_ITLB LOAD      ACCESS:     534388  HIT:     534387  MISS:          1
cpu0_ITLB RFO       ACCESS:          0  HIT:          0  MISS:          0
cpu0_ITLB PREFETCH  ACCESS:          0  HIT:          0  MISS:          0
cpu0_ITLB WRITEBACK ACCESS:          0  HIT:          0  MISS:          0
cpu0_L1I TOTAL     ACCESS:    2973847  HIT:    2973759  MISS:         88
cpu0_L1I LOAD      ACCESS:    2973847  HIT:    2973759  MISS:         88
cpu0_L1I RFO       ACCESS:          0  HIT:          0  MISS:          0
cpu0_L1I PREFETCH  ACCESS:          0  HIT:          0  MISS:          0
cpu0_L1I WRITEBACK ACCESS:          0  HIT:          0  MISS:          0
cpu0_STLB TOTAL     ACCESS:     210138  HIT:      55337  MISS:     154801
cpu0_STLB LOAD      ACCESS:     208449  HIT:      53653  MISS:     154796
cpu0_STLB RFO       ACCESS:       1689  HIT:       1684  MISS:          5
cpu0_STLB PREFETCH  ACCESS:          0  HIT:          0  MISS:          0
cpu0_STLB WRITEBACK ACCESS:          0  HIT:          0  MISS:          0
cpu0_L1D TOTAL     ACCESS:   18526374  HIT:   17802121  MISS:     724253
cpu0_L1D LOAD      ACCESS:   16098796  HIT:   15375244  MISS:     723552
cpu0_L1D RFO       ACCESS:    2272944  HIT:    2272935  MISS:          9
cpu0_L1D PREFETCH  ACCESS:          0  HIT:          0  MISS:          0
cpu0_L1D WRITEBACK ACCESS:          0  HIT:          0  MISS:          0
cpu0_L2C TOTAL     ACCESS:    1038995  HIT:     457413  MISS:     581582
cpu0_L2C LOAD      ACCESS:     723640  HIT:     142217  MISS:     581423
cpu0_L2C RFO       ACCESS:          9  HIT:          0  MISS:          9
cpu0_L2C PREFETCH  ACCESS:          0  HIT:          0  MISS:          0
cpu0_L2C WRITEBACK ACCESS:     314654  HIT:     314647  MISS:          7
LLC TOTAL     ACCESS:     895700  HIT:      47522  MISS:     848178
LLC LOAD      ACCESS:     581423  HIT:       7576  MISS:     573847
LLC RFO       ACCESS:          9  HIT:          0  MISS:          9
LLC PREFETCH  ACCESS:          0  HIT:          0  MISS:          0
LLC WRITEBACK ACCESS:     314125  HIT:      39880  MISS:     274245
Heartbeat CPU 0 instructions: 86000002 cycles: 107916318 heartbeat IPC: 0.662988 cumulative IPC: 0.448463 (Simulation time: 2 hr 32 min 27 sec) 

Region of Interest Statistics
cpu0_DTLB TOTAL     ACCESS:   16565552  HIT:   16351783  MISS:     213769
cpu0_DTLB LOAD      ACCESS:   15087594  HIT:   14875612  MISS:     211982
cpu0_DTLB RFO       ACCESS:    1477958  HIT:    1476171  MISS:       1787
cpu0_DTLB PREFETCH  ACCESS:          0  HIT:          0  MISS:          0
cpu0_DTLB WRITEBACK ACCESS:          0  HIT:          0  MISS:          0
cpu0_ITLB TOTAL     ACCESS:     572359  HIT:     572358  MISS:          1
cpu0_ITLB LOAD      ACCESS:     572359  HIT:     572358  MISS:          1
cpu0_ITLB RFO       ACCESS:          0  HIT:          0  MISS:          0
cpu0_ITLB PREFETCH  ACCESS:          0  HIT:          0  MISS:          0
cpu0_ITLB WRITEBACK ACCESS:          0  HIT:          0  MISS:          0
cpu0_L1I TOTAL     ACCESS:    3195851  HIT:    3195763  MISS:         88
cpu0_L1I LOAD      ACCESS:    3195851  HIT:    3195763  MISS:         88
cpu0_L1I RFO       ACCESS:          0  HIT:          0  MISS:          0
cpu0_L1I PREFETCH  ACCESS:          0  HIT:          0  MISS:          0
cpu0_L1I WRITEBACK ACCESS:          0  HIT:          0  MISS:          0
cpu0_STLB TOTAL     ACCESS:     213770  HIT:      56803  MISS:     156967
cpu0_STLB LOAD      ACCESS:     211983  HIT:      55021  MISS:     156962
cpu0_STLB RFO       ACCESS:       1787  HIT:       1782  MISS:          5
cpu0_STLB PREFETCH  ACCESS:          0  HIT:          0  MISS:          0
cpu0_STLB WRITEBACK ACCESS:          0  HIT:          0  MISS:          0
cpu0_L1D TOTAL     ACCESS:   19612035  HIT:   18869230  MISS:     742805
cpu0_L1D LOAD      ACCESS:   17028918  HIT:   16286850  MISS:     742068
cpu0_L1D RFO       ACCESS:    2426322  HIT:    2426313  MISS:          9
cpu0_L1D PREFETCH  ACCESS:          0  HIT:          0  MISS:          0
cpu0_L1D WRITEBACK ACCESS:          0  HIT:          0  MISS:          0
cpu0_L2C TOTAL     ACCESS:    1066710  HIT:     469793  MISS:     596917
cpu0_L2C LOAD      ACCESS:     742156  HIT:     145398  MISS:     596758
cpu0_L2C RFO       ACCESS:          9  HIT:          0  MISS:          9
cpu0_L2C PREFETCH  ACCESS:          0  HIT:          0  MISS:          0
cpu0_L2C WRITEBACK ACCESS:     323817  HIT:     323810  MISS:          7
LLC TOTAL     ACCESS:     920074  HIT:      47578  MISS:     872496
LLC LOAD      ACCESS:     596758  HIT:       7632  MISS:     589126
LLC RFO       ACCESS:          9  HIT:          0  MISS:          9
LLC PREFETCH  ACCESS:          0  HIT:          0  MISS:          0
LLC WRITEBACK ACCESS:     323164  HIT:      39880  MISS:     283284
Heartbeat CPU 0 instructions: 88000002 cycles: 110940693 heartbeat IPC: 0.661294 cumulative IPC: 0.45619 (Simulation time: 2 hr 35 min 57 sec) 

Region of Interest Statistics
cpu0_DTLB TOTAL     ACCESS:   17475493  HIT:   17257947  MISS:     217546
cpu0_DTLB LOAD      ACCESS:   15910017  HIT:   15694371  MISS:     215646
cpu0_DTLB RFO       ACCESS:    1565476  HIT:    1563576  MISS:       1900
cpu0_DTLB PREFETCH  ACCESS:          0  HIT:          0  MISS:          0
cpu0_DTLB WRITEBACK ACCESS:          0  HIT:          0  MISS:          0
cpu0_ITLB TOTAL     ACCESS:     610331  HIT:     610330  MISS:          1
cpu0_ITLB LOAD      ACCESS:     610331  HIT:     610330  MISS:          1
cpu0_ITLB RFO       ACCESS:          0  HIT:          0  MISS:          0
cpu0_ITLB PREFETCH  ACCESS:          0  HIT:          0  MISS:          0
cpu0_ITLB WRITEBACK ACCESS:          0  HIT:          0  MISS:          0
cpu0_L1I TOTAL     ACCESS:    3417966  HIT:    3417878  MISS:         88
cpu0_L1I LOAD      ACCESS:    3417966  HIT:    3417878  MISS:         88
cpu0_L1I RFO       ACCESS:          0  HIT:          0  MISS:          0
cpu0_L1I PREFETCH  ACCESS:          0  HIT:          0  MISS:          0
cpu0_L1I WRITEBACK ACCESS:          0  HIT:          0  MISS:          0
cpu0_STLB TOTAL     ACCESS:     217547  HIT:      58417  MISS:     159130
cpu0_STLB LOAD      ACCESS:     215647  HIT:      56522  MISS:     159125
cpu0_STLB RFO       ACCESS:       1900  HIT:       1895  MISS:          5
cpu0_STLB PREFETCH  ACCESS:          0  HIT:          0  MISS:          0
cpu0_STLB WRITEBACK ACCESS:          0  HIT:          0  MISS:          0
cpu0_L1D TOTAL     ACCESS:   20697629  HIT:   19936238  MISS:     761391
cpu0_L1D LOAD      ACCESS:   17958982  HIT:   17198364  MISS:     760618
cpu0_L1D RFO       ACCESS:    2579694  HIT:    2579685  MISS:          9
cpu0_L1D PREFETCH  ACCESS:          0  HIT:          0  MISS:          0
cpu0_L1D WRITEBACK ACCESS:          0  HIT:          0  MISS:          0
cpu0_L2C TOTAL     ACCESS:    1094454  HIT:     482146  MISS:     612308
cpu0_L2C LOAD      ACCESS:     760706  HIT:     148558  MISS:     612148
cpu0_L2C RFO       ACCESS:          9  HIT:          0  MISS:          9
cpu0_L2C PREFETCH  ACCESS:          0  HIT:          0  MISS:          0
cpu0_L2C WRITEBACK ACCESS:     332975  HIT:     332968  MISS:          7
LLC TOTAL     ACCESS:     944679  HIT:      47618  MISS:     897061
LLC LOAD      ACCESS:     612148  HIT:       7671  MISS:     604477
LLC RFO       ACCESS:          9  HIT:          0  MISS:          9
LLC PREFETCH  ACCESS:          0  HIT:          0  MISS:          0
LLC WRITEBACK ACCESS:     332378  HIT:      39881  MISS:     292497
Heartbeat CPU 0 instructions: 90000002 cycles: 113964634 heartbeat IPC: 0.661389 cumulative IPC: 0.463379 (Simulation time: 2 hr 39 min 24 sec) 

Region of Interest Statistics
cpu0_DTLB TOTAL     ACCESS:   18385960  HIT:   18164948  MISS:     221012
cpu0_DTLB LOAD      ACCESS:   16732995  HIT:   16513962  MISS:     219033
cpu0_DTLB RFO       ACCESS:    1652965  HIT:    1650986  MISS:       1979
cpu0_DTLB PREFETCH  ACCESS:          0  HIT:          0  MISS:          0
cpu0_DTLB WRITEBACK ACCESS:          0  HIT:          0  MISS:          0
cpu0_ITLB TOTAL     ACCESS:     648294  HIT:     648293  MISS:          1
cpu0_ITLB LOAD      ACCESS:     648294  HIT:     648293  MISS:          1
cpu0_ITLB RFO       ACCESS:          0  HIT:          0  MISS:          0
cpu0_ITLB PREFETCH  ACCESS:          0  HIT:          0  MISS:          0
cpu0_ITLB WRITEBACK ACCESS:          0  HIT:          0  MISS:          0
cpu0_L1I TOTAL     ACCESS:    3640204  HIT:    3640116  MISS:         88
cpu0_L1I LOAD      ACCESS:    3640204  HIT:    3640116  MISS:         88
cpu0_L1I RFO       ACCESS:          0  HIT:          0  MISS:          0
cpu0_L1I PREFETCH  ACCESS:          0  HIT:          0  MISS:          0
cpu0_L1I WRITEBACK ACCESS:          0  HIT:          0  MISS:          0
cpu0_STLB TOTAL     ACCESS:     221013  HIT:      59713  MISS:     161300
cpu0_STLB LOAD      ACCESS:     219034  HIT:      57739  MISS:     161295
cpu0_STLB RFO       ACCESS:       1979  HIT:       1974  MISS:          5
cpu0_STLB PREFETCH  ACCESS:          0  HIT:          0  MISS:          0
cpu0_STLB WRITEBACK ACCESS:          0  HIT:          0  MISS:          0
cpu0_L1D TOTAL     ACCESS:   21783547  HIT:   21003592  MISS:     779955
cpu0_L1D LOAD      ACCESS:   18889366  HIT:   18110223  MISS:     779143
cpu0_L1D RFO       ACCESS:    2733063  HIT:    2733054  MISS:          9
cpu0_L1D PREFETCH  ACCESS:          0  HIT:          0  MISS:          0
cpu0_L1D WRITEBACK ACCESS:          0  HIT:          0  MISS:          0
cpu0_L2C TOTAL     ACCESS:    1122172  HIT:     494372  MISS:     627800
cpu0_L2C LOAD      ACCESS:     779231  HIT:     151593  MISS:     627638
cpu0_L2C RFO       ACCESS:          9  HIT:          0  MISS:          9
cpu0_L2C PREFETCH  ACCESS:          0  HIT:          0  MISS:          0
cpu0_L2C WRITEBACK ACCESS:     342129  HIT:     342122  MISS:          7
LLC TOTAL     ACCESS:     969365  HIT:      47686  MISS:     921679
LLC LOAD      ACCESS:     627638  HIT:       7738  MISS:     619900
LLC RFO       ACCESS:          9  HIT:          0  MISS:          9
LLC PREFETCH  ACCESS:          0  HIT:          0  MISS:          0
LLC WRITEBACK ACCESS:     341572  HIT:      39882  MISS:     301690
Heartbeat CPU 0 instructions: 92000000 cycles: 116981456 heartbeat IPC: 0.662949 cumulative IPC: 0.470118 (Simulation time: 2 hr 42 min 56 sec) 

Region of Interest Statistics
cpu0_DTLB TOTAL     ACCESS:   19295730  HIT:   19071246  MISS:     224484
cpu0_DTLB LOAD      ACCESS:   17555270  HIT:   17332839  MISS:     222431
cpu0_DTLB RFO       ACCESS:    1740460  HIT:    1738407  MISS:       2053
cpu0_DTLB PREFETCH  ACCESS:          0  HIT:          0  MISS:          0
cpu0_DTLB WRITEBACK ACCESS:          0  HIT:          0  MISS:          0
cpu0_ITLB TOTAL     ACCESS:     686258  HIT:     686257  MISS:          1
cpu0_ITLB LOAD      ACCESS:     686258  HIT:     686257  MISS:          1
cpu0_ITLB RFO       ACCESS:          0  HIT:          0  MISS:          0
cpu0_ITLB PREFETCH  ACCESS:          0  HIT:          0  MISS:          0
cpu0_ITLB WRITEBACK ACCESS:          0  HIT:          0  MISS:          0
cpu0_L1I TOTAL     ACCESS:    3862422  HIT:    3862334  MISS:         88
cpu0_L1I LOAD      ACCESS:    3862422  HIT:    3862334  MISS:         88
cpu0_L1I RFO       ACCESS:          0  HIT:          0  MISS:          0
cpu0_L1I PREFETCH  ACCESS:          0  HIT:          0  MISS:          0
cpu0_L1I WRITEBACK ACCESS:          0  HIT:          0  MISS:          0
cpu0_STLB TOTAL     ACCESS:     224485  HIT:      61023  MISS:     163462
cpu0_STLB LOAD      ACCESS:     222432  HIT:      58975  MISS:     163457
cpu0_STLB RFO       ACCESS:       2053  HIT:       2048  MISS:          5
cpu0_STLB PREFETCH  ACCESS:          0  HIT:          0  MISS:          0
cpu0_STLB WRITEBACK ACCESS:          0  HIT:          0  MISS:          0
cpu0_L1D TOTAL     ACCESS:   22869283  HIT:   22070762  MISS:     798521
cpu0_L1D LOAD      ACCESS:   19819577  HIT:   19021905  MISS:     797672
cpu0_L1D RFO       ACCESS:    2886433  HIT:    2886424  MISS:          9
cpu0_L1D PREFETCH  ACCESS:          0  HIT:          0  MISS:          0
cpu0_L1D WRITEBACK ACCESS:          0  HIT:          0  MISS:          0
cpu0_L2C TOTAL     ACCESS:    1149910  HIT:     506689  MISS:     643221
cpu0_L2C LOAD      ACCESS:     797760  HIT:     154703  MISS:     643057
cpu0_L2C RFO       ACCESS:          9  HIT:          0  MISS:          9
cpu0_L2C PREFETCH  ACCESS:          0  HIT:          0  MISS:          0
cpu0_L2C WRITEBACK ACCESS:     351301  HIT:     351294  MISS:          7
LLC TOTAL     ACCESS:     993989  HIT:      47761  MISS:     946228
LLC LOAD      ACCESS:     643057  HIT:       7812  MISS:     635245
LLC RFO       ACCESS:          9  HIT:          0  MISS:          9
LLC PREFETCH  ACCESS:          0  HIT:          0  MISS:          0
LLC WRITEBACK ACCESS:     350775  HIT:      39883  MISS:     310892
Heartbeat CPU 0 instructions: 94000000 cycles: 119999162 heartbeat IPC: 0.662755 cumulative IPC: 0.476412 (Simulation time: 2 hr 46 min 25 sec) 

Region of Interest Statistics
cpu0_DTLB TOTAL     ACCESS:   20205620  HIT:   19977485  MISS:     228135
cpu0_DTLB LOAD      ACCESS:   18377703  HIT:   18151734  MISS:     225969
cpu0_DTLB RFO       ACCESS:    1827917  HIT:    1825751  MISS:       2166
cpu0_DTLB PREFETCH  ACCESS:          0  HIT:          0  MISS:          0
cpu0_DTLB WRITEBACK ACCESS:          0  HIT:          0  MISS:          0
cpu0_ITLB TOTAL     ACCESS:     724240  HIT:     724239  MISS:          1
cpu0_ITLB LOAD      ACCESS:     724240  HIT:     724239  MISS:          1
cpu0_ITLB RFO       ACCESS:          0  HIT:          0  MISS:          0
cpu0_ITLB PREFETCH  ACCESS:          0  HIT:          0  MISS:          0
cpu0_ITLB WRITEBACK ACCESS:          0  HIT:          0  MISS:          0
cpu0_L1I TOTAL     ACCESS:    4084579  HIT:    4084491  MISS:         88
cpu0_L1I LOAD      ACCESS:    4084579  HIT:    4084491  MISS:         88
cpu0_L1I RFO       ACCESS:          0  HIT:          0  MISS:          0
cpu0_L1I PREFETCH  ACCESS:          0  HIT:          0  MISS:          0
cpu0_L1I WRITEBACK ACCESS:          0  HIT:          0  MISS:          0
cpu0_STLB TOTAL     ACCESS:     228136  HIT:      62502  MISS:     165634
cpu0_STLB LOAD      ACCESS:     225970  HIT:      60341  MISS:     165629
cpu0_STLB RFO       ACCESS:       2166  HIT:       2161  MISS:          5
cpu0_STLB PREFETCH  ACCESS:          0  HIT:          0  MISS:          0
cpu0_STLB WRITEBACK ACCESS:          0  HIT:          0  MISS:          0
cpu0_L1D TOTAL     ACCESS:   23954723  HIT:   23137628  MISS:     817095
cpu0_L1D LOAD      ACCESS:   20749481  HIT:   19933274  MISS:     816207
cpu0_L1D RFO       ACCESS:    3039804  HIT:    3039795  MISS:          9
cpu0_L1D PREFETCH  ACCESS:          0  HIT:          0  MISS:          0
cpu0_L1D WRITEBACK ACCESS:          0  HIT:          0  MISS:          0
cpu0_L2C TOTAL     ACCESS:    1177651  HIT:     519061  MISS:     658590
cpu0_L2C LOAD      ACCESS:     816295  HIT:     157870  MISS:     658425
cpu0_L2C RFO       ACCESS:          9  HIT:          0  MISS:          9
cpu0_L2C PREFETCH  ACCESS:          0  HIT:          0  MISS:          0
cpu0_L2C WRITEBACK ACCESS:     360468  HIT:     360461  MISS:          7
LLC TOTAL     ACCESS:    1018495  HIT:      47813  MISS:     970682
LLC LOAD      ACCESS:     658425  HIT:       7861  MISS:     650564
LLC RFO       ACCESS:          9  HIT:          0  MISS:          9
LLC PREFETCH  ACCESS:          0  HIT:          0  MISS:          0
LLC WRITEBACK ACCESS:     359912  HIT:      39886  MISS:     320026
Heartbeat CPU 0 instructions: 96000004 cycles: 123008564 heartbeat IPC: 0.664585 cumulative IPC: 0.48235 (Simulation time: 2 hr 49 min 55 sec) 

Region of Interest Statistics
cpu0_DTLB TOTAL     ACCESS:   21115526  HIT:   20883882  MISS:     231644
cpu0_DTLB LOAD      ACCESS:   19200153  HIT:   18970757  MISS:     229396
cpu0_DTLB RFO       ACCESS:    1915373  HIT:    1913125  MISS:       2248
cpu0_DTLB PREFETCH  ACCESS:          0  HIT:          0  MISS:          0
cpu0_DTLB WRITEBACK ACCESS:          0  HIT:          0  MISS:          0
cpu0_ITLB TOTAL     ACCESS:     762211  HIT:     762210  MISS:          1
cpu0_ITLB LOAD      ACCESS:     762211  HIT:     762210  MISS:          1
cpu0_ITLB RFO       ACCESS:          0  HIT:          0  MISS:          0
cpu0_ITLB PREFETCH  ACCESS:          0  HIT:          0  MISS:          0
cpu0_ITLB WRITEBACK ACCESS:          0  HIT:          0  MISS:          0
cpu0_L1I TOTAL     ACCESS:    4306687  HIT:    4306599  MISS:         88
cpu0_L1I LOAD      ACCESS:    4306687  HIT:    4306599  MISS:         88
cpu0_L1I RFO       ACCESS:          0  HIT:          0  MISS:          0
cpu0_L1I PREFETCH  ACCESS:          0  HIT:          0  MISS:          0
cpu0_L1I WRITEBACK ACCESS:          0  HIT:          0  MISS:          0
cpu0_STLB TOTAL     ACCESS:     231645  HIT:      63853  MISS:     167792
cpu0_STLB LOAD      ACCESS:     229397  HIT:      61610  MISS:     167787
cpu0_STLB RFO       ACCESS:       2248  HIT:       2243  MISS:          5
cpu0_STLB PREFETCH  ACCESS:          0  HIT:          0  MISS:          0
cpu0_STLB WRITEBACK ACCESS:          0  HIT:          0  MISS:          0
cpu0_L1D TOTAL     ACCESS:   25040188  HIT:   24204527  MISS:     835661
cpu0_L1D LOAD      ACCESS:   21679424  HIT:   20844690  MISS:     834734
cpu0_L1D RFO       ACCESS:    3193174  HIT:    3193165  MISS:          9
cpu0_L1D PREFETCH  ACCESS:          0  HIT:          0  MISS:          0
cpu0_L1D WRITEBACK ACCESS:          0  HIT:          0  MISS:          0
cpu0_L2C TOTAL     ACCESS:    1205377  HIT:     531513  MISS:     673864
cpu0_L2C LOAD      ACCESS:     834822  HIT:     161125  MISS:     673697
cpu0_L2C RFO       ACCESS:          9  HIT:          0  MISS:          9
cpu0_L2C PREFETCH  ACCESS:          0  HIT:          0  MISS:          0
cpu0_L2C WRITEBACK ACCESS:     369628  HIT:     369621  MISS:          7
LLC TOTAL     ACCESS:    1042883  HIT:      47887  MISS:     994996
LLC LOAD      ACCESS:     673697  HIT:       7933  MISS:     665764
LLC RFO       ACCESS:          9  HIT:          0  MISS:          9
LLC PREFETCH  ACCESS:          0  HIT:          0  MISS:          0
LLC WRITEBACK ACCESS:     369026  HIT:      39887  MISS:     329139
Heartbeat CPU 0 instructions: 98000002 cycles: 126024862 heartbeat IPC: 0.663064 cumulative IPC: 0.487891 (Simulation time: 2 hr 53 min 25 sec) 

Region of Interest Statistics
cpu0_DTLB TOTAL     ACCESS:   22025362  HIT:   21789808  MISS:     235554
cpu0_DTLB LOAD      ACCESS:   20022487  HIT:   19789308  MISS:     233179
cpu0_DTLB RFO       ACCESS:    2002875  HIT:    2000500  MISS:       2375
cpu0_DTLB PREFETCH  ACCESS:          0  HIT:          0  MISS:          0
cpu0_DTLB WRITEBACK ACCESS:          0  HIT:          0  MISS:          0
cpu0_ITLB TOTAL     ACCESS:     800199  HIT:     800198  MISS:          1
cpu0_ITLB LOAD      ACCESS:     800199  HIT:     800198  MISS:          1
cpu0_ITLB RFO       ACCESS:          0  HIT:          0  MISS:          0
cpu0_ITLB PREFETCH  ACCESS:          0  HIT:          0  MISS:          0
cpu0_ITLB WRITEBACK ACCESS:          0  HIT:          0  MISS:          0
cpu0_L1I TOTAL     ACCESS:    4528836  HIT:    4528748  MISS:         88
cpu0_L1I LOAD      ACCESS:    4528836  HIT:    4528748  MISS:         88
cpu0_L1I RFO       ACCESS:          0  HIT:          0  MISS:          0
cpu0_L1I PREFETCH  ACCESS:          0  HIT:          0  MISS:          0
cpu0_L1I WRITEBACK ACCESS:          0  HIT:          0  MISS:          0
cpu0_STLB TOTAL     ACCESS:     235555  HIT:      65592  MISS:     169963
cpu0_STLB LOAD      ACCESS:     233180  HIT:      63222  MISS:     169958
cpu0_STLB RFO       ACCESS:       2375  HIT:       2370  MISS:          5
cpu0_STLB PREFETCH  ACCESS:          0  HIT:          0  MISS:          0
cpu0_STLB WRITEBACK ACCESS:          0  HIT:          0  MISS:          0
cpu0_L1D TOTAL     ACCESS:   26125671  HIT:   25271431  MISS:     854240
cpu0_L1D LOAD      ACCESS:   22609375  HIT:   21756102  MISS:     853273
cpu0_L1D RFO       ACCESS:    3346543  HIT:    3346534  MISS:          9
cpu0_L1D PREFETCH  ACCESS:          0  HIT:          0  MISS:          0
cpu0_L1D WRITEBACK ACCESS:          0  HIT:          0  MISS:          0
cpu0_L2C TOTAL     ACCESS:    1233112  HIT:     543883  MISS:     689229
cpu0_L2C LOAD      ACCESS:     853361  HIT:     164302  MISS:     689059
cpu0_L2C RFO       ACCESS:          9  HIT:          0  MISS:          9
cpu0_L2C PREFETCH  ACCESS:          0  HIT:          0  MISS:          0
cpu0_L2C WRITEBACK ACCESS:     378784  HIT:     378777  MISS:          7
LLC TOTAL     ACCESS:    1067370  HIT:      47967  MISS:    1019403
LLC LOAD      ACCESS:     689059  HIT:       8011  MISS:     681048
LLC RFO       ACCESS:          9  HIT:          0  MISS:          9
LLC PREFETCH  ACCESS:          0  HIT:          0  MISS:          0
LLC WRITEBACK ACCESS:     378148  HIT:      39887  MISS:     338261
Heartbeat CPU 0 instructions: 100000002 cycles: 129045572 heartbeat IPC: 0.662096 cumulative IPC: 0.49308 (Simulation time: 2 hr 57 min 8 sec) 

Region of Interest Statistics
cpu0_DTLB TOTAL     ACCESS:   22935347  HIT:   22695885  MISS:     239462
cpu0_DTLB LOAD      ACCESS:   20844976  HIT:   20608025  MISS:     236951
cpu0_DTLB RFO       ACCESS:    2090371  HIT:    2087860  MISS:       2511
cpu0_DTLB PREFETCH  ACCESS:          0  HIT:          0  MISS:          0
cpu0_DTLB WRITEBACK ACCESS:          0  HIT:          0  MISS:          0
cpu0_ITLB TOTAL     ACCESS:     838176  HIT:     838175  MISS:          1
cpu0_ITLB LOAD      ACCESS:     838176  HIT:     838175  MISS:          1
cpu0_ITLB RFO       ACCESS:          0  HIT:          0  MISS:          0
cpu0_ITLB PREFETCH  ACCESS:          0  HIT:          0  MISS:          0
cpu0_ITLB WRITEBACK ACCESS:          0  HIT:          0  MISS:          0
cpu0_L1I TOTAL     ACCESS:    4750884  HIT:    4750796  MISS:         88
cpu0_L1I LOAD      ACCESS:    4750884  HIT:    4750796  MISS:         88
cpu0_L1I RFO       ACCESS:          0  HIT:          0  MISS:          0
cpu0_L1I PREFETCH  ACCESS:          0  HIT:          0  MISS:          0
cpu0_L1I WRITEBACK ACCESS:          0  HIT:          0  MISS:          0
cpu0_STLB TOTAL     ACCESS:     239463  HIT:      67343  MISS:     172120
cpu0_STLB LOAD      ACCESS:     236952  HIT:      64837  MISS:     172115
cpu0_STLB RFO       ACCESS:       2511  HIT:       2506  MISS:          5
cpu0_STLB PREFETCH  ACCESS:          0  HIT:          0  MISS:          0
cpu0_STLB WRITEBACK ACCESS:          0  HIT:          0  MISS:          0
cpu0_L1D TOTAL     ACCESS:   27211329  HIT:   26338533  MISS:     872796
cpu0_L1D LOAD      ACCESS:   23539520  HIT:   22667725  MISS:     871795
cpu0_L1D RFO       ACCESS:    3499903  HIT:    3499894  MISS:          9
cpu0_L1D PREFETCH  ACCESS:          0  HIT:          0  MISS:          0
cpu0_L1D WRITEBACK ACCESS:          0  HIT:          0  MISS:          0
cpu0_L2C TOTAL     ACCESS:    1260845  HIT:     556288  MISS:     704557
cpu0_L2C LOAD      ACCESS:     871883  HIT:     167496  MISS:     704387
cpu0_L2C RFO       ACCESS:          9  HIT:          0  MISS:          9
cpu0_L2C PREFETCH  ACCESS:          0  HIT:          0  MISS:          0
cpu0_L2C WRITEBACK ACCESS:     387961  HIT:     387954  MISS:          7
LLC TOTAL     ACCESS:    1091897  HIT:      48018  MISS:    1043879
LLC LOAD      ACCESS:     704387  HIT:       8062  MISS:     696325
LLC RFO       ACCESS:          9  HIT:          0  MISS:          9
LLC PREFETCH  ACCESS:          0  HIT:          0  MISS:          0
LLC WRITEBACK ACCESS:     387347  HIT:      39887  MISS:     347460
Heartbeat CPU 0 instructions: 102000001 cycles: 132060303 heartbeat IPC: 0.663409 cumulative IPC: 0.497998 (Simulation time: 3 hr 0 min 53 sec) 

Region of Interest Statistics
cpu0_DTLB TOTAL     ACCESS:   23845438  HIT:   23602693  MISS:     242745
cpu0_DTLB LOAD      ACCESS:   21667571  HIT:   21427391  MISS:     240180
cpu0_DTLB RFO       ACCESS:    2177867  HIT:    2175302  MISS:       2565
cpu0_DTLB PREFETCH  ACCESS:          0  HIT:          0  MISS:          0
cpu0_DTLB WRITEBACK ACCESS:          0  HIT:          0  MISS:          0
cpu0_ITLB TOTAL     ACCESS:     876163  HIT:     876162  MISS:          1
cpu0_ITLB LOAD      ACCESS:     876163  HIT:     876162  MISS:          1
cpu0_ITLB RFO       ACCESS:          0  HIT:          0  MISS:          0
cpu0_ITLB PREFETCH  ACCESS:          0  HIT:          0  MISS:          0
cpu0_ITLB WRITEBACK ACCESS:          0  HIT:          0  MISS:          0
cpu0_L1I TOTAL     ACCESS:    4973047  HIT:    4972959  MISS:         88
cpu0_L1I LOAD      ACCESS:    4973047  HIT:    4972959  MISS:         88
cpu0_L1I RFO       ACCESS:          0  HIT:          0  MISS:          0
cpu0_L1I PREFETCH  ACCESS:          0  HIT:          0  MISS:          0
cpu0_L1I WRITEBACK ACCESS:          0  HIT:          0  MISS:          0
cpu0_STLB TOTAL     ACCESS:     242746  HIT:      68454  MISS:     174292
cpu0_STLB LOAD      ACCESS:     240181  HIT:      65894  MISS:     174287
cpu0_STLB RFO       ACCESS:       2565  HIT:       2560  MISS:          5
cpu0_STLB PREFETCH  ACCESS:          0  HIT:          0  MISS:          0
cpu0_STLB WRITEBACK ACCESS:          0  HIT:          0  MISS:          0
cpu0_L1D TOTAL     ACCESS:   28297021  HIT:   27405652  MISS:     891369
cpu0_L1D LOAD      ACCESS:   24469664  HIT:   23579333  MISS:     890331
cpu0_L1D RFO       ACCESS:    3653284  HIT:    3653275  MISS:          9
cpu0_L1D PREFETCH  ACCESS:          0  HIT:          0  MISS:          0
cpu0_L1D WRITEBACK ACCESS:          0  HIT:          0  MISS:          0
cpu0_L2C TOTAL     ACCESS:    1288584  HIT:     568553  MISS:     720031
cpu0_L2C LOAD      ACCESS:     890419  HIT:     170559  MISS:     719860
cpu0_L2C RFO       ACCESS:          9  HIT:          0  MISS:          9
cpu0_L2C PREFETCH  ACCESS:          0  HIT:          0  MISS:          0
cpu0_L2C WRITEBACK ACCESS:     397127  HIT:     397120  MISS:          7
LLC TOTAL     ACCESS:    1116523  HIT:      48112  MISS:    1068411
LLC LOAD      ACCESS:     719860  HIT:       8154  MISS:     711706
LLC RFO       ACCESS:          9  HIT:          0  MISS:          9
LLC PREFETCH  ACCESS:          0  HIT:          0  MISS:          0
LLC WRITEBACK ACCESS:     396499  HIT:      39889  MISS:     356610
Heartbeat CPU 0 instructions: 104000003 cycles: 135076932 heartbeat IPC: 0.662992 cumulative IPC: 0.502631 (Simulation time: 3 hr 4 min 27 sec) 

Region of Interest Statistics
cpu0_DTLB TOTAL     ACCESS:   24755147  HIT:   24508844  MISS:     246303
cpu0_DTLB LOAD      ACCESS:   22489824  HIT:   22246176  MISS:     243648
cpu0_DTLB RFO       ACCESS:    2265323  HIT:    2262668  MISS:       2655
cpu0_DTLB PREFETCH  ACCESS:          0  HIT:          0  MISS:          0
cpu0_DTLB WRITEBACK ACCESS:          0  HIT:          0  MISS:          0
cpu0_ITLB TOTAL     ACCESS:     914143  HIT:     914142  MISS:          1
cpu0_ITLB LOAD      ACCESS:     914143  HIT:     914142  MISS:          1
cpu0_ITLB RFO       ACCESS:          0  HIT:          0  MISS:          0
cpu0_ITLB PREFETCH  ACCESS:          0  HIT:          0  MISS:          0
cpu0_ITLB WRITEBACK ACCESS:          0  HIT:          0  MISS:          0
cpu0_L1I TOTAL     ACCESS:    5195148  HIT:    5195060  MISS:         88
cpu0_L1I LOAD      ACCESS:    5195148  HIT:    5195060  MISS:         88
cpu0_L1I RFO       ACCESS:          0  HIT:          0  MISS:          0
cpu0_L1I PREFETCH  ACCESS:          0  HIT:          0  MISS:          0
cpu0_L1I WRITEBACK ACCESS:          0  HIT:          0  MISS:          0
cpu0_STLB TOTAL     ACCESS:     246304  HIT:      69848  MISS:     176456
cpu0_STLB LOAD      ACCESS:     243649  HIT:      67198  MISS:     176451
cpu0_STLB RFO       ACCESS:       2655  HIT:       2650  MISS:          5
cpu0_STLB PREFETCH  ACCESS:          0  HIT:          0  MISS:          0
cpu0_STLB WRITEBACK ACCESS:          0  HIT:          0  MISS:          0
cpu0_L1D TOTAL     ACCESS:   29382375  HIT:   28472435  MISS:     909940
cpu0_L1D LOAD      ACCESS:   25399488  HIT:   24490624  MISS:     908864
cpu0_L1D RFO       ACCESS:    3806657  HIT:    3806648  MISS:          9
cpu0_L1D PREFETCH  ACCESS:          0  HIT:          0  MISS:          0
cpu0_L1D WRITEBACK ACCESS:          0  HIT:          0  MISS:          0
cpu0_L2C TOTAL     ACCESS:    1316296  HIT:     580784  MISS:     735512
cpu0_L2C LOAD      ACCESS:     908952  HIT:     173612  MISS:     735340
cpu0_L2C RFO       ACCESS:          9  HIT:          0  MISS:          9
cpu0_L2C PREFETCH  ACCESS:          0  HIT:          0  MISS:          0
cpu0_L2C WRITEBACK ACCESS:     406268  HIT:     406261  MISS:          7
LLC TOTAL     ACCESS:    1141150  HIT:      48229  MISS:    1092921
LLC LOAD      ACCESS:     735340  HIT:       8269  MISS:     727071
LLC RFO       ACCESS:          9  HIT:          0  MISS:          9
LLC PREFETCH  ACCESS:          0  HIT:          0  MISS:          0
LLC WRITEBACK ACCESS:     405645  HIT:      39890  MISS:     365755
Heartbeat CPU 0 instructions: 106000004 cycles: 138099060 heartbeat IPC: 0.661786 cumulative IPC: 0.506985 (Simulation time: 3 hr 8 min 1 sec) 

Region of Interest Statistics
cpu0_DTLB TOTAL     ACCESS:   25664946  HIT:   25414991  MISS:     249955
cpu0_DTLB LOAD      ACCESS:   23312145  HIT:   23064932  MISS:     247213
cpu0_DTLB RFO       ACCESS:    2352801  HIT:    2350059  MISS:       2742
cpu0_DTLB PREFETCH  ACCESS:          0  HIT:          0  MISS:          0
cpu0_DTLB WRITEBACK ACCESS:          0  HIT:          0  MISS:          0
cpu0_ITLB TOTAL     ACCESS:     952116  HIT:     952115  MISS:          1
cpu0_ITLB LOAD      ACCESS:     952116  HIT:     952115  MISS:          1
cpu0_ITLB RFO       ACCESS:          0  HIT:          0  MISS:          0
cpu0_ITLB PREFETCH  ACCESS:          0  HIT:          0  MISS:          0
cpu0_ITLB WRITEBACK ACCESS:          0  HIT:          0  MISS:          0
cpu0_L1I TOTAL     ACCESS:    5417284  HIT:    5417196  MISS:         88
cpu0_L1I LOAD      ACCESS:    5417284  HIT:    5417196  MISS:         88
cpu0_L1I RFO       ACCESS:          0  HIT:          0  MISS:          0
cpu0_L1I PREFETCH  ACCESS:          0  HIT:          0  MISS:          0
cpu0_L1I WRITEBACK ACCESS:          0  HIT:          0  MISS:          0
cpu0_STLB TOTAL     ACCESS:     249956  HIT:      71336  MISS:     178620
cpu0_STLB LOAD      ACCESS:     247214  HIT:      68599  MISS:     178615
cpu0_STLB RFO       ACCESS:       2742  HIT:       2737  MISS:          5
cpu0_STLB PREFETCH  ACCESS:          0  HIT:          0  MISS:          0
cpu0_STLB WRITEBACK ACCESS:          0  HIT:          0  MISS:          0
cpu0_L1D TOTAL     ACCESS:   30468037  HIT:   29539540  MISS:     928497
cpu0_L1D LOAD      ACCESS:   26329636  HIT:   25402253  MISS:     927383
cpu0_L1D RFO       ACCESS:    3960013  HIT:    3960004  MISS:          9
cpu0_L1D PREFETCH  ACCESS:          0  HIT:          0  MISS:          0
cpu0_L1D WRITEBACK ACCESS:          0  HIT:          0  MISS:          0
cpu0_L2C TOTAL     ACCESS:    1344023  HIT:     593095  MISS:     750928
cpu0_L2C LOAD      ACCESS:     927471  HIT:     176717  MISS:     750754
cpu0_L2C RFO       ACCESS:          9  HIT:          0  MISS:          9
cpu0_L2C PREFETCH  ACCESS:          0  HIT:          0  MISS:          0
cpu0_L2C WRITEBACK ACCESS:     415438  HIT:     415431  MISS:          7
LLC TOTAL     ACCESS:    1165771  HIT:      48274  MISS:    1117497
LLC LOAD      ACCESS:     750754  HIT:       8313  MISS:     742441
LLC RFO       ACCESS:          9  HIT:          0  MISS:          9
LLC PREFETCH  ACCESS:          0  HIT:          0  MISS:          0
[...]
LLC PREFETCH  ACCESS:          0  HIT:          0  MISS:          0
LLC WRITEBACK ACCESS:    6973367  HIT:     403541  MISS:    6569826
Finished CPU 0 instructions: 1500000003 cycles: 2240247570 cumulative IPC: 0.669569 (Simulation time: 20 hr 2 min 15 sec) 

ChampSim completed all CPUs

Region of Interest Statistics

CPU 0 cumulative IPC: 0.669569 instructions: 1500000003 cycles: 2240247570
cpu0_DTLB TOTAL     ACCESS:  579349638  HIT:  571898192  MISS:    7451446
cpu0_DTLB LOAD      ACCESS:  519675849  HIT:  513005442  MISS:    6670407
cpu0_DTLB RFO       ACCESS:   59673789  HIT:   58892750  MISS:     781039
cpu0_DTLB PREFETCH  ACCESS:          0  HIT:          0  MISS:          0
cpu0_DTLB WRITEBACK ACCESS:          0  HIT:          0  MISS:          0
cpu0_DTLB TRANSLATION ACCESS:          0  HIT:          0  MISS:          0
cpu0_DTLB PREFETCH  REQUESTED:          0  ISSUED:          0  USEFUL:          0  USELESS:          0
cpu0_DTLB AVERAGE MISS LATENCY: 14.8347 cycles
cpu0_ITLB TOTAL     ACCESS:   21566344  HIT:   21566313  MISS:         31
cpu0_ITLB LOAD      ACCESS:   21566344  HIT:   21566313  MISS:         31
cpu0_ITLB RFO       ACCESS:          0  HIT:          0  MISS:          0
cpu0_ITLB PREFETCH  ACCESS:          0  HIT:          0  MISS:          0
cpu0_ITLB WRITEBACK ACCESS:          0  HIT:          0  MISS:          0
cpu0_ITLB TRANSLATION ACCESS:          0  HIT:          0  MISS:          0
cpu0_ITLB PREFETCH  REQUESTED:          0  ISSUED:          0  USEFUL:          0  USELESS:          0
cpu0_ITLB AVERAGE MISS LATENCY: 299.129 cycles
cpu0_L1I TOTAL     ACCESS:  111070075  HIT:  111069048  MISS:       1027
cpu0_L1I LOAD      ACCESS:  111070075  HIT:  111069048  MISS:       1027
cpu0_L1I RFO       ACCESS:          0  HIT:          0  MISS:          0
cpu0_L1I PREFETCH  ACCESS:          0  HIT:          0  MISS:          0
cpu0_L1I WRITEBACK ACCESS:          0  HIT:          0  MISS:          0
cpu0_L1I TRANSLATION ACCESS:          0  HIT:          0  MISS:          0
cpu0_L1I PREFETCH  REQUESTED:          0  ISSUED:          0  USEFUL:          0  USELESS:          0
cpu0_L1I AVERAGE MISS LATENCY: 392.678 cycles
cpu0_STLB TOTAL     ACCESS:    7451477  HIT:    6404582  MISS:    1046895
cpu0_STLB LOAD      ACCESS:    6670438  HIT:    5626148  MISS:    1044290
cpu0_STLB RFO       ACCESS:     781039  HIT:     778434  MISS:       2605
cpu0_STLB PREFETCH  ACCESS:          0  HIT:          0  MISS:          0
cpu0_STLB WRITEBACK ACCESS:          0  HIT:          0  MISS:          0
cpu0_STLB TRANSLATION ACCESS:          0  HIT:          0  MISS:          0
cpu0_STLB PREFETCH  REQUESTED:          0  ISSUED:          0  USEFUL:          0  USELESS:          0
cpu0_STLB AVERAGE MISS LATENCY: 41.4846 cycles
cpu0_L1D TOTAL     ACCESS:  644688285  HIT:  617147672  MISS:   27540613
cpu0_L1D LOAD      ACCESS:  555082535  HIT:  527771684  MISS:   27310851
cpu0_L1D RFO       ACCESS:   88599830  HIT:   88442150  MISS:     157680
cpu0_L1D PREFETCH  ACCESS:          0  HIT:          0  MISS:          0
cpu0_L1D WRITEBACK ACCESS:          0  HIT:          0  MISS:          0
cpu0_L1D TRANSLATION ACCESS:    1005920  HIT:     933838  MISS:      72082
cpu0_L1D PREFETCH  REQUESTED:          0  ISSUED:          0  USEFUL:          0  USELESS:          0
cpu0_L1D AVERAGE MISS LATENCY: 250.649 cycles
cpu0_L2C TOTAL     ACCESS:   36221134  HIT:   18879594  MISS:   17341540
cpu0_L2C LOAD      ACCESS:   27311877  HIT:   10105494  MISS:   17206383
cpu0_L2C RFO       ACCESS:     157680  HIT:      24681  MISS:     132999
cpu0_L2C PREFETCH  ACCESS:          0  HIT:          0  MISS:          0
cpu0_L2C WRITEBACK ACCESS:    8679495  HIT:    8678975  MISS:        520
cpu0_L2C TRANSLATION ACCESS:      72082  HIT:      70444  MISS:       1638
cpu0_L2C PREFETCH  REQUESTED:          0  ISSUED:          0  USEFUL:          0  USELESS:          0
cpu0_L2C AVERAGE MISS LATENCY: 380.574 cycles
LLC TOTAL     ACCESS:   24314381  HIT:    3019332  MISS:   21295049
LLC LOAD      ACCESS:   17206377  HIT:    2559460  MISS:   14646917
LLC RFO       ACCESS:     132999  HIT:      55927  MISS:      77072
LLC PREFETCH  ACCESS:          0  HIT:          0  MISS:          0
LLC WRITEBACK ACCESS:    6973367  HIT:     403541  MISS:    6569826
LLC TRANSLATION ACCESS:       1638  HIT:        404  MISS:       1234
LLC PREFETCH  REQUESTED:          0  ISSUED:          0  USEFUL:          0  USELESS:          0
LLC AVERAGE MISS LATENCY: 292.814 cycles
~~~~~~~~~~Reuse Distance Profiler output~~~~~~~~~~
0	25046864	3180432
1	9618544	6199184
2	10773440	9092240
3	14536256	12672000
4	16505968	14145472
5	19184176	16233504
6	24494992	19275968
7	25688480	19944720
8	24350960	19543792
9	22590576	18886016
10	20031360	18113104
11	16668192	15288496
12	15688832	14576128
13	14293680	13489744
14	14288480	13662832
15	13023376	12280960
16	11508752	10949024
17	9276528	8703104
18	8586432	8103136
19	7871360	7342912
20	7259200	6828800
21	7076640	6647776
22	6189488	5763184
23	7009520	6372064
24	5204512	4767936
25	5051776	4668816
26	5086816	4709856
27	4792832	4357552
28	4784112	4352480
29	4735536	4367120
30	4816304	4469616
31	4629696	4267472
32	4325440	3907248
33	3904768	3456544
34	3593728	3171152
35	3424064	2961648
36	3039072	2553680
37	2887536	2442368
38	2900608	2475232
39	2728064	2298400
40	2627280	2174752
41	2427264	2021024
42	2481776	2090704
43	2484672	2122640
44	2348880	1881360
45	2358704	1983696
46	2295232	1965488
47	2185664	1844080
48	2123648	1783200
49	2016096	1713696
50	2014160	1714432
51	1929456	1611632
52	2084448	1792368
53	2035376	1744016
54	2089872	1812048
55	1991376	1760192
56	2107872	1860816
57	2220864	1987344
58	2324848	2118992
59	2338208	2149216
60	2099568	1917040
61	2194272	2006416
62	2098480	1955280
63	2175280	1982560
64	4256288	3921152
66	4313648	4050032
68	4203616	3948720
70	4273248	4030160
72	4338768	4105712
74	4197904	3945744
76	4025680	3747104
78	3901856	3684544
80	4241088	3994992
82	4319488	4032128
84	4556976	4299488
86	4411136	4161200
88	4424944	4169696
90	4700576	4437968
92	5009856	4680752
94	5099312	4752464
96	5481280	5029296
98	5592528	5050368
100	6073248	5411888
102	6183504	5321568
104	6195040	5331552
106	5947776	5062208
108	6047664	5178832
110	5710624	4926272
112	5541728	4885696
114	4349952	3825888
116	3345888	2920032
118	2560944	2251632
120	2140160	1862880
122	1759008	1525872
124	1592736	1382000
126	1410544	1218960
128	2228816	1947440
132	1929184	1702816
136	1574336	1408816
140	1409296	1291872
144	1358480	1282144
148	1329056	1276160
152	1309168	1279968
156	1264976	1245296
160	1188720	1174160
164	1053936	1027248
168	992128	948896
172	874800	839648
176	828720	789808
180	766112	721184
184	675472	660608
188	686224	679840
192	614896	611840
196	603936	602928
200	545072	544896
204	477296	477168
208	481344	481296
212	441584	441456
216	393264	393168
220	322400	322320
224	253408	253312
228	228848	228784
232	187376	187360
236	150000	149968
240	115520	115520
244	103712	103712
248	74944	74944
252	53920	53920
256	82208	82208
264	65632	65632
272	47264	47264
280	35968	35968
288	22016	22000
296	12000	12000
304	6624	6624
312	2688	2688
320	1104	1104
328	912	912
336	992	992
344	4608	4608
352	1568	1568
360	752	752
368	928	928
376	816	816
384	576	576
392	800	800
400	1008	1008
408	672	672
416	768	768
424	1872	1872
432	2240	2240
440	2864	2864
448	4832	4832
456	10064	10064
464	10176	10176
472	18512	18512
480	21504	21504
488	23168	23168
496	26896	26896
504	9168	9168
512	22096	22096
528	40624	40624
544	48608	48608
560	41856	41856
576	51440	51440
592	63984	63984
608	43056	43056
624	13488	13488
640	5424	5424
656	6400	6400
672	22032	22032
688	26112	26112
704	40000	40000
720	28400	28400
736	10448	10448
752	11312	11312
768	17184	17184
784	23584	23584
800	29888	29888
816	45856	45856
832	63888	63888
848	51296	51296
864	19040	19040
880	17904	17904
896	18736	18736
912	15136	15136
928	6640	6640
944	12320	12320
960	4720	4720
976	8096	8096
992	21648	21648
1008	22400	22400
1024	21856	21856
1056	101808	101808
1088	70560	70560
1120	60016	60016
1152	59104	59104
1184	22224	22224
1216	54480	54480
1248	111104	111104
1280	248064	248064
1312	91392	91392
1344	49648	49648
1376	204672	204672
1408	485600	485504
1440	21744	21696
1472	272	272
1504	672	672
1536	32	32
1568	80	80
1600	128	128
1632	384	384
1664	896	896
1696	4176	4176
1728	20400	20400
1760	32624	32624
1792	42720	42720
1824	72976	72976
1856	142384	142384
1888	357104	357104
1920	462800	462800
1952	391040	391040
1984	228608	228608
2016	195232	195232
2048	441776	441776
2112	181392	181392
2176	32480	32480
2240	672	672
2304	16	16
2368	0	0
2432	0	0
2496	0	0
2560	0	0
2624	0	0
2688	0	0
2752	0	0
2816	0	0
2880	0	0
2944	0	0
3008	0	0
3072	0	0
3136	0	0
3200	0	0
3264	0	0
3328	0	0
3392	0	0
3456	0	0
3520	0	0
3584	0	0
3648	0	0
3712	0	0
3776	0	0
3840	0	0
3904	0	0
3968	0	0
4032	0	0
4096	0	0
4224	0	0
4352	0	0
4480	5056	5056
4608	1232	1232
4736	0	0
4864	16	16
4992	16	0
5120	0	0
5248	16	0
5376	16	0
5504	0	0
5632	16	0
5760	0	0
5888	0	0
6016	640	624
6144	3632	3632
6272	8848	8848
6400	20528	20528
6528	30368	30336
6656	26000	26000
6784	11872	11872
6912	2592	2592
7040	576	576
7168	160	160
7296	0	0
7424	16	16
7552	0	0
7680	16	16
7808	32	0
7936	16	0
8064	0	0
8192	0	0
8448	32	16
8704	16	16
8960	224	208
9216	19552	19520
9472	51552	51520
9728	112	80
9984	0	0
10240	16	0
10496	0	0
10752	16	0
11008	32	0
11264	16	0
11520	16	0
11776	0	0
12032	0	0
12288	80	64
12544	144	128
12800	144	144
13056	192	192
13312	208	176
13568	208	176
13824	224	208
14080	192	192
14336	96	80
14592	11024	11024
14848	10432	10416
15104	39200	39152
15360	8224	8208
15616	192	160
15872	240	208
16128	112	112
16384	448	432
16896	368	352
17408	432	400
17920	592	560
18432	512	480
18944	464	448
19456	464	448
19968	272	256
20480	400	368
20992	336	320
21504	576	528
22016	598336	598320
22528	902848	902832
23040	191408	191360
23552	28688	28640
24064	544	528
24576	288	288
25088	480	416
25600	384	352
26112	496	448
26624	368	336
27136	368	368
27648	384	352
28160	400	336
28672	352	304
29184	480	416
29696	1136	976
30208	590000	589712
30720	1359696	1359200
31232	870128	869664
31744	1897600	1897120
32256	1667968	1667584
32768	9088	8256
33792	1344	304
34816	1312	256
35840	1232	256
36864	1200	224
37888	1024	208
38912	1392	240
39936	1376	272
40960	1060784	1059888
41984	1751680	1750688
43008	1408	304
44032	1216	272
45056	1376	272
46080	1296	368
47104	1312	208
48128	1024	288
49152	1040	256
50176	1552	448
51200	1456	400
52224	1184	304
53248	1040	192
54272	1344	320
55296	1424	272
56320	1376	320
57344	1216	176
58368	1344	32
59392	1232	32
60416	1408	48
61440	1440	96
62464	1440	112
63488	1456	64
64512	1456	96
65536	2688	208
67584	2816	176
69632	3296	944
71680	4896	528
73728	5056	320
75776	1776	224
77824	640	160
79872	816	192
81920	1136	288
83968	1152	464
86016	832	336
88064	992	304
90112	816	224
92160	2064	1424
94208	832	368
96256	896	240
98304	880	224
100352	944	304
102400	1136	496
104448	2352	400
106496	1984	240
108544	2128	240
110592	2080	208
112640	304	96
114688	256	112
116736	752	528
118784	240	160
120832	368	240
122880	544	368
124928	528	224
126976	736	272
129024	736	272
131072	992	688
135168	1216	400
139264	992	688
143360	768	352
147456	864	592
151552	608	288
155648	848	368
159744	896	592
163840	1168	752
167936	512	176
172032	1280	624
176128	1296	368
180224	576	208
184320	1328	1152
188416	688	384
192512	720	496
196608	944	304
200704	720	256
204800	656	320
208896	1248	816
212992	752	368
217088	672	256
221184	912	368
225280	640	288
229376	18800	18480
233472	44224	43856
237568	1104	864
241664	608	352
245760	832	576
249856	4064	3808
253952	140544	140288
258048	1120	880
262144	1552	992
270336	82176	81168
278528	4176	3264
286720	12592	11312
294912	89088	88368
303104	2128	1008
311296	3520	2832
319488	49392	48288
327680	451216	450416
335872	1552	976
344064	1552	416
352256	2128	752
360448	1584	784
368640	1200	560
376832	1824	800
385024	1600	560
393216	2368	1152
401408	10880	10352
409600	16288	15488
417792	20704	20192
425984	2345424	2344896
434176	1424	880
442368	1408	608
450560	2512	1392
458752	2048	1072
466944	2032	752
475136	1872	1024
483328	1760	960
491520	2128	1200
499712	1552	880
507904	1600	912
516096	2304	1152
524288	4176	2112
540672	4608	2384
557056	3616	2032
573440	4608	2192
589824	3920	2016
606208	2656	1104
622592	3376	1616
638976	4160	2160
655360	2720	1232
671744	11824	10112
688128	1680	384
704512	4320	3728
720896	2064	1312
737280	3632	3376
753664	2144	1840
770048	656	384
786432	672	288
802816	1200	640
819200	624	256
835584	480	240
851968	976	304
868352	592	416
884736	112	16
901120	176	16
917504	256	16
933888	16	16
950272	16	16
966656	0	0
983040	16	16
999424	16	16
1015808	16	16
1032192	16	16
1048576	64	64
1081344	32	32
1114112	48	48
1146880	32	32
1179648	32	32
1212416	16	16
1245184	32	32
1277952	0	0
1310720	80	80
1343488	16	16
1376256	8608	8608
1409024	2688	2688
1441792	32	32
1474560	144	144
1507328	64	64
1540096	64	64
1572864	128	128
1605632	112	112
1638400	64	64
1671168	112	112
1703936	160	160
1736704	48	48
1769472	16	16
1802240	32	32
1835008	64	64
1867776	48	48
1900544	96	96
1933312	80	80
1966080	80	80
1998848	112	112
2031616	48	48
2064384	64	64
2097152	128	128
2162688	240	240
2228224	48	48
2293760	176	176
2359296	224	224
2424832	416	416
2490368	576	576
2555904	304	304
2621440	352	352
2686976	336	336
2752512	448	448
2818048	480	480
2883584	432	432
2949120	528	528
3014656	416	416
3080192	896	896
3145728	640	640
3211264	304	304
3276800	480	480
3342336	240	240
3407872	368	368
3473408	448	448
3538944	288	288
3604480	320	320
3670016	336	336
3735552	528	528
3801088	240	240
3866624	544	544
3932160	400	400
3997696	416	416
4063232	480	480
4128768	272	272
4194304	1472	1456
4325376	944	944
4456448	752	752
4587520	2192	2192
4718592	1760	1760
4849664	215088	215088
4980736	25456	25456
5111808	4160	4160
5242880	5696	5696
5373952	5392	5392
5505024	5520	5520
5636096	2752	2752
5767168	1424	1424
5898240	1232	1232
6029312	1536	1536
6160384	1456	1456
6291456	1232	1232
6422528	1040	1040
6553600	1488	1488
6684672	1264	1264
6815744	2288	2288
6946816	7344	7344
7077888	1904	1904
7208960	4416	4416
7340032	4416	4416
7471104	3456	3456
7602176	1904	1904
7733248	1696	1696
7864320	1888	1888
7995392	1888	1888
8126464	1728	1728
8257536	1808	1808
8388608	4224	4224
8650752	3696	3696
8912896	4352	4352
9175040	3456	3440
9437184	3680	3680
9699328	3952	3952
9961472	4416	4416
10223616	3904	3904
10485760	4272	4272
10747904	3456	3456
11010048	2960	2960
11272192	3792	3776
11534336	3744	3744
11796480	3680	3680
12058624	3744	3744
12320768	3312	3312
12582912	3392	3392
12845056	3072	3072
13107200	3952	3952
13369344	4048	4048
13631488	3632	3632
13893632	3872	3872
14155776	4048	4048
14417920	4176	4176
14680064	4192	4192
14942208	4096	4096
15204352	5152	5152
15466496	4224	4224
15728640	4208	4208
15990784	3424	3424
16252928	3936	3936
16515072	3568	3568
16777216	8608	8608
17301504	7040	7040
17825792	7280	7280
18350080	6912	6912
18874368	6064	6064
19398656	5696	5696
19922944	6272	6272
20447232	6608	6608
20971520	6112	6112
21495808	5552	5552
22020096	5616	5616
22544384	6368	6368
23068672	5392	5392
23592960	5216	5216
24117248	5392	5392
24641536	5728	5728
25165824	5952	5952
25690112	5568	5568
26214400	6192	6192
26738688	5808	5808
27262976	2784	2784
27787264	3056	3056
28311552	2960	2960
28835840	3120	3120
29360128	3088	3088
29884416	1360	1360
30408704	1504	1504
30932992	1504	1504
31457280	1552	1552
31981568	1568	1568
32505856	1328	1328
33030144	1440	1440
33554432	3104	3104
34603008	3008	3008
35651584	3568	3568
36700160	4208	4208
37748736	989360	989360
38797312	4336	4336
39845888	5120	5120
40894464	5152	5152
41943040	5824	5824
42991616	5856	5856
44040192	5872	5872
45088768	6112	6112
46137344	6288	6288
47185920	6368	6368
48234496	6224	6224
49283072	6288	6288
50331648	6400	6400
51380224	6176	6176
52428800	5664	5664
53477376	7632	7632
54525952	9152	9152
55574528	9712	9712
56623104	9280	9280
57671680	5712	5712
58720256	5648	5648
59768832	6368	6368
60817408	6944	6944
61865984	7232	7232
62914560	6032	6032
63963136	8192	8192
65011712	6464	6464
66060288	6256	6256
67108864	13024	13024
69206016	13056	13056
71303168	13488	13488
73400320	13472	13472
75497472	25104	25104
77594624	30784	30784
79691776	56864	56864
81788928	44512	44512
83886080	32464	32464
85983232	32496	32496
88080384	32192	32192
90177536	33168	33152
92274688	32800	32800
94371840	10976	10976
96468992	10256	10256
98566144	8608	8608
100663296	7936	7936
102760448	7408	7408
104857600	7920	7920
106954752	7328	7328
109051904	7744	7744
111149056	6224	6224
113246208	5280	5280
115343360	3888	3888
117440512	2688	2688
119537664	1264	1264
121634816	80	80
123731968	224	224
125829120	16	16
127926272	864	848
130023424	3136	3136
132120576	3120	3120
134217728	5376	5376
138412032	4960	4960
142606336	5648	5648
146800640	96	96
150994944	192	160
155189248	9552	9552
159383552	1408	1408
163577856	6544	6544
167772160	6592	6592
171966464	6448	6448
176160768	6400	6400
180355072	6272	6272
184549376	6480	6480
188743680	7824	7824
192937984	10016	10016
197132288	10304	10304
201326592	9792	9792
205520896	8672	8672
209715200	13440	13440
213909504	9184	9184
218103808	13440	13440
222298112	32000	32000
226492416	8832	8832
230686720	8032	8032
234881024	8672	8672
239075328	17792	17792
243269632	6544	6544
247463936	960	960
251658240	896	896
255852544	1344	1344
260046848	176	176
264241152	896	896
268435456	1168	1168
276824064	2096	2096
285212672	1888	1888
293601280	1712	1712
301989888	24720	24720
310378496	3024	3024
318767104	4544	4544
327155712	2880	2880
335544320	3984	3984
343932928	9856	9856
352321536	10448	10448
360710144	10608	10608
369098752	5632	5632
377487360	2320	2320
385875968	2496	2496
394264576	2688	2688
402653184	2608	2608
411041792	2656	2656
419430400	2656	2656
427819008	4240	4240
436207616	10928	10928
444596224	640	640
452984832	160	160
461373440	48	48
469762048	48	48
478150656	50224	50224
486539264	104832	104832
494927872	120288	120288
503316480	28832	28832
511705088	22592	22592
520093696	20704	20704
528482304	20672	20672
536870912	43504	43504
553648128	42128	42128
570425344	238912	238912
587202560	14592	14592
603979776	15056	15056
620756992	14672	14672
637534208	3360	3360
654311424	30960	30960
671088640	0	0
687865856	0	0
704643072	0	0
721420288	0	0
738197504	0	0
754974720	0	0
771751936	0	0
788529152	0	0
805306368	0	0
822083584	0	0
838860800	0	0
855638016	0	0
872415232	0	0
889192448	0	0
905969664	0	0
922746880	0	0
939524096	0	0
956301312	0	0
973078528	0	0
989855744	0	0
1006632960	0	0
1023410176	0	0
1040187392	0	0
1056964608	0	0
1073741824	0	0
1107296256	0	0
1140850688	0	0
1174405120	0	0
1207959552	0	0
1241513984	0	0
1275068416	0	0
1308622848	0	0
1342177280	0	0
1375731712	0	0
1409286144	0	0
1442840576	0	0
1476395008	0	0
1509949440	0	0
1543503872	0	0
1577058304	0	0
1610612736	0	0
1644167168	0	0
1677721600	0	0
1711276032	0	0
1744830464	0	0
1778384896	0	0
1811939328	0	0
1845493760	0	0
1879048192	0	0
1912602624	0	0
1946157056	0	0
1979711488	0	0
2013265920	0	0
2046820352	0	0
2080374784	0	0
2113929216	0	0
2147483648	0	0
2214592512	0	0
2281701376	0	0
2348810240	0	0
2415919104	0	0
2483027968	0	0
2550136832	0	0
2617245696	0	0
2684354560	0	0
2751463424	0	0
2818572288	0	0
2885681152	0	0
2952790016	0	0
3019898880	0	0
3087007744	0	0
3154116608	0	0
3221225472	0	0
3288334336	0	0
3355443200	0	0
3422552064	0	0
3489660928	0	0
3556769792	0	0
3623878656	0	0
3690987520	0	0
3758096384	0	0
3825205248	0	0
3892314112	0	0
3959422976	0	0
4026531840	0	0
4093640704	0	0
4160749568	0	0
4227858432	0	0
~~~~~~~~~~Reuse Distance Profiler output end~~~~~~~~~~

Sampler size:736290

DRAM Statistics
 CHANNEL 0
 RQ ROW_BUFFER_HIT:      72962  ROW_BUFFER_MISS:   14651933
 DBUS AVG_CONGESTED_CYCLE:    3.98656
 WQ ROW_BUFFER_HIT:     403089  ROW_BUFFER_MISS:    6529187  FULL:      42653


CPU 0 Branch Prediction Accuracy: 98.3159% MPKI: 0.227499 Average ROB Occupancy at Mispredict: 341.972
Branch type MPKI
BRANCH_DIRECT_JUMP: 2.26667e-05
BRANCH_INDIRECT: 1.33333e-06
BRANCH_CONDITIONAL: 0.227343
BRANCH_DIRECT_CALL: 6.66667e-05
BRANCH_INDIRECT_CALL: 0
BRANCH_RETURN: 6.46667e-05

