
*** ChampSim Multicore Out-of-Order Simulator ***

Warmup Instructions: 50000000
Simulation Instructions: 1500000000
Number of CPUs: 1
Off-chip DRAM Size: 4 GiB Channels: 1 Width: 64-bit Data Rate: 3200 MT/s

VirtualMemory physical capacity: 8588881920 num_ppages: 2096895
VirtualMemory page size: 4096 log2_page_size: 12

CPU 0 runs /s/traces/champsim_traces/462.libquantum-1343B.champsimtrace.xz
CPU 0 Bimodal branch predictor
Basic BTB sets: 1024 ways: 8 indirect buffer size: 4096 RAS size: 64
Initializing LRU.
Initializing LRU.
Initializing LRU.
Initializing LRU.
Initializing rdLRU.
Initializing LRU.
Heartbeat CPU 0 instructions: 2000000 cycles: 540024 heartbeat IPC: 3.70354 cumulative IPC: 3.70354 (Simulation time: 0 hr 1 min 7 sec) 
Heartbeat CPU 0 instructions: 4000000 cycles: 1082656 heartbeat IPC: 3.68574 cumulative IPC: 3.69462 (Simulation time: 0 hr 1 min 54 sec) 
Heartbeat CPU 0 instructions: 6000002 cycles: 1625292 heartbeat IPC: 3.68572 cumulative IPC: 3.69165 (Simulation time: 0 hr 2 min 42 sec) 
Heartbeat CPU 0 instructions: 8000002 cycles: 2167933 heartbeat IPC: 3.68568 cumulative IPC: 3.69015 (Simulation time: 0 hr 3 min 24 sec) 
Heartbeat CPU 0 instructions: 10000004 cycles: 2710549 heartbeat IPC: 3.68585 cumulative IPC: 3.68929 (Simulation time: 0 hr 4 min 12 sec) 
Heartbeat CPU 0 instructions: 12000000 cycles: 3253163 heartbeat IPC: 3.68585 cumulative IPC: 3.68872 (Simulation time: 0 hr 4 min 57 sec) 
Heartbeat CPU 0 instructions: 14000001 cycles: 3795781 heartbeat IPC: 3.68584 cumulative IPC: 3.68831 (Simulation time: 0 hr 5 min 43 sec) 
Heartbeat CPU 0 instructions: 16000002 cycles: 4338393 heartbeat IPC: 3.68588 cumulative IPC: 3.688 (Simulation time: 0 hr 6 min 28 sec) 
Heartbeat CPU 0 instructions: 18000003 cycles: 4881008 heartbeat IPC: 3.68586 cumulative IPC: 3.68776 (Simulation time: 0 hr 7 min 15 sec) 
Heartbeat CPU 0 instructions: 20000000 cycles: 5423619 heartbeat IPC: 3.68588 cumulative IPC: 3.68757 (Simulation time: 0 hr 8 min 2 sec) 
Heartbeat CPU 0 instructions: 22000000 cycles: 5966242 heartbeat IPC: 3.6858 cumulative IPC: 3.68741 (Simulation time: 0 hr 8 min 52 sec) 
Heartbeat CPU 0 instructions: 24000001 cycles: 6508876 heartbeat IPC: 3.68573 cumulative IPC: 3.68727 (Simulation time: 0 hr 9 min 39 sec) 
Heartbeat CPU 0 instructions: 26000002 cycles: 7113217 heartbeat IPC: 3.30939 cumulative IPC: 3.65517 (Simulation time: 0 hr 10 min 31 sec) 
Heartbeat CPU 0 instructions: 28000000 cycles: 7751506 heartbeat IPC: 3.13337 cumulative IPC: 3.6122 (Simulation time: 0 hr 11 min 24 sec) 
Heartbeat CPU 0 instructions: 30000001 cycles: 8389786 heartbeat IPC: 3.13342 cumulative IPC: 3.57578 (Simulation time: 0 hr 12 min 14 sec) 
Heartbeat CPU 0 instructions: 32000004 cycles: 9028070 heartbeat IPC: 3.13341 cumulative IPC: 3.5445 (Simulation time: 0 hr 13 min 7 sec) 
Heartbeat CPU 0 instructions: 34000000 cycles: 9666351 heartbeat IPC: 3.13341 cumulative IPC: 3.51736 (Simulation time: 0 hr 13 min 59 sec) 
Heartbeat CPU 0 instructions: 36000002 cycles: 10304638 heartbeat IPC: 3.13339 cumulative IPC: 3.49357 (Simulation time: 0 hr 14 min 53 sec) 
Heartbeat CPU 0 instructions: 38000000 cycles: 10942921 heartbeat IPC: 3.1334 cumulative IPC: 3.47256 (Simulation time: 0 hr 15 min 45 sec) 
Heartbeat CPU 0 instructions: 40000000 cycles: 11581199 heartbeat IPC: 3.13343 cumulative IPC: 3.45387 (Simulation time: 0 hr 16 min 37 sec) 
Heartbeat CPU 0 instructions: 42000003 cycles: 12219427 heartbeat IPC: 3.13368 cumulative IPC: 3.43715 (Simulation time: 0 hr 17 min 29 sec) 
Heartbeat CPU 0 instructions: 44000000 cycles: 12857648 heartbeat IPC: 3.13371 cumulative IPC: 3.42209 (Simulation time: 0 hr 18 min 19 sec) 
Heartbeat CPU 0 instructions: 46000000 cycles: 13667251 heartbeat IPC: 2.47035 cumulative IPC: 3.36571 (Simulation time: 0 hr 19 min 32 sec) 
Heartbeat CPU 0 instructions: 48000002 cycles: 14524392 heartbeat IPC: 2.33334 cumulative IPC: 3.30479 (Simulation time: 0 hr 20 min 48 sec) 
Heartbeat CPU 0 instructions: 50000001 cycles: 15381536 heartbeat IPC: 2.33333 cumulative IPC: 3.25065 (Simulation time: 0 hr 22 min 4 sec) 

Warmup complete CPU 0 instructions: 50000001 cycles: 15381536 (Simulation time: 0 hr 22 min 4 sec) 

Heartbeat CPU 0 instructions: 52000001 cycles: 19245410 heartbeat IPC: 0.517615 cumulative IPC: 0.517615 (Simulation time: 0 hr 25 min 12 sec) 

Region of Interest Statistics
cpu0_DTLB TOTAL     ACCESS:     349849  HIT:     348733  MISS:       1116
cpu0_DTLB LOAD      ACCESS:     222771  HIT:     222329  MISS:        442
cpu0_DTLB RFO       ACCESS:     127078  HIT:     126404  MISS:        674
cpu0_DTLB PREFETCH  ACCESS:          0  HIT:          0  MISS:          0
cpu0_DTLB WRITEBACK ACCESS:          0  HIT:          0  MISS:          0
cpu0_ITLB TOTAL     ACCESS:        160  HIT:        160  MISS:          0
cpu0_ITLB LOAD      ACCESS:        160  HIT:        160  MISS:          0
cpu0_ITLB RFO       ACCESS:          0  HIT:          0  MISS:          0
cpu0_ITLB PREFETCH  ACCESS:          0  HIT:          0  MISS:          0
cpu0_ITLB WRITEBACK ACCESS:          0  HIT:          0  MISS:          0
cpu0_STLB TOTAL     ACCESS:       1116  HIT:          0  MISS:       1116
cpu0_STLB LOAD      ACCESS:        442  HIT:          0  MISS:        442
cpu0_STLB RFO       ACCESS:        674  HIT:          0  MISS:        674
cpu0_STLB PREFETCH  ACCESS:          0  HIT:          0  MISS:          0
cpu0_STLB WRITEBACK ACCESS:          0  HIT:          0  MISS:          0
cpu0_L1D TOTAL     ACCESS:     498058  HIT:     426628  MISS:      71430
cpu0_L1D LOAD      ACCESS:     211230  HIT:     139801  MISS:      71429
cpu0_L1D RFO       ACCESS:     285712  HIT:     285712  MISS:          0
cpu0_L1D PREFETCH  ACCESS:          0  HIT:          0  MISS:          0
cpu0_L1D WRITEBACK ACCESS:          0  HIT:          0  MISS:          0
cpu0_L2C TOTAL     ACCESS:     142858  HIT:      71428  MISS:      71430
cpu0_L2C LOAD      ACCESS:      71429  HIT:          0  MISS:      71429
cpu0_L2C RFO       ACCESS:          0  HIT:          0  MISS:          0
cpu0_L2C PREFETCH  ACCESS:          0  HIT:          0  MISS:          0
cpu0_L2C WRITEBACK ACCESS:      71428  HIT:      71428  MISS:          0
LLC TOTAL     ACCESS:     142857  HIT:          0  MISS:     142857
LLC LOAD      ACCESS:      71429  HIT:          0  MISS:      71429
LLC RFO       ACCESS:          0  HIT:          0  MISS:          0
LLC PREFETCH  ACCESS:          0  HIT:          0  MISS:          0
LLC WRITEBACK ACCESS:      71427  HIT:          0  MISS:      71427
Heartbeat CPU 0 instructions: 54000002 cycles: 23216031 heartbeat IPC: 0.5037 cumulative IPC: 0.510563 (Simulation time: 0 hr 28 min 22 sec) 

Region of Interest Statistics
cpu0_DTLB TOTAL     ACCESS:     699738  HIT:     697506  MISS:       2232
cpu0_DTLB LOAD      ACCESS:     445461  HIT:     444493  MISS:        968
cpu0_DTLB RFO       ACCESS:     254277  HIT:     253013  MISS:       1264
cpu0_DTLB PREFETCH  ACCESS:          0  HIT:          0  MISS:          0
cpu0_DTLB WRITEBACK ACCESS:          0  HIT:          0  MISS:          0
cpu0_ITLB TOTAL     ACCESS:        168  HIT:        168  MISS:          0
cpu0_ITLB LOAD      ACCESS:        168  HIT:        168  MISS:          0
cpu0_ITLB RFO       ACCESS:          0  HIT:          0  MISS:          0
cpu0_ITLB PREFETCH  ACCESS:          0  HIT:          0  MISS:          0
cpu0_ITLB WRITEBACK ACCESS:          0  HIT:          0  MISS:          0
cpu0_STLB TOTAL     ACCESS:       2232  HIT:          0  MISS:       2232
cpu0_STLB LOAD      ACCESS:        968  HIT:          0  MISS:        968
cpu0_STLB RFO       ACCESS:       1264  HIT:          0  MISS:       1264
cpu0_STLB PREFETCH  ACCESS:          0  HIT:          0  MISS:          0
cpu0_STLB WRITEBACK ACCESS:          0  HIT:          0  MISS:          0
cpu0_L1D TOTAL     ACCESS:     996317  HIT:     853459  MISS:     142858
cpu0_L1D LOAD      ACCESS:     422659  HIT:     279802  MISS:     142857
cpu0_L1D RFO       ACCESS:     571426  HIT:     571426  MISS:          0
cpu0_L1D PREFETCH  ACCESS:          0  HIT:          0  MISS:          0
cpu0_L1D WRITEBACK ACCESS:          0  HIT:          0  MISS:          0
cpu0_L2C TOTAL     ACCESS:     285714  HIT:     142856  MISS:     142858
cpu0_L2C LOAD      ACCESS:     142857  HIT:          0  MISS:     142857
cpu0_L2C RFO       ACCESS:          0  HIT:          0  MISS:          0
cpu0_L2C PREFETCH  ACCESS:          0  HIT:          0  MISS:          0
cpu0_L2C WRITEBACK ACCESS:     142856  HIT:     142856  MISS:          0
LLC TOTAL     ACCESS:     285713  HIT:          0  MISS:     285713
LLC LOAD      ACCESS:     142857  HIT:          0  MISS:     142857
LLC RFO       ACCESS:          0  HIT:          0  MISS:          0
LLC PREFETCH  ACCESS:          0  HIT:          0  MISS:          0
LLC WRITEBACK ACCESS:     142855  HIT:          0  MISS:     142855
Heartbeat CPU 0 instructions: 56000001 cycles: 27225839 heartbeat IPC: 0.498777 cumulative IPC: 0.506573 (Simulation time: 0 hr 31 min 27 sec) 

Region of Interest Statistics
cpu0_DTLB TOTAL     ACCESS:    1049629  HIT:    1046281  MISS:       3348
cpu0_DTLB LOAD      ACCESS:     668117  HIT:     666591  MISS:       1526
cpu0_DTLB RFO       ACCESS:     381512  HIT:     379690  MISS:       1822
cpu0_DTLB PREFETCH  ACCESS:          0  HIT:          0  MISS:          0
cpu0_DTLB WRITEBACK ACCESS:          0  HIT:          0  MISS:          0
cpu0_ITLB TOTAL     ACCESS:        168  HIT:        168  MISS:          0
cpu0_ITLB LOAD      ACCESS:        168  HIT:        168  MISS:          0
cpu0_ITLB RFO       ACCESS:          0  HIT:          0  MISS:          0
cpu0_ITLB PREFETCH  ACCESS:          0  HIT:          0  MISS:          0
cpu0_ITLB WRITEBACK ACCESS:          0  HIT:          0  MISS:          0
cpu0_STLB TOTAL     ACCESS:       3348  HIT:          0  MISS:       3348
cpu0_STLB LOAD      ACCESS:       1526  HIT:          0  MISS:       1526
cpu0_STLB RFO       ACCESS:       1822  HIT:          0  MISS:       1822
cpu0_STLB PREFETCH  ACCESS:          0  HIT:          0  MISS:          0
cpu0_STLB WRITEBACK ACCESS:          0  HIT:          0  MISS:          0
cpu0_L1D TOTAL     ACCESS:    1494648  HIT:    1280360  MISS:     214288
cpu0_L1D LOAD      ACCESS:     634159  HIT:     419872  MISS:     214287
cpu0_L1D RFO       ACCESS:     857141  HIT:     857141  MISS:          0
cpu0_L1D PREFETCH  ACCESS:          0  HIT:          0  MISS:          0
cpu0_L1D WRITEBACK ACCESS:          0  HIT:          0  MISS:          0
cpu0_L2C TOTAL     ACCESS:     428575  HIT:     214286  MISS:     214289
cpu0_L2C LOAD      ACCESS:     214288  HIT:          0  MISS:     214288
cpu0_L2C RFO       ACCESS:          0  HIT:          0  MISS:          0
cpu0_L2C PREFETCH  ACCESS:          0  HIT:          0  MISS:          0
cpu0_L2C WRITEBACK ACCESS:     214286  HIT:     214286  MISS:          0
LLC TOTAL     ACCESS:     428575  HIT:          0  MISS:     428575
LLC LOAD      ACCESS:     214288  HIT:          0  MISS:     214288
LLC RFO       ACCESS:          0  HIT:          0  MISS:          0
LLC PREFETCH  ACCESS:          0  HIT:          0  MISS:          0
LLC WRITEBACK ACCESS:     214286  HIT:          0  MISS:     214286
Heartbeat CPU 0 instructions: 58000003 cycles: 31235097 heartbeat IPC: 0.498846 cumulative IPC: 0.504619 (Simulation time: 0 hr 34 min 28 sec) 

Region of Interest Statistics
cpu0_DTLB TOTAL     ACCESS:    1399510  HIT:    1395046  MISS:       4464
cpu0_DTLB LOAD      ACCESS:     890771  HIT:     888687  MISS:       2084
cpu0_DTLB RFO       ACCESS:     508739  HIT:     506359  MISS:       2380
cpu0_DTLB PREFETCH  ACCESS:          0  HIT:          0  MISS:          0
cpu0_DTLB WRITEBACK ACCESS:          0  HIT:          0  MISS:          0
cpu0_ITLB TOTAL     ACCESS:        168  HIT:        168  MISS:          0
cpu0_ITLB LOAD      ACCESS:        168  HIT:        168  MISS:          0
cpu0_ITLB RFO       ACCESS:          0  HIT:          0  MISS:          0
cpu0_ITLB PREFETCH  ACCESS:          0  HIT:          0  MISS:          0
cpu0_ITLB WRITEBACK ACCESS:          0  HIT:          0  MISS:          0
cpu0_STLB TOTAL     ACCESS:       4464  HIT:          0  MISS:       4464
cpu0_STLB LOAD      ACCESS:       2084  HIT:          0  MISS:       2084
cpu0_STLB RFO       ACCESS:       2380  HIT:          0  MISS:       2380
cpu0_STLB PREFETCH  ACCESS:          0  HIT:          0  MISS:          0
cpu0_STLB WRITEBACK ACCESS:          0  HIT:          0  MISS:          0
cpu0_L1D TOTAL     ACCESS:    1992967  HIT:    1707252  MISS:     285715
cpu0_L1D LOAD      ACCESS:     845648  HIT:     559934  MISS:     285714
cpu0_L1D RFO       ACCESS:    1142855  HIT:    1142855  MISS:          0
cpu0_L1D PREFETCH  ACCESS:          0  HIT:          0  MISS:          0
cpu0_L1D WRITEBACK ACCESS:          0  HIT:          0  MISS:          0
cpu0_L2C TOTAL     ACCESS:     571428  HIT:     285713  MISS:     285715
cpu0_L2C LOAD      ACCESS:     285714  HIT:          0  MISS:     285714
cpu0_L2C RFO       ACCESS:          0  HIT:          0  MISS:          0
cpu0_L2C PREFETCH  ACCESS:          0  HIT:          0  MISS:          0
cpu0_L2C WRITEBACK ACCESS:     285713  HIT:     285713  MISS:          0
LLC TOTAL     ACCESS:     571427  HIT:          0  MISS:     571427
LLC LOAD      ACCESS:     285714  HIT:          0  MISS:     285714
LLC RFO       ACCESS:          0  HIT:          0  MISS:          0
LLC PREFETCH  ACCESS:          0  HIT:          0  MISS:          0
LLC WRITEBACK ACCESS:     285712  HIT:          0  MISS:     285712
Heartbeat CPU 0 instructions: 60000004 cycles: 34962908 heartbeat IPC: 0.536508 cumulative IPC: 0.51069 (Simulation time: 0 hr 36 min 51 sec) 

Region of Interest Statistics
cpu0_DTLB TOTAL     ACCESS:    1731934  HIT:    1726536  MISS:       5398
cpu0_DTLB LOAD      ACCESS:    1148123  HIT:    1145438  MISS:       2685
cpu0_DTLB RFO       ACCESS:     583811  HIT:     581098  MISS:       2713
cpu0_DTLB PREFETCH  ACCESS:          0  HIT:          0  MISS:          0
cpu0_DTLB WRITEBACK ACCESS:          0  HIT:          0  MISS:          0
cpu0_ITLB TOTAL     ACCESS:      75522  HIT:      75522  MISS:          0
cpu0_ITLB LOAD      ACCESS:      75522  HIT:      75522  MISS:          0
cpu0_ITLB RFO       ACCESS:          0  HIT:          0  MISS:          0
cpu0_ITLB PREFETCH  ACCESS:          0  HIT:          0  MISS:          0
cpu0_ITLB WRITEBACK ACCESS:          0  HIT:          0  MISS:          0
cpu0_L1I TOTAL     ACCESS:          9  HIT:          3  MISS:          6
cpu0_L1I LOAD      ACCESS:          9  HIT:          3  MISS:          6
cpu0_L1I RFO       ACCESS:          0  HIT:          0  MISS:          0
cpu0_L1I PREFETCH  ACCESS:          0  HIT:          0  MISS:          0
cpu0_L1I WRITEBACK ACCESS:          0  HIT:          0  MISS:          0
cpu0_STLB TOTAL     ACCESS:       5398  HIT:          0  MISS:       5398
cpu0_STLB LOAD      ACCESS:       2685  HIT:          0  MISS:       2685
cpu0_STLB RFO       ACCESS:       2713  HIT:          0  MISS:       2713
cpu0_STLB PREFETCH  ACCESS:          0  HIT:          0  MISS:          0
cpu0_STLB WRITEBACK ACCESS:          0  HIT:          0  MISS:          0
cpu0_L1D TOTAL     ACCESS:    2349038  HIT:    2003646  MISS:     345392
cpu0_L1D LOAD      ACCESS:    1037671  HIT:     692287  MISS:     345384
cpu0_L1D RFO       ACCESS:    1305969  HIT:    1305965  MISS:          4
cpu0_L1D PREFETCH  ACCESS:          0  HIT:          0  MISS:          0
cpu0_L1D WRITEBACK ACCESS:          0  HIT:          0  MISS:          0
cpu0_L2C TOTAL     ACCESS:     675504  HIT:     330106  MISS:     345398
cpu0_L2C LOAD      ACCESS:     345390  HIT:          0  MISS:     345390
cpu0_L2C RFO       ACCESS:          4  HIT:          0  MISS:          4
cpu0_L2C PREFETCH  ACCESS:          0  HIT:          0  MISS:          0
cpu0_L2C WRITEBACK ACCESS:     330106  HIT:     330106  MISS:          0
LLC TOTAL     ACCESS:     681331  HIT:       3833  MISS:     677498
LLC LOAD      ACCESS:     345390  HIT:       3828  MISS:     341562
LLC RFO       ACCESS:          4  HIT:          0  MISS:          4
LLC PREFETCH  ACCESS:          0  HIT:          0  MISS:          0
LLC WRITEBACK ACCESS:     335933  HIT:          5  MISS:     335928
Heartbeat CPU 0 instructions: 62000000 cycles: 38017647 heartbeat IPC: 0.654719 cumulative IPC: 0.530126 (Simulation time: 0 hr 38 min 33 sec) 

Region of Interest Statistics
cpu0_DTLB TOTAL     ACCESS:    2045183  HIT:    2039082  MISS:       6101
cpu0_DTLB LOAD      ACCESS:    1451064  HIT:    1447676  MISS:       3388
cpu0_DTLB RFO       ACCESS:     594119  HIT:     591406  MISS:       2713
cpu0_DTLB PREFETCH  ACCESS:          0  HIT:          0  MISS:          0
cpu0_DTLB WRITEBACK ACCESS:          0  HIT:          0  MISS:          0
cpu0_ITLB TOTAL     ACCESS:     240202  HIT:     240202  MISS:          0
cpu0_ITLB LOAD      ACCESS:     240202  HIT:     240202  MISS:          0
cpu0_ITLB RFO       ACCESS:          0  HIT:          0  MISS:          0
cpu0_ITLB PREFETCH  ACCESS:          0  HIT:          0  MISS:          0
cpu0_ITLB WRITEBACK ACCESS:          0  HIT:          0  MISS:          0
cpu0_L1I TOTAL     ACCESS:          9  HIT:          3  MISS:          6
cpu0_L1I LOAD      ACCESS:          9  HIT:          3  MISS:          6
cpu0_L1I RFO       ACCESS:          0  HIT:          0  MISS:          0
cpu0_L1I PREFETCH  ACCESS:          0  HIT:          0  MISS:          0
cpu0_L1I WRITEBACK ACCESS:          0  HIT:          0  MISS:          0
cpu0_STLB TOTAL     ACCESS:       6101  HIT:          0  MISS:       6101
cpu0_STLB LOAD      ACCESS:       3388  HIT:          0  MISS:       3388
cpu0_STLB RFO       ACCESS:       2713  HIT:          0  MISS:       2713
cpu0_STLB PREFETCH  ACCESS:          0  HIT:          0  MISS:          0
cpu0_STLB WRITEBACK ACCESS:          0  HIT:          0  MISS:          0
cpu0_L1D TOTAL     ACCESS:    2527417  HIT:    2137038  MISS:     390379
cpu0_L1D LOAD      ACCESS:    1205039  HIT:     814668  MISS:     390371
cpu0_L1D RFO       ACCESS:    1316277  HIT:    1316273  MISS:          4
cpu0_L1D PREFETCH  ACCESS:          0  HIT:          0  MISS:          0
cpu0_L1D WRITEBACK ACCESS:          0  HIT:          0  MISS:          0
cpu0_L2C TOTAL     ACCESS:     730193  HIT:     339808  MISS:     390385
cpu0_L2C LOAD      ACCESS:     390377  HIT:          0  MISS:     390377
cpu0_L2C RFO       ACCESS:          4  HIT:          0  MISS:          4
cpu0_L2C PREFETCH  ACCESS:          0  HIT:          0  MISS:          0
cpu0_L2C WRITEBACK ACCESS:     339808  HIT:     339808  MISS:          0
LLC TOTAL     ACCESS:     735954  HIT:      17097  MISS:     718857
LLC LOAD      ACCESS:     390377  HIT:      14060  MISS:     376317
LLC RFO       ACCESS:          4  HIT:          0  MISS:          4
LLC PREFETCH  ACCESS:          0  HIT:          0  MISS:          0
LLC WRITEBACK ACCESS:     345569  HIT:       3037  MISS:     342532
Heartbeat CPU 0 instructions: 64000000 cycles: 41765880 heartbeat IPC: 0.533585 cumulative IPC: 0.530618 (Simulation time: 0 hr 40 min 12 sec) 

Region of Interest Statistics
cpu0_DTLB TOTAL     ACCESS:    2363680  HIT:    2356876  MISS:       6804
cpu0_DTLB LOAD      ACCESS:    1759253  HIT:    1755162  MISS:       4091
cpu0_DTLB RFO       ACCESS:     604427  HIT:     601714  MISS:       2713
cpu0_DTLB PREFETCH  ACCESS:          0  HIT:          0  MISS:          0
cpu0_DTLB WRITEBACK ACCESS:          0  HIT:          0  MISS:          0
cpu0_ITLB TOTAL     ACCESS:     392954  HIT:     392954  MISS:          0
cpu0_ITLB LOAD      ACCESS:     392954  HIT:     392954  MISS:          0
cpu0_ITLB RFO       ACCESS:          0  HIT:          0  MISS:          0
cpu0_ITLB PREFETCH  ACCESS:          0  HIT:          0  MISS:          0
cpu0_ITLB WRITEBACK ACCESS:          0  HIT:          0  MISS:          0
cpu0_L1I TOTAL     ACCESS:          9  HIT:          3  MISS:          6
cpu0_L1I LOAD      ACCESS:          9  HIT:          3  MISS:          6
cpu0_L1I RFO       ACCESS:          0  HIT:          0  MISS:          0
cpu0_L1I PREFETCH  ACCESS:          0  HIT:          0  MISS:          0
cpu0_L1I WRITEBACK ACCESS:          0  HIT:          0  MISS:          0
cpu0_STLB TOTAL     ACCESS:       6804  HIT:          0  MISS:       6804
cpu0_STLB LOAD      ACCESS:       4091  HIT:          0  MISS:       4091
cpu0_STLB RFO       ACCESS:       2713  HIT:          0  MISS:       2713
cpu0_STLB PREFETCH  ACCESS:          0  HIT:          0  MISS:          0
cpu0_STLB WRITEBACK ACCESS:          0  HIT:          0  MISS:          0
cpu0_L1D TOTAL     ACCESS:    2707834  HIT:    2272470  MISS:     435364
cpu0_L1D LOAD      ACCESS:    1374445  HIT:     939089  MISS:     435356
cpu0_L1D RFO       ACCESS:    1326585  HIT:    1326581  MISS:          4
cpu0_L1D PREFETCH  ACCESS:          0  HIT:          0  MISS:          0
cpu0_L1D WRITEBACK ACCESS:          0  HIT:          0  MISS:          0
cpu0_L2C TOTAL     ACCESS:     784880  HIT:     349510  MISS:     435370
cpu0_L2C LOAD      ACCESS:     435362  HIT:          0  MISS:     435362
cpu0_L2C RFO       ACCESS:          4  HIT:          0  MISS:          4
cpu0_L2C PREFETCH  ACCESS:          0  HIT:          0  MISS:          0
cpu0_L2C WRITEBACK ACCESS:     349510  HIT:     349510  MISS:          0
LLC TOTAL     ACCESS:     790844  HIT:      17161  MISS:     773683
LLC LOAD      ACCESS:     435362  HIT:      14124  MISS:     421238
LLC RFO       ACCESS:          4  HIT:          0  MISS:          4
LLC PREFETCH  ACCESS:          0  HIT:          0  MISS:          0
LLC WRITEBACK ACCESS:     355474  HIT:       3037  MISS:     352437
Heartbeat CPU 0 instructions: 66000000 cycles: 45286388 heartbeat IPC: 0.5681 cumulative IPC: 0.53503 (Simulation time: 0 hr 41 min 30 sec) 

Region of Interest Statistics
cpu0_DTLB TOTAL     ACCESS:    2682832  HIT:    2675325  MISS:       7507
cpu0_DTLB LOAD      ACCESS:    2068097  HIT:    2063303  MISS:       4794
cpu0_DTLB RFO       ACCESS:     614735  HIT:     612022  MISS:       2713
cpu0_DTLB PREFETCH  ACCESS:          0  HIT:          0  MISS:          0
cpu0_DTLB WRITEBACK ACCESS:          0  HIT:          0  MISS:          0
cpu0_ITLB TOTAL     ACCESS:     543735  HIT:     543735  MISS:          0
cpu0_ITLB LOAD      ACCESS:     543735  HIT:     543735  MISS:          0
cpu0_ITLB RFO       ACCESS:          0  HIT:          0  MISS:          0
cpu0_ITLB PREFETCH  ACCESS:          0  HIT:          0  MISS:          0
cpu0_ITLB WRITEBACK ACCESS:          0  HIT:          0  MISS:          0
cpu0_L1I TOTAL     ACCESS:          9  HIT:          3  MISS:          6
cpu0_L1I LOAD      ACCESS:          9  HIT:          3  MISS:          6
cpu0_L1I RFO       ACCESS:          0  HIT:          0  MISS:          0
cpu0_L1I PREFETCH  ACCESS:          0  HIT:          0  MISS:          0
cpu0_L1I WRITEBACK ACCESS:          0  HIT:          0  MISS:          0
cpu0_STLB TOTAL     ACCESS:       7507  HIT:          0  MISS:       7507
cpu0_STLB LOAD      ACCESS:       4794  HIT:          0  MISS:       4794
cpu0_STLB RFO       ACCESS:       2713  HIT:          0  MISS:       2713
cpu0_STLB PREFETCH  ACCESS:          0  HIT:          0  MISS:          0
cpu0_STLB WRITEBACK ACCESS:          0  HIT:          0  MISS:          0
cpu0_L1D TOTAL     ACCESS:    2887963  HIT:    2407612  MISS:     480351
cpu0_L1D LOAD      ACCESS:    1543563  HIT:    1063220  MISS:     480343
cpu0_L1D RFO       ACCESS:    1336893  HIT:    1336889  MISS:          4
cpu0_L1D PREFETCH  ACCESS:          0  HIT:          0  MISS:          0
cpu0_L1D WRITEBACK ACCESS:          0  HIT:          0  MISS:          0
cpu0_L2C TOTAL     ACCESS:     839569  HIT:     359212  MISS:     480357
cpu0_L2C LOAD      ACCESS:     480349  HIT:          0  MISS:     480349
cpu0_L2C RFO       ACCESS:          4  HIT:          0  MISS:          4
cpu0_L2C PREFETCH  ACCESS:          0  HIT:          0  MISS:          0
cpu0_L2C WRITEBACK ACCESS:     359212  HIT:     359212  MISS:          0
LLC TOTAL     ACCESS:     845432  HIT:      18675  MISS:     826757
LLC LOAD      ACCESS:     480349  HIT:      15287  MISS:     465062
LLC RFO       ACCESS:          4  HIT:          0  MISS:          4
LLC PREFETCH  ACCESS:          0  HIT:          0  MISS:          0
LLC WRITEBACK ACCESS:     365075  HIT:       3388  MISS:     361687
Heartbeat CPU 0 instructions: 68000004 cycles: 49019661 heartbeat IPC: 0.535724 cumulative IPC: 0.535107 (Simulation time: 0 hr 42 min 51 sec) 

Region of Interest Statistics
cpu0_DTLB TOTAL     ACCESS:    3001752  HIT:    2993542  MISS:       8210
cpu0_DTLB LOAD      ACCESS:    2376709  HIT:    2371212  MISS:       5497
cpu0_DTLB RFO       ACCESS:     625043  HIT:     622330  MISS:       2713
cpu0_DTLB PREFETCH  ACCESS:          0  HIT:          0  MISS:          0
cpu0_DTLB WRITEBACK ACCESS:          0  HIT:          0  MISS:          0
cpu0_ITLB TOTAL     ACCESS:     695059  HIT:     695059  MISS:          0
cpu0_ITLB LOAD      ACCESS:     695059  HIT:     695059  MISS:          0
cpu0_ITLB RFO       ACCESS:          0  HIT:          0  MISS:          0
cpu0_ITLB PREFETCH  ACCESS:          0  HIT:          0  MISS:          0
cpu0_ITLB WRITEBACK ACCESS:          0  HIT:          0  MISS:          0
cpu0_L1I TOTAL     ACCESS:          9  HIT:          3  MISS:          6
cpu0_L1I LOAD      ACCESS:          9  HIT:          3  MISS:          6
cpu0_L1I RFO       ACCESS:          0  HIT:          0  MISS:          0
cpu0_L1I PREFETCH  ACCESS:          0  HIT:          0  MISS:          0
cpu0_L1I WRITEBACK ACCESS:          0  HIT:          0  MISS:          0
cpu0_STLB TOTAL     ACCESS:       8210  HIT:          0  MISS:       8210
cpu0_STLB LOAD      ACCESS:       5497  HIT:          0  MISS:       5497
cpu0_STLB RFO       ACCESS:       2713  HIT:          0  MISS:       2713
cpu0_STLB PREFETCH  ACCESS:          0  HIT:          0  MISS:          0
cpu0_STLB WRITEBACK ACCESS:          0  HIT:          0  MISS:          0
cpu0_L1D TOTAL     ACCESS:    3068283  HIT:    2542947  MISS:     525336
cpu0_L1D LOAD      ACCESS:    1712872  HIT:    1187544  MISS:     525328
cpu0_L1D RFO       ACCESS:    1347201  HIT:    1347197  MISS:          4
cpu0_L1D PREFETCH  ACCESS:          0  HIT:          0  MISS:          0
cpu0_L1D WRITEBACK ACCESS:          0  HIT:          0  MISS:          0
cpu0_L2C TOTAL     ACCESS:     894256  HIT:     368914  MISS:     525342
cpu0_L2C LOAD      ACCESS:     525334  HIT:          0  MISS:     525334
cpu0_L2C RFO       ACCESS:          4  HIT:          0  MISS:          4
cpu0_L2C PREFETCH  ACCESS:          0  HIT:          0  MISS:          0
cpu0_L2C WRITEBACK ACCESS:     368914  HIT:     368914  MISS:          0
LLC TOTAL     ACCESS:     900110  HIT:      18787  MISS:     881323
LLC LOAD      ACCESS:     525334  HIT:      15347  MISS:     509987
LLC RFO       ACCESS:          4  HIT:          0  MISS:          4
LLC PREFETCH  ACCESS:          0  HIT:          0  MISS:          0
LLC WRITEBACK ACCESS:     374768  HIT:       3440  MISS:     371328
Heartbeat CPU 0 instructions: 70000001 cycles: 52790057 heartbeat IPC: 0.530447 cumulative IPC: 0.534638 (Simulation time: 0 hr 44 min 14 sec) 

Region of Interest Statistics
cpu0_DTLB TOTAL     ACCESS:    3320328  HIT:    3311415  MISS:       8913
cpu0_DTLB LOAD      ACCESS:    2684977  HIT:    2678777  MISS:       6200
cpu0_DTLB RFO       ACCESS:     635351  HIT:     632638  MISS:       2713
cpu0_DTLB PREFETCH  ACCESS:          0  HIT:          0  MISS:          0
cpu0_DTLB WRITEBACK ACCESS:          0  HIT:          0  MISS:          0
cpu0_ITLB TOTAL     ACCESS:     846466  HIT:     846466  MISS:          0
cpu0_ITLB LOAD      ACCESS:     846466  HIT:     846466  MISS:          0
cpu0_ITLB RFO       ACCESS:          0  HIT:          0  MISS:          0
cpu0_ITLB PREFETCH  ACCESS:          0  HIT:          0  MISS:          0
cpu0_ITLB WRITEBACK ACCESS:          0  HIT:          0  MISS:          0
cpu0_L1I TOTAL     ACCESS:          9  HIT:          3  MISS:          6
cpu0_L1I LOAD      ACCESS:          9  HIT:          3  MISS:          6
cpu0_L1I RFO       ACCESS:          0  HIT:          0  MISS:          0
cpu0_L1I PREFETCH  ACCESS:          0  HIT:          0  MISS:          0
cpu0_L1I WRITEBACK ACCESS:          0  HIT:          0  MISS:          0
cpu0_STLB TOTAL     ACCESS:       8913  HIT:          0  MISS:       8913
cpu0_STLB LOAD      ACCESS:       6200  HIT:          0  MISS:       6200
cpu0_STLB RFO       ACCESS:       2713  HIT:          0  MISS:       2713
cpu0_STLB PREFETCH  ACCESS:          0  HIT:          0  MISS:          0
cpu0_STLB WRITEBACK ACCESS:          0  HIT:          0  MISS:          0
cpu0_L1D TOTAL     ACCESS:    3248551  HIT:    2678227  MISS:     570324
cpu0_L1D LOAD      ACCESS:    1882129  HIT:    1311814  MISS:     570315
cpu0_L1D RFO       ACCESS:    1357509  HIT:    1357505  MISS:          4
cpu0_L1D PREFETCH  ACCESS:          0  HIT:          0  MISS:          0
cpu0_L1D WRITEBACK ACCESS:          0  HIT:          0  MISS:          0
cpu0_L2C TOTAL     ACCESS:     948946  HIT:     378616  MISS:     570330
cpu0_L2C LOAD      ACCESS:     570321  HIT:          0  MISS:     570321
cpu0_L2C RFO       ACCESS:          4  HIT:          0  MISS:          4
cpu0_L2C PREFETCH  ACCESS:          0  HIT:          0  MISS:          0
cpu0_L2C WRITEBACK ACCESS:     378616  HIT:     378616  MISS:          0
LLC TOTAL     ACCESS:     955006  HIT:      18787  MISS:     936219
LLC LOAD      ACCESS:     570321  HIT:      15347  MISS:     554974
LLC RFO       ACCESS:          4  HIT:          0  MISS:          4
LLC PREFETCH  ACCESS:          0  HIT:          0  MISS:          0
LLC WRITEBACK ACCESS:     384676  HIT:       3440  MISS:     381236
Heartbeat CPU 0 instructions: 72000000 cycles: 56523983 heartbeat IPC: 0.535629 cumulative IPC: 0.534728 (Simulation time: 0 hr 45 min 38 sec) 

Region of Interest Statistics
cpu0_DTLB TOTAL     ACCESS:    3638910  HIT:    3629294  MISS:       9616
cpu0_DTLB LOAD      ACCESS:    2993251  HIT:    2986348  MISS:       6903
cpu0_DTLB RFO       ACCESS:     645659  HIT:     642946  MISS:       2713
cpu0_DTLB PREFETCH  ACCESS:          0  HIT:          0  MISS:          0
cpu0_DTLB WRITEBACK ACCESS:          0  HIT:          0  MISS:          0
cpu0_ITLB TOTAL     ACCESS:     998064  HIT:     998064  MISS:          0
cpu0_ITLB LOAD      ACCESS:     998064  HIT:     998064  MISS:          0
cpu0_ITLB RFO       ACCESS:          0  HIT:          0  MISS:          0
cpu0_ITLB PREFETCH  ACCESS:          0  HIT:          0  MISS:          0
cpu0_ITLB WRITEBACK ACCESS:          0  HIT:          0  MISS:          0
cpu0_L1I TOTAL     ACCESS:          9  HIT:          3  MISS:          6
cpu0_L1I LOAD      ACCESS:          9  HIT:          3  MISS:          6
cpu0_L1I RFO       ACCESS:          0  HIT:          0  MISS:          0
cpu0_L1I PREFETCH  ACCESS:          0  HIT:          0  MISS:          0
cpu0_L1I WRITEBACK ACCESS:          0  HIT:          0  MISS:          0
cpu0_STLB TOTAL     ACCESS:       9616  HIT:          0  MISS:       9616
cpu0_STLB LOAD      ACCESS:       6903  HIT:          0  MISS:       6903
cpu0_STLB RFO       ACCESS:       2713  HIT:          0  MISS:       2713
cpu0_STLB PREFETCH  ACCESS:          0  HIT:          0  MISS:          0
cpu0_STLB WRITEBACK ACCESS:          0  HIT:          0  MISS:          0
cpu0_L1D TOTAL     ACCESS:    3428923  HIT:    2813614  MISS:     615309
cpu0_L1D LOAD      ACCESS:    2051490  HIT:    1436190  MISS:     615300
cpu0_L1D RFO       ACCESS:    1367817  HIT:    1367813  MISS:          4
cpu0_L1D PREFETCH  ACCESS:          0  HIT:          0  MISS:          0
cpu0_L1D WRITEBACK ACCESS:          0  HIT:          0  MISS:          0
cpu0_L2C TOTAL     ACCESS:    1003633  HIT:     388318  MISS:     615315
cpu0_L2C LOAD      ACCESS:     615306  HIT:          0  MISS:     615306
cpu0_L2C RFO       ACCESS:          4  HIT:          0  MISS:          4
cpu0_L2C PREFETCH  ACCESS:          0  HIT:          0  MISS:          0
cpu0_L2C WRITEBACK ACCESS:     388318  HIT:     388318  MISS:          0
LLC TOTAL     ACCESS:    1009346  HIT:      18787  MISS:     990559
LLC LOAD      ACCESS:     615306  HIT:      15347  MISS:     599959
LLC RFO       ACCESS:          4  HIT:          0  MISS:          4
LLC PREFETCH  ACCESS:          0  HIT:          0  MISS:          0
LLC WRITEBACK ACCESS:     394031  HIT:       3440  MISS:     390591
Heartbeat CPU 0 instructions: 74000004 cycles: 60269804 heartbeat IPC: 0.533929 cumulative IPC: 0.534661 (Simulation time: 0 hr 47 min 3 sec) 

Region of Interest Statistics
cpu0_DTLB TOTAL     ACCESS:    3957862  HIT:    3947543  MISS:      10319
cpu0_DTLB LOAD      ACCESS:    3301895  HIT:    3294289  MISS:       7606
cpu0_DTLB RFO       ACCESS:     655967  HIT:     653254  MISS:       2713
cpu0_DTLB PREFETCH  ACCESS:          0  HIT:          0  MISS:          0
cpu0_DTLB WRITEBACK ACCESS:          0  HIT:          0  MISS:          0
cpu0_ITLB TOTAL     ACCESS:    1149378  HIT:    1149378  MISS:          0
cpu0_ITLB LOAD      ACCESS:    1149378  HIT:    1149378  MISS:          0
cpu0_ITLB RFO       ACCESS:          0  HIT:          0  MISS:          0
cpu0_ITLB PREFETCH  ACCESS:          0  HIT:          0  MISS:          0
cpu0_ITLB WRITEBACK ACCESS:          0  HIT:          0  MISS:          0
cpu0_L1I TOTAL     ACCESS:          9  HIT:          3  MISS:          6
cpu0_L1I LOAD      ACCESS:          9  HIT:          3  MISS:          6
cpu0_L1I RFO       ACCESS:          0  HIT:          0  MISS:          0
cpu0_L1I PREFETCH  ACCESS:          0  HIT:          0  MISS:          0
cpu0_L1I WRITEBACK ACCESS:          0  HIT:          0  MISS:          0
cpu0_STLB TOTAL     ACCESS:      10319  HIT:          0  MISS:      10319
cpu0_STLB LOAD      ACCESS:       7606  HIT:          0  MISS:       7606
cpu0_STLB RFO       ACCESS:       2713  HIT:          0  MISS:       2713
cpu0_STLB PREFETCH  ACCESS:          0  HIT:          0  MISS:          0
cpu0_STLB WRITEBACK ACCESS:          0  HIT:          0  MISS:          0
cpu0_L1D TOTAL     ACCESS:    3609265  HIT:    2948970  MISS:     660295
cpu0_L1D LOAD      ACCESS:    2220821  HIT:    1560535  MISS:     660286
cpu0_L1D RFO       ACCESS:    1378125  HIT:    1378121  MISS:          4
cpu0_L1D PREFETCH  ACCESS:          0  HIT:          0  MISS:          0
cpu0_L1D WRITEBACK ACCESS:          0  HIT:          0  MISS:          0
cpu0_L2C TOTAL     ACCESS:    1058322  HIT:     398020  MISS:     660302
cpu0_L2C LOAD      ACCESS:     660293  HIT:          0  MISS:     660293
cpu0_L2C RFO       ACCESS:          4  HIT:          0  MISS:          4
cpu0_L2C PREFETCH  ACCESS:          0  HIT:          0  MISS:          0
cpu0_L2C WRITEBACK ACCESS:     398020  HIT:     398020  MISS:          0
LLC TOTAL     ACCESS:    1064037  HIT:      18787  MISS:    1045250
LLC LOAD      ACCESS:     660293  HIT:      15347  MISS:     644946
LLC RFO       ACCESS:          4  HIT:          0  MISS:          4
LLC PREFETCH  ACCESS:          0  HIT:          0  MISS:          0
LLC WRITEBACK ACCESS:     403735  HIT:       3440  MISS:     400295
Heartbeat CPU 0 instructions: 76000004 cycles: 64036876 heartbeat IPC: 0.530916 cumulative IPC: 0.534371 (Simulation time: 0 hr 48 min 28 sec) 

Region of Interest Statistics
cpu0_DTLB TOTAL     ACCESS:    4276478  HIT:    4265456  MISS:      11022
cpu0_DTLB LOAD      ACCESS:    3610203  HIT:    3601894  MISS:       8309
cpu0_DTLB RFO       ACCESS:     666275  HIT:     663562  MISS:       2713
cpu0_DTLB PREFETCH  ACCESS:          0  HIT:          0  MISS:          0
cpu0_DTLB WRITEBACK ACCESS:          0  HIT:          0  MISS:          0
cpu0_ITLB TOTAL     ACCESS:    1301528  HIT:    1301528  MISS:          0
cpu0_ITLB LOAD      ACCESS:    1301528  HIT:    1301528  MISS:          0
cpu0_ITLB RFO       ACCESS:          0  HIT:          0  MISS:          0
cpu0_ITLB PREFETCH  ACCESS:          0  HIT:          0  MISS:          0
cpu0_ITLB WRITEBACK ACCESS:          0  HIT:          0  MISS:          0
cpu0_L1I TOTAL     ACCESS:          9  HIT:          3  MISS:          6
cpu0_L1I LOAD      ACCESS:          9  HIT:          3  MISS:          6
cpu0_L1I RFO       ACCESS:          0  HIT:          0  MISS:          0
cpu0_L1I PREFETCH  ACCESS:          0  HIT:          0  MISS:          0
cpu0_L1I WRITEBACK ACCESS:          0  HIT:          0  MISS:          0
cpu0_STLB TOTAL     ACCESS:      11022  HIT:          0  MISS:      11022
cpu0_STLB LOAD      ACCESS:       8309  HIT:          0  MISS:       8309
cpu0_STLB RFO       ACCESS:       2713  HIT:          0  MISS:       2713
cpu0_STLB PREFETCH  ACCESS:          0  HIT:          0  MISS:          0
cpu0_STLB WRITEBACK ACCESS:          0  HIT:          0  MISS:          0
cpu0_L1D TOTAL     ACCESS:    3789574  HIT:    3084293  MISS:     705281
cpu0_L1D LOAD      ACCESS:    2390119  HIT:    1684847  MISS:     705272
cpu0_L1D RFO       ACCESS:    1388433  HIT:    1388429  MISS:          4
cpu0_L1D PREFETCH  ACCESS:          0  HIT:          0  MISS:          0
cpu0_L1D WRITEBACK ACCESS:          0  HIT:          0  MISS:          0
cpu0_L2C TOTAL     ACCESS:    1113009  HIT:     407722  MISS:     705287
cpu0_L2C LOAD      ACCESS:     705278  HIT:          0  MISS:     705278
cpu0_L2C RFO       ACCESS:          4  HIT:          0  MISS:          4
cpu0_L2C PREFETCH  ACCESS:          0  HIT:          0  MISS:          0
cpu0_L2C WRITEBACK ACCESS:     407722  HIT:     407722  MISS:          0
LLC TOTAL     ACCESS:    1118860  HIT:      18787  MISS:    1100073
LLC LOAD      ACCESS:     705278  HIT:      15347  MISS:     689931
LLC RFO       ACCESS:          4  HIT:          0  MISS:          4
LLC PREFETCH  ACCESS:          0  HIT:          0  MISS:          0
LLC WRITEBACK ACCESS:     413573  HIT:       3440  MISS:     410133
Heartbeat CPU 0 instructions: 78000000 cycles: 67787469 heartbeat IPC: 0.533248 cumulative IPC: 0.534291 (Simulation time: 0 hr 49 min 53 sec) 

Region of Interest Statistics
cpu0_DTLB TOTAL     ACCESS:    4595291  HIT:    4583567  MISS:      11724
cpu0_DTLB LOAD      ACCESS:    3918676  HIT:    3909665  MISS:       9011
cpu0_DTLB RFO       ACCESS:     676615  HIT:     673902  MISS:       2713
cpu0_DTLB PREFETCH  ACCESS:          0  HIT:          0  MISS:          0
cpu0_DTLB WRITEBACK ACCESS:          0  HIT:          0  MISS:          0
cpu0_ITLB TOTAL     ACCESS:    1453530  HIT:    1453530  MISS:          0
cpu0_ITLB LOAD      ACCESS:    1453530  HIT:    1453530  MISS:          0
cpu0_ITLB RFO       ACCESS:          0  HIT:          0  MISS:          0
cpu0_ITLB PREFETCH  ACCESS:          0  HIT:          0  MISS:          0
cpu0_ITLB WRITEBACK ACCESS:          0  HIT:          0  MISS:          0
cpu0_L1I TOTAL     ACCESS:          9  HIT:          3  MISS:          6
cpu0_L1I LOAD      ACCESS:          9  HIT:          3  MISS:          6
cpu0_L1I RFO       ACCESS:          0  HIT:          0  MISS:          0
cpu0_L1I PREFETCH  ACCESS:          0  HIT:          0  MISS:          0
cpu0_L1I WRITEBACK ACCESS:          0  HIT:          0  MISS:          0
cpu0_STLB TOTAL     ACCESS:      11724  HIT:          0  MISS:      11724
cpu0_STLB LOAD      ACCESS:       9011  HIT:          0  MISS:       9011
cpu0_STLB RFO       ACCESS:       2713  HIT:          0  MISS:       2713
cpu0_STLB PREFETCH  ACCESS:          0  HIT:          0  MISS:          0
cpu0_STLB WRITEBACK ACCESS:          0  HIT:          0  MISS:          0
cpu0_L1D TOTAL     ACCESS:    3970022  HIT:    3219757  MISS:     750265
cpu0_L1D LOAD      ACCESS:    2559525  HIT:    1809269  MISS:     750256
cpu0_L1D RFO       ACCESS:    1398773  HIT:    1398769  MISS:          4
cpu0_L1D PREFETCH  ACCESS:          0  HIT:          0  MISS:          0
cpu0_L1D WRITEBACK ACCESS:          0  HIT:          0  MISS:          0
cpu0_L2C TOTAL     ACCESS:    1167695  HIT:     417424  MISS:     750271
cpu0_L2C LOAD      ACCESS:     750262  HIT:          0  MISS:     750262
cpu0_L2C RFO       ACCESS:          4  HIT:          0  MISS:          4
cpu0_L2C PREFETCH  ACCESS:          0  HIT:          0  MISS:          0
cpu0_L2C WRITEBACK ACCESS:     417424  HIT:     417424  MISS:          0
LLC TOTAL     ACCESS:    1173383  HIT:      18787  MISS:    1154596
LLC LOAD      ACCESS:     750262  HIT:      15347  MISS:     734915
LLC RFO       ACCESS:          4  HIT:          0  MISS:          4
LLC PREFETCH  ACCESS:          0  HIT:          0  MISS:          0
LLC WRITEBACK ACCESS:     423112  HIT:       3440  MISS:     419672
Heartbeat CPU 0 instructions: 80000004 cycles: 71547280 heartbeat IPC: 0.531943 cumulative IPC: 0.534133 (Simulation time: 0 hr 51 min 20 sec) 

Region of Interest Statistics
cpu0_DTLB TOTAL     ACCESS:    4913925  HIT:    4901498  MISS:      12427
cpu0_DTLB LOAD      ACCESS:    4226970  HIT:    4217256  MISS:       9714
cpu0_DTLB RFO       ACCESS:     686955  HIT:     684242  MISS:       2713
cpu0_DTLB PREFETCH  ACCESS:          0  HIT:          0  MISS:          0
cpu0_DTLB WRITEBACK ACCESS:          0  HIT:          0  MISS:          0
cpu0_ITLB TOTAL     ACCESS:    1605192  HIT:    1605192  MISS:          0
cpu0_ITLB LOAD      ACCESS:    1605192  HIT:    1605192  MISS:          0
cpu0_ITLB RFO       ACCESS:          0  HIT:          0  MISS:          0
cpu0_ITLB PREFETCH  ACCESS:          0  HIT:          0  MISS:          0
cpu0_ITLB WRITEBACK ACCESS:          0  HIT:          0  MISS:          0
cpu0_L1I TOTAL     ACCESS:          9  HIT:          3  MISS:          6
cpu0_L1I LOAD      ACCESS:          9  HIT:          3  MISS:          6
cpu0_L1I RFO       ACCESS:          0  HIT:          0  MISS:          0
cpu0_L1I PREFETCH  ACCESS:          0  HIT:          0  MISS:          0
cpu0_L1I WRITEBACK ACCESS:          0  HIT:          0  MISS:          0
cpu0_STLB TOTAL     ACCESS:      12427  HIT:          0  MISS:      12427
cpu0_STLB LOAD      ACCESS:       9714  HIT:          0  MISS:       9714
cpu0_STLB RFO       ACCESS:       2713  HIT:          0  MISS:       2713
cpu0_STLB PREFETCH  ACCESS:          0  HIT:          0  MISS:          0
cpu0_STLB WRITEBACK ACCESS:          0  HIT:          0  MISS:          0
cpu0_L1D TOTAL     ACCESS:    4150262  HIT:    3355010  MISS:     795252
cpu0_L1D LOAD      ACCESS:    2728722  HIT:    1933479  MISS:     795243
cpu0_L1D RFO       ACCESS:    1409113  HIT:    1409109  MISS:          4
cpu0_L1D PREFETCH  ACCESS:          0  HIT:          0  MISS:          0
cpu0_L1D WRITEBACK ACCESS:          0  HIT:          0  MISS:          0
cpu0_L2C TOTAL     ACCESS:    1222384  HIT:     427126  MISS:     795258
cpu0_L2C LOAD      ACCESS:     795249  HIT:          0  MISS:     795249
cpu0_L2C RFO       ACCESS:          4  HIT:          0  MISS:          4
cpu0_L2C PREFETCH  ACCESS:          0  HIT:          0  MISS:          0
cpu0_L2C WRITEBACK ACCESS:     427126  HIT:     427126  MISS:          0
LLC TOTAL     ACCESS:    1228122  HIT:      18787  MISS:    1209335
LLC LOAD      ACCESS:     795249  HIT:      15347  MISS:     779902
LLC RFO       ACCESS:          4  HIT:          0  MISS:          4
LLC PREFETCH  ACCESS:          0  HIT:          0  MISS:          0
LLC WRITEBACK ACCESS:     432864  HIT:       3440  MISS:     429424
Heartbeat CPU 0 instructions: 82000000 cycles: 75298607 heartbeat IPC: 0.533144 cumulative IPC: 0.534072 (Simulation time: 0 hr 52 min 43 sec) 

Region of Interest Statistics
cpu0_DTLB TOTAL     ACCESS:    5232428  HIT:    5219298  MISS:      13130
cpu0_DTLB LOAD      ACCESS:    4535133  HIT:    4524716  MISS:      10417
cpu0_DTLB RFO       ACCESS:     697295  HIT:     694582  MISS:       2713
cpu0_DTLB PREFETCH  ACCESS:          0  HIT:          0  MISS:          0
cpu0_DTLB WRITEBACK ACCESS:          0  HIT:          0  MISS:          0
cpu0_ITLB TOTAL     ACCESS:    1757583  HIT:    1757583  MISS:          0
cpu0_ITLB LOAD      ACCESS:    1757583  HIT:    1757583  MISS:          0
cpu0_ITLB RFO       ACCESS:          0  HIT:          0  MISS:          0
cpu0_ITLB PREFETCH  ACCESS:          0  HIT:          0  MISS:          0
cpu0_ITLB WRITEBACK ACCESS:          0  HIT:          0  MISS:          0
cpu0_L1I TOTAL     ACCESS:          9  HIT:          3  MISS:          6
cpu0_L1I LOAD      ACCESS:          9  HIT:          3  MISS:          6
cpu0_L1I RFO       ACCESS:          0  HIT:          0  MISS:          0
cpu0_L1I PREFETCH  ACCESS:          0  HIT:          0  MISS:          0
cpu0_L1I WRITEBACK ACCESS:          0  HIT:          0  MISS:          0
cpu0_STLB TOTAL     ACCESS:      13130  HIT:          0  MISS:      13130
cpu0_STLB LOAD      ACCESS:      10417  HIT:          0  MISS:      10417
cpu0_STLB RFO       ACCESS:       2713  HIT:          0  MISS:       2713
cpu0_STLB PREFETCH  ACCESS:          0  HIT:          0  MISS:          0
cpu0_STLB WRITEBACK ACCESS:          0  HIT:          0  MISS:          0
cpu0_L1D TOTAL     ACCESS:    4330654  HIT:    3490418  MISS:     840236
cpu0_L1D LOAD      ACCESS:    2898071  HIT:    2057845  MISS:     840226
cpu0_L1D RFO       ACCESS:    1419453  HIT:    1419449  MISS:          4
cpu0_L1D PREFETCH  ACCESS:          0  HIT:          0  MISS:          0
cpu0_L1D WRITEBACK ACCESS:          0  HIT:          0  MISS:          0
cpu0_L2C TOTAL     ACCESS:    1277070  HIT:     436828  MISS:     840242
cpu0_L2C LOAD      ACCESS:     840232  HIT:          0  MISS:     840232
cpu0_L2C RFO       ACCESS:          4  HIT:          0  MISS:          4
cpu0_L2C PREFETCH  ACCESS:          0  HIT:          0  MISS:          0
cpu0_L2C WRITEBACK ACCESS:     436828  HIT:     436828  MISS:          0
LLC TOTAL     ACCESS:    1282593  HIT:      18787  MISS:    1263806
LLC LOAD      ACCESS:     840232  HIT:      15347  MISS:     824885
LLC RFO       ACCESS:          4  HIT:          0  MISS:          4
LLC PREFETCH  ACCESS:          0  HIT:          0  MISS:          0
LLC WRITEBACK ACCESS:     442351  HIT:       3440  MISS:     438911
Heartbeat CPU 0 instructions: 84000004 cycles: 77595255 heartbeat IPC: 0.870836 cumulative IPC: 0.546503 (Simulation time: 0 hr 53 min 48 sec) 

Region of Interest Statistics
cpu0_DTLB TOTAL     ACCESS:    5536063  HIT:    5522225  MISS:      13838
cpu0_DTLB LOAD      ACCESS:    4832431  HIT:    4821306  MISS:      11125
cpu0_DTLB RFO       ACCESS:     703632  HIT:     700919  MISS:       2713
cpu0_DTLB PREFETCH  ACCESS:          0  HIT:          0  MISS:          0
cpu0_DTLB WRITEBACK ACCESS:          0  HIT:          0  MISS:          0
cpu0_ITLB TOTAL     ACCESS:    1925678  HIT:    1925678  MISS:          0
cpu0_ITLB LOAD      ACCESS:    1925678  HIT:    1925678  MISS:          0
cpu0_ITLB RFO       ACCESS:          0  HIT:          0  MISS:          0
cpu0_ITLB PREFETCH  ACCESS:          0  HIT:          0  MISS:          0
cpu0_ITLB WRITEBACK ACCESS:          0  HIT:          0  MISS:          0
cpu0_L1I TOTAL     ACCESS:         10  HIT:          4  MISS:          6
cpu0_L1I LOAD      ACCESS:         10  HIT:          4  MISS:          6
cpu0_L1I RFO       ACCESS:          0  HIT:          0  MISS:          0
cpu0_L1I PREFETCH  ACCESS:          0  HIT:          0  MISS:          0
cpu0_L1I WRITEBACK ACCESS:          0  HIT:          0  MISS:          0
cpu0_STLB TOTAL     ACCESS:      13838  HIT:          0  MISS:      13838
cpu0_STLB LOAD      ACCESS:      11125  HIT:          0  MISS:      11125
cpu0_STLB RFO       ACCESS:       2713  HIT:          0  MISS:       2713
cpu0_STLB PREFETCH  ACCESS:          0  HIT:          0  MISS:          0
cpu0_STLB WRITEBACK ACCESS:          0  HIT:          0  MISS:          0
cpu0_L1D TOTAL     ACCESS:    4496701  HIT:    3611291  MISS:     885410
cpu0_L1D LOAD      ACCESS:    3057067  HIT:    2171673  MISS:     885394
cpu0_L1D RFO       ACCESS:    1425796  HIT:    1425788  MISS:          8
cpu0_L1D PREFETCH  ACCESS:          0  HIT:          0  MISS:          0
cpu0_L1D WRITEBACK ACCESS:          0  HIT:          0  MISS:          0
cpu0_L2C TOTAL     ACCESS:    1328433  HIT:     443017  MISS:     885416
cpu0_L2C LOAD      ACCESS:     885400  HIT:          0  MISS:     885400
cpu0_L2C RFO       ACCESS:          8  HIT:          0  MISS:          8
cpu0_L2C PREFETCH  ACCESS:          0  HIT:          0  MISS:          0
cpu0_L2C WRITEBACK ACCESS:     443017  HIT:     443017  MISS:          0
LLC TOTAL     ACCESS:    1334952  HIT:      34046  MISS:    1300906
LLC LOAD      ACCESS:     885400  HIT:      29406  MISS:     855994
LLC RFO       ACCESS:          8  HIT:          0  MISS:          8
LLC PREFETCH  ACCESS:          0  HIT:          0  MISS:          0
LLC WRITEBACK ACCESS:     449536  HIT:       4640  MISS:     444896
Heartbeat CPU 0 instructions: 86000001 cycles: 80176724 heartbeat IPC: 0.774751 cumulative IPC: 0.555597 (Simulation time: 0 hr 55 min 5 sec) 

Region of Interest Statistics
cpu0_DTLB TOTAL     ACCESS:    5846250  HIT:    5831706  MISS:      14544
cpu0_DTLB LOAD      ACCESS:    5137457  HIT:    5125626  MISS:      11831
cpu0_DTLB RFO       ACCESS:     708793  HIT:     706080  MISS:       2713
cpu0_DTLB PREFETCH  ACCESS:          0  HIT:          0  MISS:          0
cpu0_DTLB WRITEBACK ACCESS:          0  HIT:          0  MISS:          0
cpu0_ITLB TOTAL     ACCESS:    2073010  HIT:    2073010  MISS:          0
cpu0_ITLB LOAD      ACCESS:    2073010  HIT:    2073010  MISS:          0
cpu0_ITLB RFO       ACCESS:          0  HIT:          0  MISS:          0
cpu0_ITLB PREFETCH  ACCESS:          0  HIT:          0  MISS:          0
cpu0_ITLB WRITEBACK ACCESS:          0  HIT:          0  MISS:          0
cpu0_L1I TOTAL     ACCESS:         10  HIT:          4  MISS:          6
cpu0_L1I LOAD      ACCESS:         10  HIT:          4  MISS:          6
cpu0_L1I RFO       ACCESS:          0  HIT:          0  MISS:          0
cpu0_L1I PREFETCH  ACCESS:          0  HIT:          0  MISS:          0
cpu0_L1I WRITEBACK ACCESS:          0  HIT:          0  MISS:          0
cpu0_STLB TOTAL     ACCESS:      14544  HIT:          0  MISS:      14544
cpu0_STLB LOAD      ACCESS:      11831  HIT:          0  MISS:      11831
cpu0_STLB RFO       ACCESS:       2713  HIT:          0  MISS:       2713
cpu0_STLB PREFETCH  ACCESS:          0  HIT:          0  MISS:          0
cpu0_STLB WRITEBACK ACCESS:          0  HIT:          0  MISS:          0
cpu0_L1D TOTAL     ACCESS:    4661533  HIT:    3730903  MISS:     930630
cpu0_L1D LOAD      ACCESS:    3216032  HIT:    2285418  MISS:     930614
cpu0_L1D RFO       ACCESS:    1430957  HIT:    1430949  MISS:          8
cpu0_L1D PREFETCH  ACCESS:          0  HIT:          0  MISS:          0
cpu0_L1D WRITEBACK ACCESS:          0  HIT:          0  MISS:          0
cpu0_L2C TOTAL     ACCESS:    1378802  HIT:     448165  MISS:     930637
cpu0_L2C LOAD      ACCESS:     930621  HIT:          0  MISS:     930621
cpu0_L2C RFO       ACCESS:          8  HIT:          0  MISS:          8
cpu0_L2C PREFETCH  ACCESS:          0  HIT:          0  MISS:          0
cpu0_L2C WRITEBACK ACCESS:     448165  HIT:     448165  MISS:          0
LLC TOTAL     ACCESS:    1385379  HIT:      34454  MISS:    1350925
LLC LOAD      ACCESS:     930621  HIT:      29406  MISS:     901215
LLC RFO       ACCESS:          8  HIT:          0  MISS:          8
LLC PREFETCH  ACCESS:          0  HIT:          0  MISS:          0
LLC WRITEBACK ACCESS:     454742  HIT:       5048  MISS:     449694
Heartbeat CPU 0 instructions: 88000002 cycles: 82770218 heartbeat IPC: 0.771161 cumulative IPC: 0.563893 (Simulation time: 0 hr 56 min 21 sec) 

Region of Interest Statistics
cpu0_DTLB TOTAL     ACCESS:    6155982  HIT:    6140731  MISS:      15251
cpu0_DTLB LOAD      ACCESS:    5442004  HIT:    5429466  MISS:      12538
cpu0_DTLB RFO       ACCESS:     713978  HIT:     711265  MISS:       2713
cpu0_DTLB PREFETCH  ACCESS:          0  HIT:          0  MISS:          0
cpu0_DTLB WRITEBACK ACCESS:          0  HIT:          0  MISS:          0
cpu0_ITLB TOTAL     ACCESS:    2222293  HIT:    2222293  MISS:          0
cpu0_ITLB LOAD      ACCESS:    2222293  HIT:    2222293  MISS:          0
cpu0_ITLB RFO       ACCESS:          0  HIT:          0  MISS:          0
cpu0_ITLB PREFETCH  ACCESS:          0  HIT:          0  MISS:          0
cpu0_ITLB WRITEBACK ACCESS:          0  HIT:          0  MISS:          0
cpu0_L1I TOTAL     ACCESS:         10  HIT:          4  MISS:          6
cpu0_L1I LOAD      ACCESS:         10  HIT:          4  MISS:          6
cpu0_L1I RFO       ACCESS:          0  HIT:          0  MISS:          0
cpu0_L1I PREFETCH  ACCESS:          0  HIT:          0  MISS:          0
cpu0_L1I WRITEBACK ACCESS:          0  HIT:          0  MISS:          0
cpu0_STLB TOTAL     ACCESS:      15251  HIT:          0  MISS:      15251
cpu0_STLB LOAD      ACCESS:      12538  HIT:          0  MISS:      12538
cpu0_STLB RFO       ACCESS:       2713  HIT:          0  MISS:       2713
cpu0_STLB PREFETCH  ACCESS:          0  HIT:          0  MISS:          0
cpu0_STLB WRITEBACK ACCESS:          0  HIT:          0  MISS:          0
cpu0_L1D TOTAL     ACCESS:    4826405  HIT:    3850556  MISS:     975849
cpu0_L1D LOAD      ACCESS:    3375012  HIT:    2399179  MISS:     975833
cpu0_L1D RFO       ACCESS:    1436142  HIT:    1436134  MISS:          8
cpu0_L1D PREFETCH  ACCESS:          0  HIT:          0  MISS:          0
cpu0_L1D WRITEBACK ACCESS:          0  HIT:          0  MISS:          0
cpu0_L2C TOTAL     ACCESS:    1429168  HIT:     453313  MISS:     975855
cpu0_L2C LOAD      ACCESS:     975839  HIT:          0  MISS:     975839
cpu0_L2C RFO       ACCESS:          8  HIT:          0  MISS:          8
cpu0_L2C PREFETCH  ACCESS:          0  HIT:          0  MISS:          0
cpu0_L2C WRITEBACK ACCESS:     453313  HIT:     453313  MISS:          0
LLC TOTAL     ACCESS:    1435781  HIT:      34746  MISS:    1401035
LLC LOAD      ACCESS:     975840  HIT:      29667  MISS:     946173
LLC RFO       ACCESS:          8  HIT:          0  MISS:          8
LLC PREFETCH  ACCESS:          0  HIT:          0  MISS:          0
LLC WRITEBACK ACCESS:     459925  HIT:       5079  MISS:     454846
Heartbeat CPU 0 instructions: 90000003 cycles: 85271859 heartbeat IPC: 0.799476 cumulative IPC: 0.572325 (Simulation time: 0 hr 57 min 32 sec) 

Region of Interest Statistics
cpu0_DTLB TOTAL     ACCESS:    6466293  HIT:    6450335  MISS:      15958
cpu0_DTLB LOAD      ACCESS:    5747130  HIT:    5733885  MISS:      13245
cpu0_DTLB RFO       ACCESS:     719163  HIT:     716450  MISS:       2713
cpu0_DTLB PREFETCH  ACCESS:          0  HIT:          0  MISS:          0
cpu0_DTLB WRITEBACK ACCESS:          0  HIT:          0  MISS:          0
cpu0_ITLB TOTAL     ACCESS:    2370754  HIT:    2370754  MISS:          0
cpu0_ITLB LOAD      ACCESS:    2370754  HIT:    2370754  MISS:          0
cpu0_ITLB RFO       ACCESS:          0  HIT:          0  MISS:          0
cpu0_ITLB PREFETCH  ACCESS:          0  HIT:          0  MISS:          0
cpu0_ITLB WRITEBACK ACCESS:          0  HIT:          0  MISS:          0
cpu0_L1I TOTAL     ACCESS:         10  HIT:          4  MISS:          6
cpu0_L1I LOAD      ACCESS:         10  HIT:          4  MISS:          6
cpu0_L1I RFO       ACCESS:          0  HIT:          0  MISS:          0
cpu0_L1I PREFETCH  ACCESS:          0  HIT:          0  MISS:          0
cpu0_L1I WRITEBACK ACCESS:          0  HIT:          0  MISS:          0
cpu0_STLB TOTAL     ACCESS:      15958  HIT:          0  MISS:      15958
cpu0_STLB LOAD      ACCESS:      13245  HIT:          0  MISS:      13245
cpu0_STLB RFO       ACCESS:       2713  HIT:          0  MISS:       2713
cpu0_STLB PREFETCH  ACCESS:          0  HIT:          0  MISS:          0
cpu0_STLB WRITEBACK ACCESS:          0  HIT:          0  MISS:          0
cpu0_L1D TOTAL     ACCESS:    4991265  HIT:    3970197  MISS:    1021068
cpu0_L1D LOAD      ACCESS:    3533980  HIT:    2512928  MISS:    1021052
cpu0_L1D RFO       ACCESS:    1441327  HIT:    1441319  MISS:          8
cpu0_L1D PREFETCH  ACCESS:          0  HIT:          0  MISS:          0
cpu0_L1D WRITEBACK ACCESS:          0  HIT:          0  MISS:          0
cpu0_L2C TOTAL     ACCESS:    1479535  HIT:     458461  MISS:    1021074
cpu0_L2C LOAD      ACCESS:    1021058  HIT:          0  MISS:    1021058
cpu0_L2C RFO       ACCESS:          8  HIT:          0  MISS:          8
cpu0_L2C PREFETCH  ACCESS:          0  HIT:          0  MISS:          0
cpu0_L2C WRITEBACK ACCESS:     458461  HIT:     458461  MISS:          0
LLC TOTAL     ACCESS:    1486081  HIT:      35970  MISS:    1450111
LLC LOAD      ACCESS:    1021058  HIT:      30702  MISS:     990356
LLC RFO       ACCESS:          8  HIT:          0  MISS:          8
LLC PREFETCH  ACCESS:          0  HIT:          0  MISS:          0
LLC WRITEBACK ACCESS:     465007  HIT:       5268  MISS:     459739
Heartbeat CPU 0 instructions: 92000000 cycles: 87893494 heartbeat IPC: 0.762882 cumulative IPC: 0.579215 (Simulation time: 0 hr 58 min 51 sec) 

Region of Interest Statistics
cpu0_DTLB TOTAL     ACCESS:    6776173  HIT:    6759509  MISS:      16664
cpu0_DTLB LOAD      ACCESS:    6051825  HIT:    6037874  MISS:      13951
cpu0_DTLB RFO       ACCESS:     724348  HIT:     721635  MISS:       2713
cpu0_DTLB PREFETCH  ACCESS:          0  HIT:          0  MISS:          0
cpu0_DTLB WRITEBACK ACCESS:          0  HIT:          0  MISS:          0
cpu0_ITLB TOTAL     ACCESS:    2519948  HIT:    2519948  MISS:          0
cpu0_ITLB LOAD      ACCESS:    2519948  HIT:    2519948  MISS:          0
cpu0_ITLB RFO       ACCESS:          0  HIT:          0  MISS:          0
cpu0_ITLB PREFETCH  ACCESS:          0  HIT:          0  MISS:          0
cpu0_ITLB WRITEBACK ACCESS:          0  HIT:          0  MISS:          0
cpu0_L1I TOTAL     ACCESS:         10  HIT:          4  MISS:          6
cpu0_L1I LOAD      ACCESS:         10  HIT:          4  MISS:          6
cpu0_L1I RFO       ACCESS:          0  HIT:          0  MISS:          0
cpu0_L1I PREFETCH  ACCESS:          0  HIT:          0  MISS:          0
cpu0_L1I WRITEBACK ACCESS:          0  HIT:          0  MISS:          0
cpu0_STLB TOTAL     ACCESS:      16664  HIT:          0  MISS:      16664
cpu0_STLB LOAD      ACCESS:      13951  HIT:          0  MISS:      13951
cpu0_STLB RFO       ACCESS:       2713  HIT:          0  MISS:       2713
cpu0_STLB PREFETCH  ACCESS:          0  HIT:          0  MISS:          0
cpu0_STLB WRITEBACK ACCESS:          0  HIT:          0  MISS:          0
cpu0_L1D TOTAL     ACCESS:    5156257  HIT:    4089970  MISS:    1066287
cpu0_L1D LOAD      ACCESS:    3693081  HIT:    2626810  MISS:    1066271
cpu0_L1D RFO       ACCESS:    1446512  HIT:    1446504  MISS:          8
cpu0_L1D PREFETCH  ACCESS:          0  HIT:          0  MISS:          0
cpu0_L1D WRITEBACK ACCESS:          0  HIT:          0  MISS:          0
cpu0_L2C TOTAL     ACCESS:    1529902  HIT:     463609  MISS:    1066293
cpu0_L2C LOAD      ACCESS:    1066277  HIT:          0  MISS:    1066277
cpu0_L2C RFO       ACCESS:          8  HIT:          0  MISS:          8
cpu0_L2C PREFETCH  ACCESS:          0  HIT:          0  MISS:          0
cpu0_L2C WRITEBACK ACCESS:     463609  HIT:     463609  MISS:          0
LLC TOTAL     ACCESS:    1536518  HIT:      35970  MISS:    1500548
LLC LOAD      ACCESS:    1066277  HIT:      30702  MISS:    1035575
LLC RFO       ACCESS:          8  HIT:          0  MISS:          8
LLC PREFETCH  ACCESS:          0  HIT:          0  MISS:          0
LLC WRITEBACK ACCESS:     470225  HIT:       5268  MISS:     464957
Heartbeat CPU 0 instructions: 94000001 cycles: 90503833 heartbeat IPC: 0.766184 cumulative IPC: 0.585712 (Simulation time: 1 hr 0 min 4 sec) 

Region of Interest Statistics
cpu0_DTLB TOTAL     ACCESS:    7086389  HIT:    7069018  MISS:      17371
cpu0_DTLB LOAD      ACCESS:    6356855  HIT:    6342197  MISS:      14658
cpu0_DTLB RFO       ACCESS:     729534  HIT:     726821  MISS:       2713
cpu0_DTLB PREFETCH  ACCESS:          0  HIT:          0  MISS:          0
cpu0_DTLB WRITEBACK ACCESS:          0  HIT:          0  MISS:          0
cpu0_ITLB TOTAL     ACCESS:    2667907  HIT:    2667907  MISS:          0
cpu0_ITLB LOAD      ACCESS:    2667907  HIT:    2667907  MISS:          0
cpu0_ITLB RFO       ACCESS:          0  HIT:          0  MISS:          0
cpu0_ITLB PREFETCH  ACCESS:          0  HIT:          0  MISS:          0
cpu0_ITLB WRITEBACK ACCESS:          0  HIT:          0  MISS:          0
cpu0_L1I TOTAL     ACCESS:         10  HIT:          4  MISS:          6
cpu0_L1I LOAD      ACCESS:         10  HIT:          4  MISS:          6
cpu0_L1I RFO       ACCESS:          0  HIT:          0  MISS:          0
cpu0_L1I PREFETCH  ACCESS:          0  HIT:          0  MISS:          0
cpu0_L1I WRITEBACK ACCESS:          0  HIT:          0  MISS:          0
cpu0_STLB TOTAL     ACCESS:      17371  HIT:          0  MISS:      17371
cpu0_STLB LOAD      ACCESS:      14658  HIT:          0  MISS:      14658
cpu0_STLB RFO       ACCESS:       2713  HIT:          0  MISS:       2713
cpu0_STLB PREFETCH  ACCESS:          0  HIT:          0  MISS:          0
cpu0_STLB WRITEBACK ACCESS:          0  HIT:          0  MISS:          0
cpu0_L1D TOTAL     ACCESS:    5321184  HIT:    4209678  MISS:    1111506
cpu0_L1D LOAD      ACCESS:    3852115  HIT:    2740626  MISS:    1111489
cpu0_L1D RFO       ACCESS:    1451698  HIT:    1451690  MISS:          8
cpu0_L1D PREFETCH  ACCESS:          0  HIT:          0  MISS:          0
cpu0_L1D WRITEBACK ACCESS:          0  HIT:          0  MISS:          0
cpu0_L2C TOTAL     ACCESS:    1580269  HIT:     468757  MISS:    1111512
cpu0_L2C LOAD      ACCESS:    1111495  HIT:          0  MISS:    1111495
cpu0_L2C RFO       ACCESS:          8  HIT:          0  MISS:          8
cpu0_L2C PREFETCH  ACCESS:          0  HIT:          0  MISS:          0
cpu0_L2C WRITEBACK ACCESS:     468757  HIT:     468757  MISS:          0
LLC TOTAL     ACCESS:    1586850  HIT:      35970  MISS:    1550880
LLC LOAD      ACCESS:    1111495  HIT:      30702  MISS:    1080793
LLC RFO       ACCESS:          8  HIT:          0  MISS:          8
LLC PREFETCH  ACCESS:          0  HIT:          0  MISS:          0
LLC WRITEBACK ACCESS:     475338  HIT:       5268  MISS:     470070
Heartbeat CPU 0 instructions: 96000001 cycles: 93121791 heartbeat IPC: 0.763954 cumulative IPC: 0.591714 (Simulation time: 1 hr 1 min 19 sec) 

Region of Interest Statistics
cpu0_DTLB TOTAL     ACCESS:    7396261  HIT:    7378184  MISS:      18077
cpu0_DTLB LOAD      ACCESS:    6661542  HIT:    6646178  MISS:      15364
cpu0_DTLB RFO       ACCESS:     734719  HIT:     732006  MISS:       2713
cpu0_DTLB PREFETCH  ACCESS:          0  HIT:          0  MISS:          0
cpu0_DTLB WRITEBACK ACCESS:          0  HIT:          0  MISS:          0
cpu0_ITLB TOTAL     ACCESS:    2816514  HIT:    2816514  MISS:          0
cpu0_ITLB LOAD      ACCESS:    2816514  HIT:    2816514  MISS:          0
cpu0_ITLB RFO       ACCESS:          0  HIT:          0  MISS:          0
cpu0_ITLB PREFETCH  ACCESS:          0  HIT:          0  MISS:          0
cpu0_ITLB WRITEBACK ACCESS:          0  HIT:          0  MISS:          0
cpu0_L1I TOTAL     ACCESS:         10  HIT:          4  MISS:          6
cpu0_L1I LOAD      ACCESS:         10  HIT:          4  MISS:          6
cpu0_L1I RFO       ACCESS:          0  HIT:          0  MISS:          0
cpu0_L1I PREFETCH  ACCESS:          0  HIT:          0  MISS:          0
cpu0_L1I WRITEBACK ACCESS:          0  HIT:          0  MISS:          0
cpu0_STLB TOTAL     ACCESS:      18077  HIT:          0  MISS:      18077
cpu0_STLB LOAD      ACCESS:      15364  HIT:          0  MISS:      15364
cpu0_STLB RFO       ACCESS:       2713  HIT:          0  MISS:       2713
cpu0_STLB PREFETCH  ACCESS:          0  HIT:          0  MISS:          0
cpu0_STLB WRITEBACK ACCESS:          0  HIT:          0  MISS:          0
cpu0_L1D TOTAL     ACCESS:    5486109  HIT:    4329384  MISS:    1156725
cpu0_L1D LOAD      ACCESS:    4011149  HIT:    2854441  MISS:    1156708
cpu0_L1D RFO       ACCESS:    1456883  HIT:    1456875  MISS:          8
cpu0_L1D PREFETCH  ACCESS:          0  HIT:          0  MISS:          0
cpu0_L1D WRITEBACK ACCESS:          0  HIT:          0  MISS:          0
cpu0_L2C TOTAL     ACCESS:    1630659  HIT:     473928  MISS:    1156731
cpu0_L2C LOAD      ACCESS:    1156714  HIT:          0  MISS:    1156714
cpu0_L2C RFO       ACCESS:          8  HIT:          0  MISS:          8
cpu0_L2C PREFETCH  ACCESS:          0  HIT:          0  MISS:          0
cpu0_L2C WRITEBACK ACCESS:     473928  HIT:     473928  MISS:          0
LLC TOTAL     ACCESS:    1637283  HIT:      35970  MISS:    1601313
LLC LOAD      ACCESS:    1156714  HIT:      30702  MISS:    1126012
LLC RFO       ACCESS:          8  HIT:          0  MISS:          8
LLC PREFETCH  ACCESS:          0  HIT:          0  MISS:          0
LLC WRITEBACK ACCESS:     480552  HIT:       5268  MISS:     475284
Heartbeat CPU 0 instructions: 98000001 cycles: 95737976 heartbeat IPC: 0.764472 cumulative IPC: 0.597339 (Simulation time: 1 hr 2 min 38 sec) 

Region of Interest Statistics
cpu0_DTLB TOTAL     ACCESS:    7706289  HIT:    7687505  MISS:      18784
cpu0_DTLB LOAD      ACCESS:    6966387  HIT:    6950316  MISS:      16071
cpu0_DTLB RFO       ACCESS:     739902  HIT:     737189  MISS:       2713
cpu0_DTLB PREFETCH  ACCESS:          0  HIT:          0  MISS:          0
cpu0_DTLB WRITEBACK ACCESS:          0  HIT:          0  MISS:          0
cpu0_ITLB TOTAL     ACCESS:    2965397  HIT:    2965397  MISS:          0
cpu0_ITLB LOAD      ACCESS:    2965397  HIT:    2965397  MISS:          0
cpu0_ITLB RFO       ACCESS:          0  HIT:          0  MISS:          0
cpu0_ITLB PREFETCH  ACCESS:          0  HIT:          0  MISS:          0
cpu0_ITLB WRITEBACK ACCESS:          0  HIT:          0  MISS:          0
cpu0_L1I TOTAL     ACCESS:         10  HIT:          4  MISS:          6
cpu0_L1I LOAD      ACCESS:         10  HIT:          4  MISS:          6
cpu0_L1I RFO       ACCESS:          0  HIT:          0  MISS:          0
cpu0_L1I PREFETCH  ACCESS:          0  HIT:          0  MISS:          0
cpu0_L1I WRITEBACK ACCESS:          0  HIT:          0  MISS:          0
cpu0_STLB TOTAL     ACCESS:      18784  HIT:          0  MISS:      18784
cpu0_STLB LOAD      ACCESS:      16071  HIT:          0  MISS:      16071
cpu0_STLB RFO       ACCESS:       2713  HIT:          0  MISS:       2713
cpu0_STLB PREFETCH  ACCESS:          0  HIT:          0  MISS:          0
cpu0_STLB WRITEBACK ACCESS:          0  HIT:          0  MISS:          0
cpu0_L1D TOTAL     ACCESS:    5651123  HIT:    4449179  MISS:    1201944
cpu0_L1D LOAD      ACCESS:    4170273  HIT:    2968346  MISS:    1201927
cpu0_L1D RFO       ACCESS:    1462066  HIT:    1462058  MISS:          8
cpu0_L1D PREFETCH  ACCESS:          0  HIT:          0  MISS:          0
cpu0_L1D WRITEBACK ACCESS:          0  HIT:          0  MISS:          0
cpu0_L2C TOTAL     ACCESS:    1681064  HIT:     479114  MISS:    1201950
cpu0_L2C LOAD      ACCESS:    1201933  HIT:          0  MISS:    1201933
cpu0_L2C RFO       ACCESS:          8  HIT:          0  MISS:          8
cpu0_L2C PREFETCH  ACCESS:          0  HIT:          0  MISS:          0
cpu0_L2C WRITEBACK ACCESS:     479114  HIT:     479114  MISS:          0
LLC TOTAL     ACCESS:    1687665  HIT:      35970  MISS:    1651695
LLC LOAD      ACCESS:    1201933  HIT:      30702  MISS:    1171231
LLC RFO       ACCESS:          8  HIT:          0  MISS:          8
LLC PREFETCH  ACCESS:          0  HIT:          0  MISS:          0
LLC WRITEBACK ACCESS:     485715  HIT:       5268  MISS:     480447
Heartbeat CPU 0 instructions: 100000001 cycles: 98336662 heartbeat IPC: 0.76962 cumulative IPC: 0.602736 (Simulation time: 1 hr 3 min 53 sec) 

Region of Interest Statistics
cpu0_DTLB TOTAL     ACCESS:    8016668  HIT:    7997178  MISS:      19490
cpu0_DTLB LOAD      ACCESS:    7271618  HIT:    7254841  MISS:      16777
cpu0_DTLB RFO       ACCESS:     745050  HIT:     742337  MISS:       2713
cpu0_DTLB PREFETCH  ACCESS:          0  HIT:          0  MISS:          0
cpu0_DTLB WRITEBACK ACCESS:          0  HIT:          0  MISS:          0
cpu0_ITLB TOTAL     ACCESS:    3112623  HIT:    3112623  MISS:          0
cpu0_ITLB LOAD      ACCESS:    3112623  HIT:    3112623  MISS:          0
cpu0_ITLB RFO       ACCESS:          0  HIT:          0  MISS:          0
cpu0_ITLB PREFETCH  ACCESS:          0  HIT:          0  MISS:          0
cpu0_ITLB WRITEBACK ACCESS:          0  HIT:          0  MISS:          0
cpu0_L1I TOTAL     ACCESS:         10  HIT:          4  MISS:          6
cpu0_L1I LOAD      ACCESS:         10  HIT:          4  MISS:          6
cpu0_L1I RFO       ACCESS:          0  HIT:          0  MISS:          0
cpu0_L1I PREFETCH  ACCESS:          0  HIT:          0  MISS:          0
cpu0_L1I WRITEBACK ACCESS:          0  HIT:          0  MISS:          0
cpu0_STLB TOTAL     ACCESS:      19490  HIT:          0  MISS:      19490
cpu0_STLB LOAD      ACCESS:      16777  HIT:          0  MISS:      16777
cpu0_STLB RFO       ACCESS:       2713  HIT:          0  MISS:       2713
cpu0_STLB PREFETCH  ACCESS:          0  HIT:          0  MISS:          0
cpu0_STLB WRITEBACK ACCESS:          0  HIT:          0  MISS:          0
cpu0_L1D TOTAL     ACCESS:    5815966  HIT:    4568801  MISS:    1247165
cpu0_L1D LOAD      ACCESS:    4329262  HIT:    3082114  MISS:    1247148
cpu0_L1D RFO       ACCESS:    1467214  HIT:    1467206  MISS:          8
cpu0_L1D PREFETCH  ACCESS:          0  HIT:          0  MISS:          0
cpu0_L1D WRITEBACK ACCESS:          0  HIT:          0  MISS:          0
cpu0_L2C TOTAL     ACCESS:    1731470  HIT:     484299  MISS:    1247171
cpu0_L2C LOAD      ACCESS:    1247154  HIT:          0  MISS:    1247154
cpu0_L2C RFO       ACCESS:          8  HIT:          0  MISS:          8
cpu0_L2C PREFETCH  ACCESS:          0  HIT:          0  MISS:          0
cpu0_L2C WRITEBACK ACCESS:     484299  HIT:     484299  MISS:          0
LLC TOTAL     ACCESS:    1738039  HIT:      35970  MISS:    1702069
LLC LOAD      ACCESS:    1247154  HIT:      30702  MISS:    1216452
LLC RFO       ACCESS:          8  HIT:          0  MISS:          8
LLC PREFETCH  ACCESS:          0  HIT:          0  MISS:          0
LLC WRITEBACK ACCESS:     490868  HIT:       5268  MISS:     485600
Heartbeat CPU 0 instructions: 102000002 cycles: 100935708 heartbeat IPC: 0.769513 cumulative IPC: 0.607802 (Simulation time: 1 hr 5 min 3 sec) 

Region of Interest Statistics
cpu0_DTLB TOTAL     ACCESS:    8327043  HIT:    8306846  MISS:      20197
cpu0_DTLB LOAD      ACCESS:    7576845  HIT:    7559361  MISS:      17484
cpu0_DTLB RFO       ACCESS:     750198  HIT:     747485  MISS:       2713
cpu0_DTLB PREFETCH  ACCESS:          0  HIT:          0  MISS:          0
cpu0_DTLB WRITEBACK ACCESS:          0  HIT:          0  MISS:          0
cpu0_ITLB TOTAL     ACCESS:    3260035  HIT:    3260035  MISS:          0
cpu0_ITLB LOAD      ACCESS:    3260035  HIT:    3260035  MISS:          0
cpu0_ITLB RFO       ACCESS:          0  HIT:          0  MISS:          0
cpu0_ITLB PREFETCH  ACCESS:          0  HIT:          0  MISS:          0
cpu0_ITLB WRITEBACK ACCESS:          0  HIT:          0  MISS:          0
cpu0_L1I TOTAL     ACCESS:         10  HIT:          4  MISS:          6
cpu0_L1I LOAD      ACCESS:         10  HIT:          4  MISS:          6
cpu0_L1I RFO       ACCESS:          0  HIT:          0  MISS:          0
cpu0_L1I PREFETCH  ACCESS:          0  HIT:          0  MISS:          0
cpu0_L1I WRITEBACK ACCESS:          0  HIT:          0  MISS:          0
cpu0_STLB TOTAL     ACCESS:      20197  HIT:          0  MISS:      20197
cpu0_STLB LOAD      ACCESS:      17484  HIT:          0  MISS:      17484
cpu0_STLB RFO       ACCESS:       2713  HIT:          0  MISS:       2713
cpu0_STLB PREFETCH  ACCESS:          0  HIT:          0  MISS:          0
cpu0_STLB WRITEBACK ACCESS:          0  HIT:          0  MISS:          0
cpu0_L1D TOTAL     ACCESS:    5980933  HIT:    4688548  MISS:    1292385
cpu0_L1D LOAD      ACCESS:    4488374  HIT:    3196006  MISS:    1292368
cpu0_L1D RFO       ACCESS:    1472362  HIT:    1472354  MISS:          8
cpu0_L1D PREFETCH  ACCESS:          0  HIT:          0  MISS:          0
cpu0_L1D WRITEBACK ACCESS:          0  HIT:          0  MISS:          0
cpu0_L2C TOTAL     ACCESS:    1781876  HIT:     489485  MISS:    1292391
cpu0_L2C LOAD      ACCESS:    1292374  HIT:          0  MISS:    1292374
cpu0_L2C RFO       ACCESS:          8  HIT:          0  MISS:          8
cpu0_L2C PREFETCH  ACCESS:          0  HIT:          0  MISS:          0
cpu0_L2C WRITEBACK ACCESS:     489485  HIT:     489485  MISS:          0
LLC TOTAL     ACCESS:    1788378  HIT:      35970  MISS:    1752408
LLC LOAD      ACCESS:    1292375  HIT:      30702  MISS:    1261673
LLC RFO       ACCESS:          8  HIT:          0  MISS:          8
LLC PREFETCH  ACCESS:          0  HIT:          0  MISS:          0
LLC WRITEBACK ACCESS:     495986  HIT:       5268  MISS:     490718
Heartbeat CPU 0 instructions: 104000002 cycles: 103546729 heartbeat IPC: 0.765984 cumulative IPC: 0.612487 (Simulation time: 1 hr 6 min 20 sec) 

Region of Interest Statistics
cpu0_DTLB TOTAL     ACCESS:    8637214  HIT:    8616311  MISS:      20903
cpu0_DTLB LOAD      ACCESS:    7881868  HIT:    7863678  MISS:      18190
cpu0_DTLB RFO       ACCESS:     755346  HIT:     752633  MISS:       2713
cpu0_DTLB PREFETCH  ACCESS:          0  HIT:          0  MISS:          0
cpu0_DTLB WRITEBACK ACCESS:          0  HIT:          0  MISS:          0
cpu0_ITLB TOTAL     ACCESS:    3407941  HIT:    3407941  MISS:          0
cpu0_ITLB LOAD      ACCESS:    3407941  HIT:    3407941  MISS:          0
cpu0_ITLB RFO       ACCESS:          0  HIT:          0  MISS:          0
cpu0_ITLB PREFETCH  ACCESS:          0  HIT:          0  MISS:          0
cpu0_ITLB WRITEBACK ACCESS:          0  HIT:          0  MISS:          0
cpu0_L1I TOTAL     ACCESS:         10  HIT:          4  MISS:          6
cpu0_L1I LOAD      ACCESS:         10  HIT:          4  MISS:          6
cpu0_L1I RFO       ACCESS:          0  HIT:          0  MISS:          0
cpu0_L1I PREFETCH  ACCESS:          0  HIT:          0  MISS:          0
cpu0_L1I WRITEBACK ACCESS:          0  HIT:          0  MISS:          0
cpu0_STLB TOTAL     ACCESS:      20903  HIT:          0  MISS:      20903
cpu0_STLB LOAD      ACCESS:      18190  HIT:          0  MISS:      18190
cpu0_STLB RFO       ACCESS:       2713  HIT:          0  MISS:       2713
cpu0_STLB PREFETCH  ACCESS:          0  HIT:          0  MISS:          0
cpu0_STLB WRITEBACK ACCESS:          0  HIT:          0  MISS:          0
cpu0_L1D TOTAL     ACCESS:    6145816  HIT:    4808210  MISS:    1337606
cpu0_L1D LOAD      ACCESS:    4647403  HIT:    3309814  MISS:    1337589
cpu0_L1D RFO       ACCESS:    1477510  HIT:    1477502  MISS:          8
cpu0_L1D PREFETCH  ACCESS:          0  HIT:          0  MISS:          0
cpu0_L1D WRITEBACK ACCESS:          0  HIT:          0  MISS:          0
cpu0_L2C TOTAL     ACCESS:    1832282  HIT:     494670  MISS:    1337612
cpu0_L2C LOAD      ACCESS:    1337595  HIT:          0  MISS:    1337595
cpu0_L2C RFO       ACCESS:          8  HIT:          0  MISS:          8
cpu0_L2C PREFETCH  ACCESS:          0  HIT:          0  MISS:          0
cpu0_L2C WRITEBACK ACCESS:     494670  HIT:     494670  MISS:          0
LLC TOTAL     ACCESS:    1838832  HIT:      35970  MISS:    1802862
LLC LOAD      ACCESS:    1337595  HIT:      30702  MISS:    1306893
LLC RFO       ACCESS:          8  HIT:          0  MISS:          8
LLC PREFETCH  ACCESS:          0  HIT:          0  MISS:          0
LLC WRITEBACK ACCESS:     501220  HIT:       5268  MISS:     495952
Heartbeat CPU 0 instructions: 106000004 cycles: 106325838 heartbeat IPC: 0.719656 cumulative IPC: 0.615762 (Simulation time: 1 hr 7 min 32 sec) 

Region of Interest Statistics
cpu0_DTLB TOTAL     ACCESS:    8948915  HIT:    8927304  MISS:      21611
cpu0_DTLB LOAD      ACCESS:    8187468  HIT:    8168570  MISS:      18898
cpu0_DTLB RFO       ACCESS:     761447  HIT:     758734  MISS:       2713
cpu0_DTLB PREFETCH  ACCESS:          0  HIT:          0  MISS:          0
cpu0_DTLB WRITEBACK ACCESS:          0  HIT:          0  MISS:          0
cpu0_ITLB TOTAL     ACCESS:    3556123  HIT:    3556123  MISS:          0
cpu0_ITLB LOAD      ACCESS:    3556123  HIT:    3556123  MISS:          0
cpu0_ITLB RFO       ACCESS:          0  HIT:          0  MISS:          0
cpu0_ITLB PREFETCH  ACCESS:          0  HIT:          0  MISS:          0
cpu0_ITLB WRITEBACK ACCESS:          0  HIT:          0  MISS:          0
cpu0_L1I TOTAL     ACCESS:         11  HIT:          4  MISS:          7
cpu0_L1I LOAD      ACCESS:         11  HIT:          4  MISS:          7
cpu0_L1I RFO       ACCESS:          0  HIT:          0  MISS:          0
cpu0_L1I PREFETCH  ACCESS:          0  HIT:          0  MISS:          0
cpu0_L1I WRITEBACK ACCESS:          0  HIT:          0  MISS:          0
cpu0_STLB TOTAL     ACCESS:      21611  HIT:          0  MISS:      21611
cpu0_STLB LOAD      ACCESS:      18898  HIT:          0  MISS:      18898
cpu0_STLB RFO       ACCESS:       2713  HIT:          0  MISS:       2713
cpu0_STLB PREFETCH  ACCESS:          0  HIT:          0  MISS:          0
cpu0_STLB WRITEBACK ACCESS:          0  HIT:          0  MISS:          0
cpu0_L1D TOTAL     ACCESS:    6313495  HIT:    4930702  MISS:    1382793
cpu0_L1D LOAD      ACCESS:    4808267  HIT:    3425498  MISS:    1382769
cpu0_L1D RFO       ACCESS:    1483617  HIT:    1483605  MISS:         12
cpu0_L1D PREFETCH  ACCESS:          0  HIT:          0  MISS:          0
cpu0_L1D WRITEBACK ACCESS:          0  HIT:          0  MISS:          0
cpu0_L2C TOTAL     ACCESS:    1883452  HIT:     500652  MISS:    1382800
cpu0_L2C LOAD      ACCESS:    1382776  HIT:          0  MISS:    1382776
cpu0_L2C RFO       ACCESS:         12  HIT:          0  MISS:         12
cpu0_L2C PREFETCH  ACCESS:          0  HIT:          0  MISS:          0
cpu0_L2C WRITEBACK ACCESS:     500652  HIT:     500652  MISS:          0
LLC TOTAL     ACCESS:    1889190  HIT:      36038  MISS:    1853152
LLC LOAD      ACCESS:    1382776  HIT:      30766  MISS:    1352010
LLC RFO       ACCESS:         12  HIT:          0  MISS:         12
LLC PREFETCH  ACCESS:          0  HIT:          0  MISS:          0
LLC WRITEBACK ACCESS:     506390  HIT:       5272  MISS:     501118
Heartbeat CPU 0 instructions: 108000003 cycles: 109068767 heartbeat IPC: 0.729147 cumulative IPC: 0.619081 (Simulation time: 1 hr 8 min 41 sec) 

Region of Interest Statistics
cpu0_DTLB TOTAL     ACCESS:    9260525  HIT:    9238211  MISS:      22314
cpu0_DTLB LOAD      ACCESS:    8488738  HIT:    8469137  MISS:      19601
cpu0_DTLB RFO       ACCESS:     771787  HIT:     769074  MISS:       2713
cpu0_DTLB PREFETCH  ACCESS:          0  HIT:          0  MISS:          0
cpu0_DTLB WRITEBACK ACCESS:          0  HIT:          0  MISS:          0
cpu0_ITLB TOTAL     ACCESS:    3725391  HIT:    3725391  MISS:          0
cpu0_ITLB LOAD      ACCESS:    3725391  HIT:    3725391  MISS:          0
cpu0_ITLB RFO       ACCESS:          0  HIT:          0  MISS:          0
cpu0_ITLB PREFETCH  ACCESS:          0  HIT:          0  MISS:          0
cpu0_ITLB WRITEBACK ACCESS:          0  HIT:          0  MISS:          0
cpu0_L1I TOTAL     ACCESS:         11  HIT:          4  MISS:          7
cpu0_L1I LOAD      ACCESS:         11  HIT:          4  MISS:          7
[...]
cpu0_L1I LOAD      ACCESS:         75  HIT:         42  MISS:         33
cpu0_L1I RFO       ACCESS:          0  HIT:          0  MISS:          0
cpu0_L1I PREFETCH  ACCESS:          0  HIT:          0  MISS:          0
cpu0_L1I WRITEBACK ACCESS:          0  HIT:          0  MISS:          0
cpu0_STLB TOTAL     ACCESS:     566727  HIT:          0  MISS:     566727
cpu0_STLB LOAD      ACCESS:     530291  HIT:          0  MISS:     530291
cpu0_STLB RFO       ACCESS:      36436  HIT:          0  MISS:      36436
cpu0_STLB PREFETCH  ACCESS:          0  HIT:          0  MISS:          0
cpu0_STLB WRITEBACK ACCESS:          0  HIT:          0  MISS:          0
cpu0_L1D TOTAL     ACCESS:  160363053  HIT:  124100513  MISS:   36262540
cpu0_L1D LOAD      ACCESS:  133349136  HIT:   97087136  MISS:   36262000
cpu0_L1D RFO       ACCESS:   26447190  HIT:   26446927  MISS:        263
cpu0_L1D PREFETCH  ACCESS:          0  HIT:          0  MISS:          0
cpu0_L1D WRITEBACK ACCESS:          0  HIT:          0  MISS:          0
cpu0_L2C TOTAL     ACCESS:   47579538  HIT:   11316965  MISS:   36262573
cpu0_L2C LOAD      ACCESS:   36262033  HIT:          0  MISS:   36262033
cpu0_L2C RFO       ACCESS:        263  HIT:          0  MISS:        263
cpu0_L2C PREFETCH  ACCESS:          0  HIT:          0  MISS:          0
cpu0_L2C WRITEBACK ACCESS:   11316965  HIT:   11316965  MISS:          0
LLC TOTAL     ACCESS:   47585891  HIT:    1391790  MISS:   46194101
LLC LOAD      ACCESS:   36262033  HIT:    1059521  MISS:   35202512
LLC RFO       ACCESS:        263  HIT:          0  MISS:        263
LLC PREFETCH  ACCESS:          0  HIT:          0  MISS:          0
LLC WRITEBACK ACCESS:   11323318  HIT:     332269  MISS:   10991049
Heartbeat CPU 0 instructions: 1550000001 cycles: 3022354950 heartbeat IPC: 0.753859 cumulative IPC: 0.49884 (Simulation time: 15 hr 27 min 49 sec) 

Region of Interest Statistics
cpu0_DTLB TOTAL     ACCESS:  244705217  HIT:  244137784  MISS:     567433
cpu0_DTLB LOAD      ACCESS:  228073941  HIT:  227542944  MISS:     530997
cpu0_DTLB RFO       ACCESS:   16631276  HIT:   16594840  MISS:      36436
cpu0_DTLB PREFETCH  ACCESS:          0  HIT:          0  MISS:          0
cpu0_DTLB WRITEBACK ACCESS:          0  HIT:          0  MISS:          0
cpu0_ITLB TOTAL     ACCESS:  100067335  HIT:  100067335  MISS:          0
cpu0_ITLB LOAD      ACCESS:  100067335  HIT:  100067335  MISS:          0
cpu0_ITLB RFO       ACCESS:          0  HIT:          0  MISS:          0
cpu0_ITLB PREFETCH  ACCESS:          0  HIT:          0  MISS:          0
cpu0_ITLB WRITEBACK ACCESS:          0  HIT:          0  MISS:          0
cpu0_L1I TOTAL     ACCESS:         75  HIT:         42  MISS:         33
cpu0_L1I LOAD      ACCESS:         75  HIT:         42  MISS:         33
cpu0_L1I RFO       ACCESS:          0  HIT:          0  MISS:          0
cpu0_L1I PREFETCH  ACCESS:          0  HIT:          0  MISS:          0
cpu0_L1I WRITEBACK ACCESS:          0  HIT:          0  MISS:          0
cpu0_STLB TOTAL     ACCESS:     567433  HIT:          0  MISS:     567433
cpu0_STLB LOAD      ACCESS:     530997  HIT:          0  MISS:     530997
cpu0_STLB RFO       ACCESS:      36436  HIT:          0  MISS:      36436
cpu0_STLB PREFETCH  ACCESS:          0  HIT:          0  MISS:          0
cpu0_STLB WRITEBACK ACCESS:          0  HIT:          0  MISS:          0
cpu0_L1D TOTAL     ACCESS:  160532257  HIT:  124224556  MISS:   36307701
cpu0_L1D LOAD      ACCESS:  133511188  HIT:   97204027  MISS:   36307161
cpu0_L1D RFO       ACCESS:   26453636  HIT:   26453373  MISS:        263
cpu0_L1D PREFETCH  ACCESS:          0  HIT:          0  MISS:          0
cpu0_L1D WRITEBACK ACCESS:          0  HIT:          0  MISS:          0
cpu0_L2C TOTAL     ACCESS:   47631177  HIT:   11323443  MISS:   36307734
cpu0_L2C LOAD      ACCESS:   36307194  HIT:          0  MISS:   36307194
cpu0_L2C RFO       ACCESS:        263  HIT:          0  MISS:        263
cpu0_L2C PREFETCH  ACCESS:          0  HIT:          0  MISS:          0
cpu0_L2C WRITEBACK ACCESS:   11323443  HIT:   11323443  MISS:          0
LLC TOTAL     ACCESS:   47637518  HIT:    1391790  MISS:   46245728
LLC LOAD      ACCESS:   36307194  HIT:    1059521  MISS:   35247673
LLC RFO       ACCESS:        263  HIT:          0  MISS:        263
LLC PREFETCH  ACCESS:          0  HIT:          0  MISS:          0
LLC WRITEBACK ACCESS:   11329784  HIT:     332269  MISS:   10997515
Finished CPU 0 instructions: 1500000000 cycles: 3006973414 cumulative IPC: 0.49884 (Simulation time: 15 hr 27 min 49 sec) 

ChampSim completed all CPUs

Region of Interest Statistics

CPU 0 cumulative IPC: 0.49884 instructions: 1500000000 cycles: 3006973414
cpu0_DTLB TOTAL     ACCESS:  244705217  HIT:  244137784  MISS:     567433
cpu0_DTLB LOAD      ACCESS:  228073941  HIT:  227542944  MISS:     530997
cpu0_DTLB RFO       ACCESS:   16631276  HIT:   16594840  MISS:      36436
cpu0_DTLB PREFETCH  ACCESS:          0  HIT:          0  MISS:          0
cpu0_DTLB WRITEBACK ACCESS:          0  HIT:          0  MISS:          0
cpu0_DTLB TRANSLATION ACCESS:          0  HIT:          0  MISS:          0
cpu0_DTLB PREFETCH  REQUESTED:          0  ISSUED:          0  USEFUL:          0  USELESS:          0
cpu0_DTLB AVERAGE MISS LATENCY: 17.1765 cycles
cpu0_ITLB TOTAL     ACCESS:  100067335  HIT:  100067335  MISS:          0
cpu0_ITLB LOAD      ACCESS:  100067335  HIT:  100067335  MISS:          0
cpu0_ITLB RFO       ACCESS:          0  HIT:          0  MISS:          0
cpu0_ITLB PREFETCH  ACCESS:          0  HIT:          0  MISS:          0
cpu0_ITLB WRITEBACK ACCESS:          0  HIT:          0  MISS:          0
cpu0_ITLB TRANSLATION ACCESS:          0  HIT:          0  MISS:          0
cpu0_ITLB PREFETCH  REQUESTED:          0  ISSUED:          0  USEFUL:          0  USELESS:          0
cpu0_ITLB AVERAGE MISS LATENCY: -nan cycles
cpu0_L1I TOTAL     ACCESS:         75  HIT:         42  MISS:         33
cpu0_L1I LOAD      ACCESS:         75  HIT:         42  MISS:         33
cpu0_L1I RFO       ACCESS:          0  HIT:          0  MISS:          0
cpu0_L1I PREFETCH  ACCESS:          0  HIT:          0  MISS:          0
cpu0_L1I WRITEBACK ACCESS:          0  HIT:          0  MISS:          0
cpu0_L1I TRANSLATION ACCESS:          0  HIT:          0  MISS:          0
cpu0_L1I PREFETCH  REQUESTED:          0  ISSUED:          0  USEFUL:          0  USELESS:          0
cpu0_L1I AVERAGE MISS LATENCY: 303.97 cycles
cpu0_STLB TOTAL     ACCESS:     567433  HIT:          0  MISS:     567433
cpu0_STLB LOAD      ACCESS:     530997  HIT:          0  MISS:     530997
cpu0_STLB RFO       ACCESS:      36436  HIT:          0  MISS:      36436
cpu0_STLB PREFETCH  ACCESS:          0  HIT:          0  MISS:          0
cpu0_STLB WRITEBACK ACCESS:          0  HIT:          0  MISS:          0
cpu0_STLB TRANSLATION ACCESS:          0  HIT:          0  MISS:          0
cpu0_STLB PREFETCH  REQUESTED:          0  ISSUED:          0  USEFUL:          0  USELESS:          0
cpu0_STLB AVERAGE MISS LATENCY: 8.17655 cycles
cpu0_L1D TOTAL     ACCESS:  160532257  HIT:  124224556  MISS:   36307701
cpu0_L1D LOAD      ACCESS:  133511188  HIT:   97204027  MISS:   36307161
cpu0_L1D RFO       ACCESS:   26453636  HIT:   26453373  MISS:        263
cpu0_L1D PREFETCH  ACCESS:          0  HIT:          0  MISS:          0
cpu0_L1D WRITEBACK ACCESS:          0  HIT:          0  MISS:          0
cpu0_L1D TRANSLATION ACCESS:     567433  HIT:     567156  MISS:        277
cpu0_L1D PREFETCH  REQUESTED:          0  ISSUED:          0  USEFUL:          0  USELESS:          0
cpu0_L1D AVERAGE MISS LATENCY: 244.962 cycles
cpu0_L2C TOTAL     ACCESS:   47631177  HIT:   11323443  MISS:   36307734
cpu0_L2C LOAD      ACCESS:   36307194  HIT:          0  MISS:   36307194
cpu0_L2C RFO       ACCESS:        263  HIT:          0  MISS:        263
cpu0_L2C PREFETCH  ACCESS:          0  HIT:          0  MISS:          0
cpu0_L2C WRITEBACK ACCESS:   11323443  HIT:   11323443  MISS:          0
cpu0_L2C TRANSLATION ACCESS:        277  HIT:          0  MISS:        277
cpu0_L2C PREFETCH  REQUESTED:          0  ISSUED:          0  USEFUL:          0  USELESS:          0
cpu0_L2C AVERAGE MISS LATENCY: 233.96 cycles
LLC TOTAL     ACCESS:   47637518  HIT:    1391790  MISS:   46245728
LLC LOAD      ACCESS:   36307194  HIT:    1059521  MISS:   35247673
LLC RFO       ACCESS:        263  HIT:          0  MISS:        263
LLC PREFETCH  ACCESS:          0  HIT:          0  MISS:          0
LLC WRITEBACK ACCESS:   11329784  HIT:     332269  MISS:   10997515
LLC TRANSLATION ACCESS:        277  HIT:          0  MISS:        277
LLC PREFETCH  REQUESTED:          0  ISSUED:          0  USEFUL:          0  USELESS:          0
LLC AVERAGE MISS LATENCY: 167.191 cycles
~~~~~~~~~~Reuse Distance Profiler output~~~~~~~~~~
0	60788272	50648496
1	45739472	32215856
2	16841168	14549152
3	2743824	2444640
4	2728288	2448592
5	1293552	1237328
6	920448	602144
7	418752	109520
8	409280	392256
9	235744	231616
10	15952	13664
11	153424	3600
12	154208	2160
13	8320	2208
14	4256	1328
15	3552	1024
16	4208	576
17	5840	976
18	4576	672
19	4224	480
20	4240	304
21	4880	400
22	4144	208
23	5296	240
24	9072	336
25	5248	160
26	5264	64
27	4656	80
28	3792	32
29	2944	64
30	31248	16
31	4208	0
32	26608	16
33	1040	112
34	688	16
35	656	16
36	26160	192
37	768	0
38	304	0
39	25936	0
40	272	0
41	496	0
42	544	0
43	640	0
44	336	0
45	544	0
46	496	0
47	480	0
48	192	0
49	288	0
50	576	0
51	688	0
52	240	0
53	128	0
54	544	0
55	272	0
56	160	0
57	320	0
58	272	0
59	160	0
60	0	0
61	112	0
62	144	0
63	64	0
64	64	0
66	144	0
68	64	0
70	0	0
72	48	0
74	16	0
76	0	0
78	32	16
80	16	0
82	16	0
84	0	0
86	0	0
88	0	0
90	0	0
92	0	0
94	0	0
96	0	0
98	0	0
100	0	0
102	0	0
104	0	0
106	0	0
108	0	0
110	0	0
112	0	0
114	0	0
116	0	0
118	0	0
120	0	0
122	0	0
124	0	0
126	0	0
128	0	0
132	0	0
136	0	0
140	0	0
144	0	0
148	0	0
152	0	0
156	0	0
160	0	0
164	0	0
168	0	0
172	0	0
176	0	0
180	0	0
184	0	0
188	0	0
192	0	0
196	0	0
200	0	0
204	0	0
208	0	0
212	0	0
216	0	0
220	0	0
224	0	0
228	0	0
232	0	0
236	0	0
240	0	0
244	0	0
248	0	0
252	0	0
256	0	0
264	0	0
272	0	0
280	0	0
288	0	0
296	0	0
304	0	0
312	0	0
320	0	0
328	0	0
336	0	0
344	0	0
352	0	0
360	0	0
368	0	0
376	0	0
384	0	0
392	0	0
400	0	0
408	0	0
416	0	0
424	0	0
432	0	0
440	0	0
448	0	0
456	0	0
464	0	0
472	0	0
480	0	0
488	0	0
496	0	0
504	0	0
512	0	0
528	0	0
544	0	0
560	0	0
576	0	0
592	0	0
608	0	0
624	0	0
640	0	0
656	0	0
672	0	0
688	0	0
704	0	0
720	0	0
736	0	0
752	0	0
768	0	0
784	0	0
800	0	0
816	0	0
832	0	0
848	0	0
864	0	0
880	0	0
896	0	0
912	0	0
928	0	0
944	0	0
960	0	0
976	0	0
992	0	0
1008	0	0
1024	0	0
1056	0	0
1088	0	0
1120	0	0
1152	0	0
1184	0	0
1216	0	0
1248	0	0
1280	0	0
1312	0	0
1344	0	0
1376	0	0
1408	0	0
1440	0	0
1472	0	0
1504	0	0
1536	0	0
1568	0	0
1600	0	0
1632	0	0
1664	0	0
1696	0	0
1728	0	0
1760	0	0
1792	0	0
1824	0	0
1856	0	0
1888	0	0
1920	0	0
1952	0	0
1984	0	0
2016	0	0
2048	0	0
2112	0	0
2176	0	0
2240	0	0
2304	0	0
2368	0	0
2432	0	0
2496	0	0
2560	0	0
2624	0	0
2688	0	0
2752	0	0
2816	0	0
2880	0	0
2944	0	0
3008	0	0
3072	0	0
3136	0	0
3200	0	0
3264	0	0
3328	0	0
3392	0	0
3456	0	0
3520	0	0
3584	0	0
3648	0	0
3712	0	0
3776	0	0
3840	0	0
3904	0	0
3968	0	0
4032	0	0
4096	0	0
4224	0	0
4352	0	0
4480	0	0
4608	0	0
4736	0	0
4864	0	0
4992	0	0
5120	0	0
5248	0	0
5376	0	0
5504	0	0
5632	0	0
5760	0	0
5888	0	0
6016	0	0
6144	0	0
6272	0	0
6400	0	0
6528	0	0
6656	0	0
6784	0	0
6912	0	0
7040	0	0
7168	0	0
7296	0	0
7424	0	0
7552	0	0
7680	0	0
7808	0	0
7936	0	0
8064	0	0
8192	0	0
8448	0	0
8704	0	0
8960	0	0
9216	0	0
9472	0	0
9728	0	0
9984	0	0
10240	0	0
10496	0	0
10752	0	0
11008	0	0
11264	0	0
11520	0	0
11776	0	0
12032	0	0
12288	0	0
12544	0	0
12800	0	0
13056	0	0
13312	0	0
13568	0	0
13824	0	0
14080	0	0
14336	0	0
14592	0	0
14848	0	0
15104	0	0
15360	0	0
15616	0	0
15872	0	0
16128	0	0
16384	0	0
16896	0	0
17408	0	0
17920	0	0
18432	0	0
18944	0	0
19456	0	0
19968	0	0
20480	0	0
20992	0	0
21504	0	0
22016	0	0
22528	0	0
23040	0	0
23552	0	0
24064	0	0
24576	0	0
25088	0	0
25600	0	0
26112	0	0
26624	0	0
27136	0	0
27648	0	0
28160	0	0
28672	0	0
29184	0	0
29696	0	0
30208	0	0
30720	0	0
31232	0	0
31744	0	0
32256	0	0
32768	0	0
33792	0	0
34816	0	0
35840	0	0
36864	0	0
37888	0	0
38912	0	0
39936	0	0
40960	0	0
41984	0	0
43008	0	0
44032	0	0
45056	0	0
46080	0	0
47104	0	0
48128	0	0
49152	0	0
50176	0	0
51200	0	0
52224	0	0
53248	0	0
54272	0	0
55296	0	0
56320	0	0
57344	0	0
58368	0	0
59392	0	0
60416	0	0
61440	0	0
62464	0	0
63488	0	0
64512	0	0
65536	0	0
67584	0	0
69632	0	0
71680	0	0
73728	0	0
75776	0	0
77824	0	0
79872	0	0
81920	0	0
83968	0	0
86016	0	0
88064	0	0
90112	0	0
92160	0	0
94208	0	0
96256	0	0
98304	0	0
100352	0	0
102400	0	0
104448	0	0
106496	0	0
108544	0	0
110592	0	0
112640	0	0
114688	0	0
116736	0	0
118784	0	0
120832	0	0
122880	0	0
124928	0	0
126976	0	0
129024	0	0
131072	0	0
135168	0	0
139264	0	0
143360	0	0
147456	0	0
151552	0	0
155648	0	0
159744	0	0
163840	0	0
167936	0	0
172032	0	0
176128	0	0
180224	0	0
184320	0	0
188416	0	0
192512	0	0
196608	0	0
200704	0	0
204800	0	0
208896	0	0
212992	0	0
217088	0	0
221184	0	0
225280	0	0
229376	0	0
233472	0	0
237568	0	0
241664	0	0
245760	0	0
249856	0	0
253952	0	0
258048	0	0
262144	0	0
270336	0	0
278528	0	0
286720	0	0
294912	0	0
303104	0	0
311296	0	0
319488	0	0
327680	0	0
335872	0	0
344064	0	0
352256	0	0
360448	0	0
368640	0	0
376832	0	0
385024	0	0
393216	0	0
401408	0	0
409600	0	0
417792	0	0
425984	0	0
434176	0	0
442368	0	0
450560	0	0
458752	0	0
466944	0	0
475136	0	0
483328	0	0
491520	0	0
499712	0	0
507904	0	0
516096	0	0
524288	0	0
540672	0	0
557056	0	0
573440	0	0
589824	0	0
606208	0	0
622592	0	0
638976	0	0
655360	0	0
671744	0	0
688128	0	0
704512	0	0
720896	0	0
737280	0	0
753664	0	0
770048	0	0
786432	0	0
802816	0	0
819200	0	0
835584	0	0
851968	0	0
868352	0	0
884736	0	0
901120	0	0
917504	0	0
933888	0	0
950272	0	0
966656	0	0
983040	0	0
999424	0	0
1015808	0	0
1032192	0	0
1048576	0	0
1081344	0	0
1114112	0	0
1146880	0	0
1179648	0	0
1212416	0	0
1245184	0	0
1277952	0	0
1310720	0	0
1343488	0	0
1376256	0	0
1409024	0	0
1441792	0	0
1474560	0	0
1507328	0	0
1540096	0	0
1572864	0	0
1605632	0	0
1638400	0	0
1671168	0	0
1703936	0	0
1736704	0	0
1769472	0	0
1802240	0	0
1835008	0	0
1867776	286960	286944
1900544	799440	799408
1933312	1147056	1147056
1966080	1843648	1843632
1998848	2417440	2417440
2031616	2857808	2857808
2064384	5093808	5093776
2097152	6501440	6501440
2162688	2834672	2834544
2228224	1337408	1337376
2293760	1094480	1094480
2359296	1049888	1049888
2424832	1008688	1008688
2490368	850208	850192
2555904	612896	612896
2621440	519296	519296
2686976	461472	461472
2752512	385328	385328
2818048	383328	383328
2883584	383424	383424
2949120	385024	385024
3014656	383600	383600
3080192	373424	373424
3145728	374304	374304
3211264	374352	374352
3276800	368224	368224
3342336	371760	371760
3407872	369264	369264
3473408	373456	373456
3538944	377872	377872
3604480	231728	231696
3670016	9328	9328
3735552	9360	9360
3801088	9392	9392
3866624	513216	513200
3932160	83184	83168
3997696	28384	28384
4063232	27904	27904
4128768	28048	28048
4194304	55760	55760
4325376	63760	63760
4456448	277376	277376
4587520	89648	89648
4718592	0	0
4849664	0	0
4980736	0	0
5111808	0	0
5242880	0	0
5373952	0	0
5505024	0	0
5636096	0	0
5767168	0	0
5898240	0	0
6029312	0	0
6160384	0	0
6291456	0	0
6422528	0	0
6553600	0	0
6684672	0	0
6815744	0	0
6946816	0	0
7077888	0	0
7208960	0	0
7340032	0	0
7471104	0	0
7602176	0	0
7733248	0	0
7864320	0	0
7995392	0	0
8126464	0	0
8257536	0	0
8388608	0	0
8650752	0	0
8912896	0	0
9175040	0	0
9437184	0	0
9699328	0	0
9961472	0	0
10223616	0	0
10485760	0	0
10747904	0	0
11010048	0	0
11272192	0	0
11534336	0	0
11796480	0	0
12058624	0	0
12320768	0	0
12582912	0	0
12845056	16	16
13107200	0	0
13369344	0	0
13631488	0	0
13893632	0	0
14155776	0	0
14417920	0	0
14680064	0	0
14942208	0	0
15204352	0	0
15466496	0	0
15728640	0	0
15990784	0	0
16252928	0	0
16515072	0	0
16777216	0	0
17301504	0	0
17825792	0	0
18350080	0	0
18874368	0	0
19398656	0	0
19922944	0	0
20447232	0	0
20971520	0	0
21495808	0	0
22020096	0	0
22544384	0	0
23068672	0	0
23592960	0	0
24117248	0	0
24641536	0	0
25165824	0	0
25690112	0	0
26214400	0	0
26738688	0	0
27262976	0	0
27787264	0	0
28311552	0	0
28835840	0	0
29360128	0	0
29884416	0	0
30408704	0	0
30932992	0	0
31457280	0	0
31981568	0	0
32505856	0	0
33030144	0	0
33554432	0	0
34603008	0	0
35651584	0	0
36700160	0	0
37748736	0	0
38797312	0	0
39845888	0	0
40894464	0	0
41943040	0	0
42991616	0	0
44040192	0	0
45088768	0	0
46137344	0	0
47185920	0	0
48234496	0	0
49283072	0	0
50331648	0	0
51380224	0	0
52428800	0	0
53477376	0	0
54525952	0	0
55574528	0	0
56623104	0	0
57671680	0	0
58720256	0	0
59768832	0	0
60817408	0	0
61865984	0	0
62914560	0	0
63963136	0	0
65011712	0	0
66060288	0	0
67108864	0	0
69206016	0	0
71303168	0	0
73400320	0	0
75497472	0	0
77594624	0	0
79691776	0	0
81788928	0	0
83886080	0	0
85983232	0	0
88080384	0	0
90177536	0	0
92274688	0	0
94371840	0	0
96468992	0	0
98566144	0	0
100663296	0	0
102760448	0	0
104857600	0	0
106954752	0	0
109051904	0	0
111149056	0	0
113246208	0	0
115343360	0	0
117440512	0	0
119537664	0	0
121634816	0	0
123731968	0	0
125829120	0	0
127926272	0	0
130023424	0	0
132120576	0	0
134217728	0	0
138412032	0	0
142606336	0	0
146800640	0	0
150994944	0	0
155189248	0	0
159383552	0	0
163577856	0	0
167772160	0	0
171966464	0	0
176160768	0	0
180355072	0	0
184549376	0	0
188743680	0	0
192937984	0	0
197132288	0	0
201326592	0	0
205520896	0	0
209715200	0	0
213909504	0	0
218103808	0	0
222298112	0	0
226492416	0	0
230686720	0	0
234881024	0	0
239075328	0	0
243269632	0	0
247463936	0	0
251658240	0	0
255852544	0	0
260046848	0	0
264241152	0	0
268435456	0	0
276824064	0	0
285212672	0	0
293601280	0	0
301989888	0	0
310378496	0	0
318767104	0	0
327155712	0	0
335544320	0	0
343932928	0	0
352321536	0	0
360710144	0	0
369098752	0	0
377487360	0	0
385875968	0	0
394264576	0	0
402653184	0	0
411041792	0	0
419430400	0	0
427819008	0	0
436207616	0	0
444596224	0	0
452984832	0	0
461373440	0	0
469762048	0	0
478150656	0	0
486539264	0	0
494927872	0	0
503316480	0	0
511705088	0	0
520093696	0	0
528482304	0	0
536870912	0	0
553648128	0	0
570425344	0	0
587202560	0	0
603979776	0	0
620756992	0	0
637534208	0	0
654311424	0	0
671088640	0	0
687865856	0	0
704643072	0	0
721420288	0	0
738197504	0	0
754974720	0	0
771751936	0	0
788529152	0	0
805306368	0	0
822083584	0	0
838860800	0	0
855638016	0	0
872415232	0	0
889192448	0	0
905969664	0	0
922746880	0	0
939524096	0	0
956301312	0	0
973078528	0	0
989855744	0	0
1006632960	0	0
1023410176	0	0
1040187392	0	0
1056964608	0	0
1073741824	0	0
1107296256	0	0
1140850688	0	0
1174405120	0	0
1207959552	0	0
1241513984	0	0
1275068416	0	0
1308622848	0	0
1342177280	0	0
1375731712	0	0
1409286144	0	0
1442840576	0	0
1476395008	0	0
1509949440	0	0
1543503872	0	0
1577058304	0	0
1610612736	0	0
1644167168	0	0
1677721600	0	0
1711276032	0	0
1744830464	0	0
1778384896	0	0
1811939328	0	0
1845493760	0	0
1879048192	0	0
1912602624	0	0
1946157056	0	0
1979711488	0	0
2013265920	0	0
2046820352	0	0
2080374784	0	0
2113929216	0	0
2147483648	0	0
2214592512	0	0
2281701376	0	0
2348810240	0	0
2415919104	0	0
2483027968	0	0
2550136832	0	0
2617245696	0	0
2684354560	0	0
2751463424	0	0
2818572288	0	0
2885681152	0	0
2952790016	0	0
3019898880	0	0
3087007744	0	0
3154116608	0	0
3221225472	0	0
3288334336	0	0
3355443200	0	0
3422552064	0	0
3489660928	0	0
3556769792	0	0
3623878656	0	0
3690987520	0	0
3758096384	0	0
3825205248	0	0
3892314112	0	0
3959422976	0	0
4026531840	0	0
4093640704	0	0
4160749568	0	0
4227858432	0	0
~~~~~~~~~~Reuse Distance Profiler output end~~~~~~~~~~

Sampler size:32671

DRAM Statistics
 CHANNEL 0
 RQ ROW_BUFFER_HIT:   14295334  ROW_BUFFER_MISS:   20952879
 DBUS AVG_CONGESTED_CYCLE:    3.91532
 WQ ROW_BUFFER_HIT:    2097882  ROW_BUFFER_MISS:    8899784  FULL:     454690


CPU 0 Branch Prediction Accuracy: 94.1732% MPKI: 10.6621 Average ROB Occupancy at Mispredict: 27.113
Branch type MPKI
BRANCH_DIRECT_JUMP: 6e-06
BRANCH_INDIRECT: 5.33333e-06
BRANCH_CONDITIONAL: 10.6621
BRANCH_DIRECT_CALL: 2.4e-05
BRANCH_INDIRECT_CALL: 0
BRANCH_RETURN: 2.33333e-05

