
*** ChampSim Multicore Out-of-Order Simulator ***

Warmup Instructions: 50000000
Simulation Instructions: 1500000000
Number of CPUs: 1
Off-chip DRAM Size: 4 GiB Channels: 1 Width: 64-bit Data Rate: 3200 MT/s

VirtualMemory physical capacity: 8588881920 num_ppages: 2096895
VirtualMemory page size: 4096 log2_page_size: 12

CPU 0 runs /s/traces/champsim_traces/464.h264ref-97B.champsimtrace.xz
CPU 0 Bimodal branch predictor
Basic BTB sets: 1024 ways: 8 indirect buffer size: 4096 RAS size: 64
Initializing LRU.
Initializing LRU.
Initializing LRU.
Initializing LRU.
Initializing rdLRU.
Initializing LRU.
Heartbeat CPU 0 instructions: 2000000 cycles: 914315 heartbeat IPC: 2.18743 cumulative IPC: 2.18743 (Simulation time: 0 hr 1 min 31 sec) 
Heartbeat CPU 0 instructions: 4000000 cycles: 1829012 heartbeat IPC: 2.18652 cumulative IPC: 2.18697 (Simulation time: 0 hr 3 min 7 sec) 
Heartbeat CPU 0 instructions: 6000000 cycles: 2744842 heartbeat IPC: 2.18381 cumulative IPC: 2.18592 (Simulation time: 0 hr 4 min 42 sec) 
Heartbeat CPU 0 instructions: 8000002 cycles: 3661563 heartbeat IPC: 2.18169 cumulative IPC: 2.18486 (Simulation time: 0 hr 6 min 15 sec) 
Heartbeat CPU 0 instructions: 10000003 cycles: 4643880 heartbeat IPC: 2.036 cumulative IPC: 2.15337 (Simulation time: 0 hr 7 min 58 sec) 
Heartbeat CPU 0 instructions: 12000001 cycles: 5157960 heartbeat IPC: 3.89044 cumulative IPC: 2.3265 (Simulation time: 0 hr 8 min 41 sec) 
Heartbeat CPU 0 instructions: 14000002 cycles: 5664823 heartbeat IPC: 3.94584 cumulative IPC: 2.47139 (Simulation time: 0 hr 9 min 20 sec) 
Heartbeat CPU 0 instructions: 16000001 cycles: 6175146 heartbeat IPC: 3.91908 cumulative IPC: 2.59103 (Simulation time: 0 hr 10 min 1 sec) 
Heartbeat CPU 0 instructions: 18000003 cycles: 6683419 heartbeat IPC: 3.9349 cumulative IPC: 2.69323 (Simulation time: 0 hr 10 min 40 sec) 
Heartbeat CPU 0 instructions: 20000002 cycles: 7192715 heartbeat IPC: 3.92699 cumulative IPC: 2.78059 (Simulation time: 0 hr 11 min 20 sec) 
Heartbeat CPU 0 instructions: 22000003 cycles: 7696252 heartbeat IPC: 3.9719 cumulative IPC: 2.85853 (Simulation time: 0 hr 11 min 58 sec) 
Heartbeat CPU 0 instructions: 24000003 cycles: 8203251 heartbeat IPC: 3.94478 cumulative IPC: 2.92567 (Simulation time: 0 hr 12 min 38 sec) 
Heartbeat CPU 0 instructions: 26000002 cycles: 8756915 heartbeat IPC: 3.6123 cumulative IPC: 2.96908 (Simulation time: 0 hr 13 min 24 sec) 
Heartbeat CPU 0 instructions: 28000004 cycles: 9459822 heartbeat IPC: 2.84533 cumulative IPC: 2.95989 (Simulation time: 0 hr 14 min 32 sec) 
Heartbeat CPU 0 instructions: 30000002 cycles: 10375247 heartbeat IPC: 2.18478 cumulative IPC: 2.8915 (Simulation time: 0 hr 16 min 2 sec) 
Heartbeat CPU 0 instructions: 32000001 cycles: 11291436 heartbeat IPC: 2.18295 cumulative IPC: 2.83401 (Simulation time: 0 hr 17 min 32 sec) 
Heartbeat CPU 0 instructions: 34000001 cycles: 12277461 heartbeat IPC: 2.02835 cumulative IPC: 2.7693 (Simulation time: 0 hr 19 min 6 sec) 
Heartbeat CPU 0 instructions: 36000000 cycles: 13197821 heartbeat IPC: 2.17306 cumulative IPC: 2.72772 (Simulation time: 0 hr 20 min 39 sec) 
Heartbeat CPU 0 instructions: 38000001 cycles: 14119046 heartbeat IPC: 2.17102 cumulative IPC: 2.6914 (Simulation time: 0 hr 22 min 12 sec) 
Heartbeat CPU 0 instructions: 40000001 cycles: 15040414 heartbeat IPC: 2.17069 cumulative IPC: 2.6595 (Simulation time: 0 hr 23 min 39 sec) 
Heartbeat CPU 0 instructions: 42000001 cycles: 15960721 heartbeat IPC: 2.17319 cumulative IPC: 2.63146 (Simulation time: 0 hr 25 min 8 sec) 
Heartbeat CPU 0 instructions: 44000000 cycles: 16882321 heartbeat IPC: 2.17014 cumulative IPC: 2.60628 (Simulation time: 0 hr 26 min 36 sec) 
Heartbeat CPU 0 instructions: 46000003 cycles: 17803286 heartbeat IPC: 2.17164 cumulative IPC: 2.58379 (Simulation time: 0 hr 28 min 1 sec) 
Heartbeat CPU 0 instructions: 48000004 cycles: 18765769 heartbeat IPC: 2.07796 cumulative IPC: 2.55785 (Simulation time: 0 hr 29 min 36 sec) 
Heartbeat CPU 0 instructions: 50000000 cycles: 19713419 heartbeat IPC: 2.11048 cumulative IPC: 2.53634 (Simulation time: 0 hr 31 min 7 sec) 

Warmup complete CPU 0 instructions: 50000003 cycles: 19713420 (Simulation time: 0 hr 31 min 7 sec) 

Heartbeat CPU 0 instructions: 52000000 cycles: 20701812 heartbeat IPC: 2.02349 cumulative IPC: 2.02349 (Simulation time: 0 hr 31 min 53 sec) 

Region of Interest Statistics
cpu0_DTLB TOTAL     ACCESS:     401357  HIT:     400514  MISS:        843
cpu0_DTLB LOAD      ACCESS:     284334  HIT:     283554  MISS:        780
cpu0_DTLB RFO       ACCESS:     117023  HIT:     116960  MISS:         63
cpu0_DTLB PREFETCH  ACCESS:          0  HIT:          0  MISS:          0
cpu0_DTLB WRITEBACK ACCESS:          0  HIT:          0  MISS:          0
cpu0_ITLB TOTAL     ACCESS:     175315  HIT:     175315  MISS:          0
cpu0_ITLB LOAD      ACCESS:     175315  HIT:     175315  MISS:          0
cpu0_ITLB RFO       ACCESS:          0  HIT:          0  MISS:          0
cpu0_ITLB PREFETCH  ACCESS:          0  HIT:          0  MISS:          0
cpu0_ITLB WRITEBACK ACCESS:          0  HIT:          0  MISS:          0
cpu0_L1I TOTAL     ACCESS:     123398  HIT:     123341  MISS:         57
cpu0_L1I LOAD      ACCESS:     123398  HIT:     123341  MISS:         57
cpu0_L1I RFO       ACCESS:          0  HIT:          0  MISS:          0
cpu0_L1I PREFETCH  ACCESS:          0  HIT:          0  MISS:          0
cpu0_L1I WRITEBACK ACCESS:          0  HIT:          0  MISS:          0
cpu0_STLB TOTAL     ACCESS:        843  HIT:        837  MISS:          6
cpu0_STLB LOAD      ACCESS:        780  HIT:        775  MISS:          5
cpu0_STLB RFO       ACCESS:         63  HIT:         62  MISS:          1
cpu0_STLB PREFETCH  ACCESS:          0  HIT:          0  MISS:          0
cpu0_STLB WRITEBACK ACCESS:          0  HIT:          0  MISS:          0
cpu0_L1D TOTAL     ACCESS:     406112  HIT:     396958  MISS:       9154
cpu0_L1D LOAD      ACCESS:     228396  HIT:     221325  MISS:       7071
cpu0_L1D RFO       ACCESS:     177710  HIT:     175630  MISS:       2080
cpu0_L1D PREFETCH  ACCESS:          0  HIT:          0  MISS:          0
cpu0_L1D WRITEBACK ACCESS:          0  HIT:          0  MISS:          0
cpu0_L2C TOTAL     ACCESS:      11821  HIT:       6609  MISS:       5212
cpu0_L2C LOAD      ACCESS:       7128  HIT:       3914  MISS:       3214
cpu0_L2C RFO       ACCESS:       2080  HIT:         82  MISS:       1998
cpu0_L2C PREFETCH  ACCESS:          0  HIT:          0  MISS:          0
cpu0_L2C WRITEBACK ACCESS:       2610  HIT:       2610  MISS:          0
LLC TOTAL     ACCESS:       9983  HIT:       4106  MISS:       5877
LLC LOAD      ACCESS:       3214  HIT:       2277  MISS:        937
LLC RFO       ACCESS:       1998  HIT:         70  MISS:       1928
LLC PREFETCH  ACCESS:          0  HIT:          0  MISS:          0
LLC WRITEBACK ACCESS:       4771  HIT:       1759  MISS:       3012
Heartbeat CPU 0 instructions: 54000001 cycles: 21694504 heartbeat IPC: 2.01472 cumulative IPC: 2.0191 (Simulation time: 0 hr 32 min 39 sec) 

Region of Interest Statistics
cpu0_DTLB TOTAL     ACCESS:     801915  HIT:     799854  MISS:       2061
cpu0_DTLB LOAD      ACCESS:     560296  HIT:     558328  MISS:       1968
cpu0_DTLB RFO       ACCESS:     241619  HIT:     241526  MISS:         93
cpu0_DTLB PREFETCH  ACCESS:          0  HIT:          0  MISS:          0
cpu0_DTLB WRITEBACK ACCESS:          0  HIT:          0  MISS:          0
cpu0_ITLB TOTAL     ACCESS:     350954  HIT:     350953  MISS:          1
cpu0_ITLB LOAD      ACCESS:     350954  HIT:     350953  MISS:          1
cpu0_ITLB RFO       ACCESS:          0  HIT:          0  MISS:          0
cpu0_ITLB PREFETCH  ACCESS:          0  HIT:          0  MISS:          0
cpu0_ITLB WRITEBACK ACCESS:          0  HIT:          0  MISS:          0
cpu0_L1I TOTAL     ACCESS:     271765  HIT:     271529  MISS:        236
cpu0_L1I LOAD      ACCESS:     271765  HIT:     271529  MISS:        236
cpu0_L1I RFO       ACCESS:          0  HIT:          0  MISS:          0
cpu0_L1I PREFETCH  ACCESS:          0  HIT:          0  MISS:          0
cpu0_L1I WRITEBACK ACCESS:          0  HIT:          0  MISS:          0
cpu0_STLB TOTAL     ACCESS:       2062  HIT:       2050  MISS:         12
cpu0_STLB LOAD      ACCESS:       1969  HIT:       1958  MISS:         11
cpu0_STLB RFO       ACCESS:         93  HIT:         92  MISS:          1
cpu0_STLB PREFETCH  ACCESS:          0  HIT:          0  MISS:          0
cpu0_STLB WRITEBACK ACCESS:          0  HIT:          0  MISS:          0
cpu0_L1D TOTAL     ACCESS:     833134  HIT:     817706  MISS:      15428
cpu0_L1D LOAD      ACCESS:     451933  HIT:     438943  MISS:      12990
cpu0_L1D RFO       ACCESS:     381190  HIT:     378758  MISS:       2432
cpu0_L1D PREFETCH  ACCESS:          0  HIT:          0  MISS:          0
cpu0_L1D WRITEBACK ACCESS:          0  HIT:          0  MISS:          0
cpu0_L2C TOTAL     ACCESS:      18553  HIT:      10685  MISS:       7868
cpu0_L2C LOAD      ACCESS:      13226  HIT:       7577  MISS:       5649
cpu0_L2C RFO       ACCESS:       2432  HIT:        215  MISS:       2217
cpu0_L2C PREFETCH  ACCESS:          0  HIT:          0  MISS:          0
cpu0_L2C WRITEBACK ACCESS:       2889  HIT:       2889  MISS:          0
LLC TOTAL     ACCESS:      14612  HIT:       6340  MISS:       8272
LLC LOAD      ACCESS:       5649  HIT:       3796  MISS:       1853
LLC RFO       ACCESS:       2217  HIT:         82  MISS:       2135
LLC PREFETCH  ACCESS:          0  HIT:          0  MISS:          0
LLC WRITEBACK ACCESS:       6744  HIT:       2462  MISS:       4282
Heartbeat CPU 0 instructions: 56000000 cycles: 23275527 heartbeat IPC: 1.265 cumulative IPC: 1.6844 (Simulation time: 0 hr 33 min 28 sec) 

Region of Interest Statistics
cpu0_DTLB TOTAL     ACCESS:    1204771  HIT:    1201780  MISS:       2991
cpu0_DTLB LOAD      ACCESS:     871462  HIT:     868585  MISS:       2877
cpu0_DTLB RFO       ACCESS:     333309  HIT:     333195  MISS:        114
cpu0_DTLB PREFETCH  ACCESS:          0  HIT:          0  MISS:          0
cpu0_DTLB WRITEBACK ACCESS:          0  HIT:          0  MISS:          0
cpu0_ITLB TOTAL     ACCESS:     541708  HIT:     541707  MISS:          1
cpu0_ITLB LOAD      ACCESS:     541708  HIT:     541707  MISS:          1
cpu0_ITLB RFO       ACCESS:          0  HIT:          0  MISS:          0
cpu0_ITLB PREFETCH  ACCESS:          0  HIT:          0  MISS:          0
cpu0_ITLB WRITEBACK ACCESS:          0  HIT:          0  MISS:          0
cpu0_L1I TOTAL     ACCESS:     389178  HIT:     388934  MISS:        244
cpu0_L1I LOAD      ACCESS:     389178  HIT:     388934  MISS:        244
cpu0_L1I RFO       ACCESS:          0  HIT:          0  MISS:          0
cpu0_L1I PREFETCH  ACCESS:          0  HIT:          0  MISS:          0
cpu0_L1I WRITEBACK ACCESS:          0  HIT:          0  MISS:          0
cpu0_STLB TOTAL     ACCESS:       2992  HIT:       2980  MISS:         12
cpu0_STLB LOAD      ACCESS:       2878  HIT:       2867  MISS:         11
cpu0_STLB RFO       ACCESS:        114  HIT:        113  MISS:          1
cpu0_STLB PREFETCH  ACCESS:          0  HIT:          0  MISS:          0
cpu0_STLB WRITEBACK ACCESS:          0  HIT:          0  MISS:          0
cpu0_L1D TOTAL     ACCESS:    1233514  HIT:    1210879  MISS:      22635
cpu0_L1D LOAD      ACCESS:     700131  HIT:     680182  MISS:      19949
cpu0_L1D RFO       ACCESS:     533372  HIT:     530692  MISS:       2680
cpu0_L1D PREFETCH  ACCESS:          0  HIT:          0  MISS:          0
cpu0_L1D WRITEBACK ACCESS:          0  HIT:          0  MISS:          0
cpu0_L2C TOTAL     ACCESS:      26091  HIT:      13584  MISS:      12507
cpu0_L2C LOAD      ACCESS:      20193  HIT:      10016  MISS:      10177
cpu0_L2C RFO       ACCESS:       2680  HIT:        352  MISS:       2328
cpu0_L2C PREFETCH  ACCESS:          0  HIT:          0  MISS:          0
cpu0_L2C WRITEBACK ACCESS:       3212  HIT:       3212  MISS:          0
LLC TOTAL     ACCESS:      21051  HIT:      10491  MISS:      10560
LLC LOAD      ACCESS:      10177  HIT:       6997  MISS:       3180
LLC RFO       ACCESS:       2328  HIT:         84  MISS:       2244
LLC PREFETCH  ACCESS:          0  HIT:          0  MISS:          0
LLC WRITEBACK ACCESS:       8544  HIT:       3410  MISS:       5134
Heartbeat CPU 0 instructions: 58000002 cycles: 24758506 heartbeat IPC: 1.34864 cumulative IPC: 1.5857 (Simulation time: 0 hr 34 min 20 sec) 

Region of Interest Statistics
cpu0_DTLB TOTAL     ACCESS:    1606033  HIT:    1601908  MISS:       4125
cpu0_DTLB LOAD      ACCESS:    1174835  HIT:    1170851  MISS:       3984
cpu0_DTLB RFO       ACCESS:     431198  HIT:     431057  MISS:        141
cpu0_DTLB PREFETCH  ACCESS:          0  HIT:          0  MISS:          0
cpu0_DTLB WRITEBACK ACCESS:          0  HIT:          0  MISS:          0
cpu0_ITLB TOTAL     ACCESS:     715303  HIT:     715302  MISS:          1
cpu0_ITLB LOAD      ACCESS:     715303  HIT:     715302  MISS:          1
cpu0_ITLB RFO       ACCESS:          0  HIT:          0  MISS:          0
cpu0_ITLB PREFETCH  ACCESS:          0  HIT:          0  MISS:          0
cpu0_ITLB WRITEBACK ACCESS:          0  HIT:          0  MISS:          0
cpu0_L1I TOTAL     ACCESS:     513146  HIT:     512883  MISS:        263
cpu0_L1I LOAD      ACCESS:     513146  HIT:     512883  MISS:        263
cpu0_L1I RFO       ACCESS:          0  HIT:          0  MISS:          0
cpu0_L1I PREFETCH  ACCESS:          0  HIT:          0  MISS:          0
cpu0_L1I WRITEBACK ACCESS:          0  HIT:          0  MISS:          0
cpu0_STLB TOTAL     ACCESS:       4126  HIT:       4108  MISS:         18
cpu0_STLB LOAD      ACCESS:       3985  HIT:       3968  MISS:         17
cpu0_STLB RFO       ACCESS:        141  HIT:        140  MISS:          1
cpu0_STLB PREFETCH  ACCESS:          0  HIT:          0  MISS:          0
cpu0_STLB WRITEBACK ACCESS:          0  HIT:          0  MISS:          0
cpu0_L1D TOTAL     ACCESS:    1635088  HIT:    1605181  MISS:      29907
cpu0_L1D LOAD      ACCESS:     940242  HIT:     913389  MISS:      26853
cpu0_L1D RFO       ACCESS:     694829  HIT:     691785  MISS:       3044
cpu0_L1D PREFETCH  ACCESS:          0  HIT:          0  MISS:          0
cpu0_L1D WRITEBACK ACCESS:          0  HIT:          0  MISS:          0
cpu0_L2C TOTAL     ACCESS:      33729  HIT:      16276  MISS:      17453
cpu0_L2C LOAD      ACCESS:      27116  HIT:      12179  MISS:      14937
cpu0_L2C RFO       ACCESS:       3044  HIT:        532  MISS:       2512
cpu0_L2C PREFETCH  ACCESS:          0  HIT:          0  MISS:          0
cpu0_L2C WRITEBACK ACCESS:       3559  HIT:       3558  MISS:          1
LLC TOTAL     ACCESS:      26633  HIT:      13330  MISS:      13303
LLC LOAD      ACCESS:      14937  HIT:       9347  MISS:       5590
LLC RFO       ACCESS:       2512  HIT:        119  MISS:       2393
LLC PREFETCH  ACCESS:          0  HIT:          0  MISS:          0
LLC WRITEBACK ACCESS:       9181  HIT:       3863  MISS:       5318
Heartbeat CPU 0 instructions: 60000000 cycles: 26327097 heartbeat IPC: 1.27503 cumulative IPC: 1.51202 (Simulation time: 0 hr 35 min 15 sec) 

Region of Interest Statistics
cpu0_DTLB TOTAL     ACCESS:    2008176  HIT:    2002764  MISS:       5412
cpu0_DTLB LOAD      ACCESS:    1484147  HIT:    1478901  MISS:       5246
cpu0_DTLB RFO       ACCESS:     524029  HIT:     523863  MISS:        166
cpu0_DTLB PREFETCH  ACCESS:          0  HIT:          0  MISS:          0
cpu0_DTLB WRITEBACK ACCESS:          0  HIT:          0  MISS:          0
cpu0_ITLB TOTAL     ACCESS:     883510  HIT:     883509  MISS:          1
cpu0_ITLB LOAD      ACCESS:     883510  HIT:     883509  MISS:          1
cpu0_ITLB RFO       ACCESS:          0  HIT:          0  MISS:          0
cpu0_ITLB PREFETCH  ACCESS:          0  HIT:          0  MISS:          0
cpu0_ITLB WRITEBACK ACCESS:          0  HIT:          0  MISS:          0
cpu0_L1I TOTAL     ACCESS:     619902  HIT:     619637  MISS:        265
cpu0_L1I LOAD      ACCESS:     619902  HIT:     619637  MISS:        265
cpu0_L1I RFO       ACCESS:          0  HIT:          0  MISS:          0
cpu0_L1I PREFETCH  ACCESS:          0  HIT:          0  MISS:          0
cpu0_L1I WRITEBACK ACCESS:          0  HIT:          0  MISS:          0
cpu0_STLB TOTAL     ACCESS:       5413  HIT:       5395  MISS:         18
cpu0_STLB LOAD      ACCESS:       5247  HIT:       5230  MISS:         17
cpu0_STLB RFO       ACCESS:        166  HIT:        165  MISS:          1
cpu0_STLB PREFETCH  ACCESS:          0  HIT:          0  MISS:          0
cpu0_STLB WRITEBACK ACCESS:          0  HIT:          0  MISS:          0
cpu0_L1D TOTAL     ACCESS:    2022799  HIT:    1984819  MISS:      37980
cpu0_L1D LOAD      ACCESS:    1175790  HIT:    1141222  MISS:      34568
cpu0_L1D RFO       ACCESS:     846992  HIT:     843590  MISS:       3402
cpu0_L1D PREFETCH  ACCESS:          0  HIT:          0  MISS:          0
cpu0_L1D WRITEBACK ACCESS:          0  HIT:          0  MISS:          0
cpu0_L2C TOTAL     ACCESS:      42155  HIT:      18751  MISS:      23404
cpu0_L2C LOAD      ACCESS:      34833  HIT:      14148  MISS:      20685
cpu0_L2C RFO       ACCESS:       3402  HIT:        690  MISS:       2712
cpu0_L2C PREFETCH  ACCESS:          0  HIT:          0  MISS:          0
cpu0_L2C WRITEBACK ACCESS:       3910  HIT:       3906  MISS:          4
LLC TOTAL     ACCESS:      32869  HIT:      15462  MISS:      17407
LLC LOAD      ACCESS:      20685  HIT:      11183  MISS:       9502
LLC RFO       ACCESS:       2712  HIT:        151  MISS:       2561
LLC PREFETCH  ACCESS:          0  HIT:          0  MISS:          0
LLC WRITEBACK ACCESS:       9469  HIT:       4127  MISS:       5342
Heartbeat CPU 0 instructions: 62000002 cycles: 27524883 heartbeat IPC: 1.66975 cumulative IPC: 1.5362 (Simulation time: 0 hr 36 min 9 sec) 

Region of Interest Statistics
cpu0_DTLB TOTAL     ACCESS:    2394448  HIT:    2387578  MISS:       6870
cpu0_DTLB LOAD      ACCESS:    1769699  HIT:    1763034  MISS:       6665
cpu0_DTLB RFO       ACCESS:     624749  HIT:     624544  MISS:        205
cpu0_DTLB PREFETCH  ACCESS:          0  HIT:          0  MISS:          0
cpu0_DTLB WRITEBACK ACCESS:          0  HIT:          0  MISS:          0
cpu0_ITLB TOTAL     ACCESS:    1043268  HIT:    1043267  MISS:          1
cpu0_ITLB LOAD      ACCESS:    1043268  HIT:    1043267  MISS:          1
cpu0_ITLB RFO       ACCESS:          0  HIT:          0  MISS:          0
cpu0_ITLB PREFETCH  ACCESS:          0  HIT:          0  MISS:          0
cpu0_ITLB WRITEBACK ACCESS:          0  HIT:          0  MISS:          0
cpu0_L1I TOTAL     ACCESS:     720760  HIT:     720490  MISS:        270
cpu0_L1I LOAD      ACCESS:     720760  HIT:     720490  MISS:        270
cpu0_L1I RFO       ACCESS:          0  HIT:          0  MISS:          0
cpu0_L1I PREFETCH  ACCESS:          0  HIT:          0  MISS:          0
cpu0_L1I WRITEBACK ACCESS:          0  HIT:          0  MISS:          0
cpu0_STLB TOTAL     ACCESS:       6871  HIT:       6850  MISS:         21
cpu0_STLB LOAD      ACCESS:       6666  HIT:       6646  MISS:         20
cpu0_STLB RFO       ACCESS:        205  HIT:        204  MISS:          1
cpu0_STLB PREFETCH  ACCESS:          0  HIT:          0  MISS:          0
cpu0_STLB WRITEBACK ACCESS:          0  HIT:          0  MISS:          0
cpu0_L1D TOTAL     ACCESS:    2382600  HIT:    2335788  MISS:      46812
cpu0_L1D LOAD      ACCESS:    1371674  HIT:    1328620  MISS:      43054
cpu0_L1D RFO       ACCESS:    1010906  HIT:    1007161  MISS:       3745
cpu0_L1D PREFETCH  ACCESS:          0  HIT:          0  MISS:          0
cpu0_L1D WRITEBACK ACCESS:          0  HIT:          0  MISS:          0
cpu0_L2C TOTAL     ACCESS:      51296  HIT:      21850  MISS:      29446
cpu0_L2C LOAD      ACCESS:      43324  HIT:      16754  MISS:      26570
cpu0_L2C RFO       ACCESS:       3745  HIT:        880  MISS:       2865
cpu0_L2C PREFETCH  ACCESS:          0  HIT:          0  MISS:          0
cpu0_L2C WRITEBACK ACCESS:       4214  HIT:       4207  MISS:          7
LLC TOTAL     ACCESS:      39066  HIT:      18228  MISS:      20838
LLC LOAD      ACCESS:      26570  HIT:      13775  MISS:      12795
LLC RFO       ACCESS:       2865  HIT:        178  MISS:       2687
LLC PREFETCH  ACCESS:          0  HIT:          0  MISS:          0
LLC WRITEBACK ACCESS:       9627  HIT:       4273  MISS:       5354
Heartbeat CPU 0 instructions: 64000002 cycles: 29296172 heartbeat IPC: 1.12912 cumulative IPC: 1.46096 (Simulation time: 0 hr 37 min 3 sec) 

Region of Interest Statistics
cpu0_DTLB TOTAL     ACCESS:    2806678  HIT:    2798402  MISS:       8276
cpu0_DTLB LOAD      ACCESS:    2090646  HIT:    2082618  MISS:       8028
cpu0_DTLB RFO       ACCESS:     716032  HIT:     715784  MISS:        248
cpu0_DTLB PREFETCH  ACCESS:          0  HIT:          0  MISS:          0
cpu0_DTLB WRITEBACK ACCESS:          0  HIT:          0  MISS:          0
cpu0_ITLB TOTAL     ACCESS:    1218297  HIT:    1218296  MISS:          1
cpu0_ITLB LOAD      ACCESS:    1218297  HIT:    1218296  MISS:          1
cpu0_ITLB RFO       ACCESS:          0  HIT:          0  MISS:          0
cpu0_ITLB PREFETCH  ACCESS:          0  HIT:          0  MISS:          0
cpu0_ITLB WRITEBACK ACCESS:          0  HIT:          0  MISS:          0
cpu0_L1I TOTAL     ACCESS:     811675  HIT:     811398  MISS:        277
cpu0_L1I LOAD      ACCESS:     811675  HIT:     811398  MISS:        277
cpu0_L1I RFO       ACCESS:          0  HIT:          0  MISS:          0
cpu0_L1I PREFETCH  ACCESS:          0  HIT:          0  MISS:          0
cpu0_L1I WRITEBACK ACCESS:          0  HIT:          0  MISS:          0
cpu0_STLB TOTAL     ACCESS:       8277  HIT:       8252  MISS:         25
cpu0_STLB LOAD      ACCESS:       8029  HIT:       8005  MISS:         24
cpu0_STLB RFO       ACCESS:        248  HIT:        247  MISS:          1
cpu0_STLB PREFETCH  ACCESS:          0  HIT:          0  MISS:          0
cpu0_STLB WRITEBACK ACCESS:          0  HIT:          0  MISS:          0
cpu0_L1D TOTAL     ACCESS:    2777233  HIT:    2722216  MISS:      55017
cpu0_L1D LOAD      ACCESS:    1618543  HIT:    1567654  MISS:      50889
cpu0_L1D RFO       ACCESS:    1158666  HIT:    1154554  MISS:       4112
cpu0_L1D PREFETCH  ACCESS:          0  HIT:          0  MISS:          0
cpu0_L1D WRITEBACK ACCESS:          0  HIT:          0  MISS:          0
cpu0_L2C TOTAL     ACCESS:      59869  HIT:      24924  MISS:      34945
cpu0_L2C LOAD      ACCESS:      51166  HIT:      19261  MISS:      31905
cpu0_L2C RFO       ACCESS:       4112  HIT:       1085  MISS:       3027
cpu0_L2C PREFETCH  ACCESS:          0  HIT:          0  MISS:          0
cpu0_L2C WRITEBACK ACCESS:       4575  HIT:       4567  MISS:          8
LLC TOTAL     ACCESS:      44664  HIT:      19002  MISS:      25662
LLC LOAD      ACCESS:      31905  HIT:      14436  MISS:      17469
LLC RFO       ACCESS:       3027  HIT:        202  MISS:       2825
LLC PREFETCH  ACCESS:          0  HIT:          0  MISS:          0
LLC WRITEBACK ACCESS:       9727  HIT:       4361  MISS:       5366
Heartbeat CPU 0 instructions: 66000001 cycles: 31177402 heartbeat IPC: 1.06313 cumulative IPC: 1.39568 (Simulation time: 0 hr 37 min 55 sec) 

Region of Interest Statistics
cpu0_DTLB TOTAL     ACCESS:    3305012  HIT:    3296058  MISS:       8954
cpu0_DTLB LOAD      ACCESS:    2470299  HIT:    2461658  MISS:       8641
cpu0_DTLB RFO       ACCESS:     834713  HIT:     834400  MISS:        313
cpu0_DTLB PREFETCH  ACCESS:          0  HIT:          0  MISS:          0
cpu0_DTLB WRITEBACK ACCESS:          0  HIT:          0  MISS:          0
cpu0_ITLB TOTAL     ACCESS:    1367731  HIT:    1367727  MISS:          4
cpu0_ITLB LOAD      ACCESS:    1367731  HIT:    1367727  MISS:          4
cpu0_ITLB RFO       ACCESS:          0  HIT:          0  MISS:          0
cpu0_ITLB PREFETCH  ACCESS:          0  HIT:          0  MISS:          0
cpu0_ITLB WRITEBACK ACCESS:          0  HIT:          0  MISS:          0
cpu0_L1I TOTAL     ACCESS:     911933  HIT:     910670  MISS:       1263
cpu0_L1I LOAD      ACCESS:     911933  HIT:     910670  MISS:       1263
cpu0_L1I RFO       ACCESS:          0  HIT:          0  MISS:          0
cpu0_L1I PREFETCH  ACCESS:          0  HIT:          0  MISS:          0
cpu0_L1I WRITEBACK ACCESS:          0  HIT:          0  MISS:          0
cpu0_STLB TOTAL     ACCESS:       8958  HIT:       8923  MISS:         35
cpu0_STLB LOAD      ACCESS:       8645  HIT:       8611  MISS:         34
cpu0_STLB RFO       ACCESS:        313  HIT:        312  MISS:          1
cpu0_STLB PREFETCH  ACCESS:          0  HIT:          0  MISS:          0
cpu0_STLB WRITEBACK ACCESS:          0  HIT:          0  MISS:          0
cpu0_L1D TOTAL     ACCESS:    3338970  HIT:    3280788  MISS:      58182
cpu0_L1D LOAD      ACCESS:    1987412  HIT:    1934237  MISS:      53175
cpu0_L1D RFO       ACCESS:    1351525  HIT:    1346538  MISS:       4987
cpu0_L1D PREFETCH  ACCESS:          0  HIT:          0  MISS:          0
cpu0_L1D WRITEBACK ACCESS:          0  HIT:          0  MISS:          0
cpu0_L2C TOTAL     ACCESS:      64642  HIT:      26802  MISS:      37840
cpu0_L2C LOAD      ACCESS:      54438  HIT:      20262  MISS:      34176
cpu0_L2C RFO       ACCESS:       4987  HIT:       1371  MISS:       3616
cpu0_L2C PREFETCH  ACCESS:          0  HIT:          0  MISS:          0
cpu0_L2C WRITEBACK ACCESS:       5197  HIT:       5157  MISS:         40
LLC TOTAL     ACCESS:      47593  HIT:      19629  MISS:      27964
LLC LOAD      ACCESS:      34176  HIT:      14843  MISS:      19333
LLC RFO       ACCESS:       3616  HIT:        360  MISS:       3256
LLC PREFETCH  ACCESS:          0  HIT:          0  MISS:          0
LLC WRITEBACK ACCESS:       9793  HIT:       4421  MISS:       5372
Heartbeat CPU 0 instructions: 68000002 cycles: 32776637 heartbeat IPC: 1.2506 cumulative IPC: 1.37791 (Simulation time: 0 hr 38 min 55 sec) 

Region of Interest Statistics
cpu0_DTLB TOTAL     ACCESS:    3805918  HIT:    3796830  MISS:       9088
cpu0_DTLB LOAD      ACCESS:    2875514  HIT:    2866780  MISS:       8734
cpu0_DTLB RFO       ACCESS:     930404  HIT:     930050  MISS:        354
cpu0_DTLB PREFETCH  ACCESS:          0  HIT:          0  MISS:          0
cpu0_DTLB WRITEBACK ACCESS:          0  HIT:          0  MISS:          0
cpu0_ITLB TOTAL     ACCESS:    1505451  HIT:    1505444  MISS:          7
cpu0_ITLB LOAD      ACCESS:    1505451  HIT:    1505444  MISS:          7
cpu0_ITLB RFO       ACCESS:          0  HIT:          0  MISS:          0
cpu0_ITLB PREFETCH  ACCESS:          0  HIT:          0  MISS:          0
cpu0_ITLB WRITEBACK ACCESS:          0  HIT:          0  MISS:          0
cpu0_L1I TOTAL     ACCESS:     996038  HIT:     994166  MISS:       1872
cpu0_L1I LOAD      ACCESS:     996038  HIT:     994166  MISS:       1872
cpu0_L1I RFO       ACCESS:          0  HIT:          0  MISS:          0
cpu0_L1I PREFETCH  ACCESS:          0  HIT:          0  MISS:          0
cpu0_L1I WRITEBACK ACCESS:          0  HIT:          0  MISS:          0
cpu0_STLB TOTAL     ACCESS:       9095  HIT:       9054  MISS:         41
cpu0_STLB LOAD      ACCESS:       8741  HIT:       8705  MISS:         36
cpu0_STLB RFO       ACCESS:        354  HIT:        349  MISS:          5
cpu0_STLB PREFETCH  ACCESS:          0  HIT:          0  MISS:          0
cpu0_STLB WRITEBACK ACCESS:          0  HIT:          0  MISS:          0
cpu0_L1D TOTAL     ACCESS:    3898841  HIT:    3839530  MISS:      59311
cpu0_L1D LOAD      ACCESS:    2387416  HIT:    2333839  MISS:      53577
cpu0_L1D RFO       ACCESS:    1511386  HIT:    1505674  MISS:       5712
cpu0_L1D PREFETCH  ACCESS:          0  HIT:          0  MISS:          0
cpu0_L1D WRITEBACK ACCESS:          0  HIT:          0  MISS:          0
cpu0_L2C TOTAL     ACCESS:      66984  HIT:      28105  MISS:      38879
cpu0_L2C LOAD      ACCESS:      55449  HIT:      20797  MISS:      34652
cpu0_L2C RFO       ACCESS:       5712  HIT:       1539  MISS:       4173
cpu0_L2C PREFETCH  ACCESS:          0  HIT:          0  MISS:          0
cpu0_L2C WRITEBACK ACCESS:       5801  HIT:       5755  MISS:         46
LLC TOTAL     ACCESS:      48638  HIT:      19912  MISS:      28726
LLC LOAD      ACCESS:      34652  HIT:      14900  MISS:      19752
LLC RFO       ACCESS:       4173  HIT:        574  MISS:       3599
LLC PREFETCH  ACCESS:          0  HIT:          0  MISS:          0
LLC WRITEBACK ACCESS:       9805  HIT:       4433  MISS:       5372
Heartbeat CPU 0 instructions: 70000002 cycles: 33959553 heartbeat IPC: 1.69074 cumulative IPC: 1.40389 (Simulation time: 0 hr 40 min 6 sec) 

Region of Interest Statistics
cpu0_DTLB TOTAL     ACCESS:    4268092  HIT:    4258871  MISS:       9221
cpu0_DTLB LOAD      ACCESS:    3287523  HIT:    3278713  MISS:       8810
cpu0_DTLB RFO       ACCESS:     980569  HIT:     980158  MISS:        411
cpu0_DTLB PREFETCH  ACCESS:          0  HIT:          0  MISS:          0
cpu0_DTLB WRITEBACK ACCESS:          0  HIT:          0  MISS:          0
cpu0_ITLB TOTAL     ACCESS:    1642768  HIT:    1642761  MISS:          7
cpu0_ITLB LOAD      ACCESS:    1642768  HIT:    1642761  MISS:          7
cpu0_ITLB RFO       ACCESS:          0  HIT:          0  MISS:          0
cpu0_ITLB PREFETCH  ACCESS:          0  HIT:          0  MISS:          0
cpu0_ITLB WRITEBACK ACCESS:          0  HIT:          0  MISS:          0
cpu0_L1I TOTAL     ACCESS:    1045124  HIT:    1043159  MISS:       1965
cpu0_L1I LOAD      ACCESS:    1045124  HIT:    1043159  MISS:       1965
cpu0_L1I RFO       ACCESS:          0  HIT:          0  MISS:          0
cpu0_L1I PREFETCH  ACCESS:          0  HIT:          0  MISS:          0
cpu0_L1I WRITEBACK ACCESS:          0  HIT:          0  MISS:          0
cpu0_STLB TOTAL     ACCESS:       9228  HIT:       9185  MISS:         43
cpu0_STLB LOAD      ACCESS:       8817  HIT:       8780  MISS:         37
cpu0_STLB RFO       ACCESS:        411  HIT:        405  MISS:          6
cpu0_STLB PREFETCH  ACCESS:          0  HIT:          0  MISS:          0
cpu0_STLB WRITEBACK ACCESS:          0  HIT:          0  MISS:          0
cpu0_L1D TOTAL     ACCESS:    4364485  HIT:    4299326  MISS:      65159
cpu0_L1D LOAD      ACCESS:    2777160  HIT:    2720445  MISS:      56715
cpu0_L1D RFO       ACCESS:    1587284  HIT:    1578864  MISS:       8420
cpu0_L1D PREFETCH  ACCESS:          0  HIT:          0  MISS:          0
cpu0_L1D WRITEBACK ACCESS:          0  HIT:          0  MISS:          0
cpu0_L2C TOTAL     ACCESS:      75768  HIT:      34027  MISS:      41741
cpu0_L2C LOAD      ACCESS:      58680  HIT:      23672  MISS:      35008
cpu0_L2C RFO       ACCESS:       8420  HIT:       1742  MISS:       6678
cpu0_L2C PREFETCH  ACCESS:          0  HIT:          0  MISS:          0
cpu0_L2C WRITEBACK ACCESS:       8644  HIT:       8597  MISS:         47
LLC TOTAL     ACCESS:      51679  HIT:      21021  MISS:      30658
LLC LOAD      ACCESS:      35008  HIT:      14988  MISS:      20020
LLC RFO       ACCESS:       6678  HIT:       1480  MISS:       5198
LLC PREFETCH  ACCESS:          0  HIT:          0  MISS:          0
LLC WRITEBACK ACCESS:       9985  HIT:       4548  MISS:       5437
Heartbeat CPU 0 instructions: 72000004 cycles: 35131402 heartbeat IPC: 1.70671 cumulative IPC: 1.42691 (Simulation time: 0 hr 41 min 19 sec) 

Region of Interest Statistics
cpu0_DTLB TOTAL     ACCESS:    4730803  HIT:    4721441  MISS:       9362
cpu0_DTLB LOAD      ACCESS:    3699796  HIT:    3690903  MISS:       8893
cpu0_DTLB RFO       ACCESS:    1031007  HIT:    1030538  MISS:        469
cpu0_DTLB PREFETCH  ACCESS:          0  HIT:          0  MISS:          0
cpu0_DTLB WRITEBACK ACCESS:          0  HIT:          0  MISS:          0
cpu0_ITLB TOTAL     ACCESS:    1779395  HIT:    1779388  MISS:          7
cpu0_ITLB LOAD      ACCESS:    1779395  HIT:    1779388  MISS:          7
cpu0_ITLB RFO       ACCESS:          0  HIT:          0  MISS:          0
cpu0_ITLB PREFETCH  ACCESS:          0  HIT:          0  MISS:          0
cpu0_ITLB WRITEBACK ACCESS:          0  HIT:          0  MISS:          0
cpu0_L1I TOTAL     ACCESS:    1094877  HIT:    1092911  MISS:       1966
cpu0_L1I LOAD      ACCESS:    1094877  HIT:    1092911  MISS:       1966
cpu0_L1I RFO       ACCESS:          0  HIT:          0  MISS:          0
cpu0_L1I PREFETCH  ACCESS:          0  HIT:          0  MISS:          0
cpu0_L1I WRITEBACK ACCESS:          0  HIT:          0  MISS:          0
cpu0_STLB TOTAL     ACCESS:       9369  HIT:       9324  MISS:         45
cpu0_STLB LOAD      ACCESS:       8900  HIT:       8863  MISS:         37
cpu0_STLB RFO       ACCESS:        469  HIT:        461  MISS:          8
cpu0_STLB PREFETCH  ACCESS:          0  HIT:          0  MISS:          0
cpu0_STLB WRITEBACK ACCESS:          0  HIT:          0  MISS:          0
cpu0_L1D TOTAL     ACCESS:    4831315  HIT:    4760296  MISS:      71019
cpu0_L1D LOAD      ACCESS:    3168123  HIT:    3108257  MISS:      59866
cpu0_L1D RFO       ACCESS:    1663149  HIT:    1652022  MISS:      11127
cpu0_L1D PREFETCH  ACCESS:          0  HIT:          0  MISS:          0
cpu0_L1D WRITEBACK ACCESS:          0  HIT:          0  MISS:          0
cpu0_L2C TOTAL     ACCESS:      84414  HIT:      39837  MISS:      44577
cpu0_L2C LOAD      ACCESS:      61832  HIT:      26587  MISS:      35245
cpu0_L2C RFO       ACCESS:      11127  HIT:       1850  MISS:       9277
cpu0_L2C PREFETCH  ACCESS:          0  HIT:          0  MISS:          0
cpu0_L2C WRITEBACK ACCESS:      11429  HIT:      11382  MISS:         47
LLC TOTAL     ACCESS:      55294  HIT:      22146  MISS:      33148
LLC LOAD      ACCESS:      35245  HIT:      15047  MISS:      20198
LLC RFO       ACCESS:       9277  HIT:       2209  MISS:       7068
LLC PREFETCH  ACCESS:          0  HIT:          0  MISS:          0
LLC WRITEBACK ACCESS:      10764  HIT:       4885  MISS:       5879
Heartbeat CPU 0 instructions: 74000000 cycles: 36315287 heartbeat IPC: 1.68935 cumulative IPC: 1.44562 (Simulation time: 0 hr 42 min 29 sec) 

Region of Interest Statistics
cpu0_DTLB TOTAL     ACCESS:    5193371  HIT:    5183867  MISS:       9504
cpu0_DTLB LOAD      ACCESS:    4111918  HIT:    4102939  MISS:       8979
cpu0_DTLB RFO       ACCESS:    1081453  HIT:    1080928  MISS:        525
cpu0_DTLB PREFETCH  ACCESS:          0  HIT:          0  MISS:          0
cpu0_DTLB WRITEBACK ACCESS:          0  HIT:          0  MISS:          0
cpu0_ITLB TOTAL     ACCESS:    1915026  HIT:    1915019  MISS:          7
cpu0_ITLB LOAD      ACCESS:    1915026  HIT:    1915019  MISS:          7
cpu0_ITLB RFO       ACCESS:          0  HIT:          0  MISS:          0
cpu0_ITLB PREFETCH  ACCESS:          0  HIT:          0  MISS:          0
cpu0_ITLB WRITEBACK ACCESS:          0  HIT:          0  MISS:          0
cpu0_L1I TOTAL     ACCESS:    1145188  HIT:    1143222  MISS:       1966
cpu0_L1I LOAD      ACCESS:    1145188  HIT:    1143222  MISS:       1966
cpu0_L1I RFO       ACCESS:          0  HIT:          0  MISS:          0
cpu0_L1I PREFETCH  ACCESS:          0  HIT:          0  MISS:          0
cpu0_L1I WRITEBACK ACCESS:          0  HIT:          0  MISS:          0
cpu0_STLB TOTAL     ACCESS:       9511  HIT:       9465  MISS:         46
cpu0_STLB LOAD      ACCESS:       8986  HIT:       8949  MISS:         37
cpu0_STLB RFO       ACCESS:        525  HIT:        516  MISS:          9
cpu0_STLB PREFETCH  ACCESS:          0  HIT:          0  MISS:          0
cpu0_STLB WRITEBACK ACCESS:          0  HIT:          0  MISS:          0
cpu0_L1D TOTAL     ACCESS:    5299339  HIT:    5222400  MISS:      76939
cpu0_L1D LOAD      ACCESS:    3559975  HIT:    3496894  MISS:      63081
cpu0_L1D RFO       ACCESS:    1739320  HIT:    1725489  MISS:      13831
cpu0_L1D PREFETCH  ACCESS:          0  HIT:          0  MISS:          0
cpu0_L1D WRITEBACK ACCESS:          0  HIT:          0  MISS:          0
cpu0_L2C TOTAL     ACCESS:      93099  HIT:      45616  MISS:      47483
cpu0_L2C LOAD      ACCESS:      65047  HIT:      29523  MISS:      35524
cpu0_L2C RFO       ACCESS:      13831  HIT:       1927  MISS:      11904
cpu0_L2C PREFETCH  ACCESS:          0  HIT:          0  MISS:          0
cpu0_L2C WRITEBACK ACCESS:      14194  HIT:      14147  MISS:         47
LLC TOTAL     ACCESS:      59914  HIT:      23706  MISS:      36208
LLC LOAD      ACCESS:      35524  HIT:      15117  MISS:      20407
LLC RFO       ACCESS:      11904  HIT:       2928  MISS:       8976
LLC PREFETCH  ACCESS:          0  HIT:          0  MISS:          0
LLC WRITEBACK ACCESS:      12478  HIT:       5656  MISS:       6822
Heartbeat CPU 0 instructions: 76000003 cycles: 37542218 heartbeat IPC: 1.63009 cumulative IPC: 1.45831 (Simulation time: 0 hr 43 min 45 sec) 

Region of Interest Statistics
cpu0_DTLB TOTAL     ACCESS:    5666249  HIT:    5656711  MISS:       9538
cpu0_DTLB LOAD      ACCESS:    4540431  HIT:    4531447  MISS:       8984
cpu0_DTLB RFO       ACCESS:    1125818  HIT:    1125264  MISS:        554
cpu0_DTLB PREFETCH  ACCESS:          0  HIT:          0  MISS:          0
cpu0_DTLB WRITEBACK ACCESS:          0  HIT:          0  MISS:          0
cpu0_ITLB TOTAL     ACCESS:    2045482  HIT:    2045475  MISS:          7
cpu0_ITLB LOAD      ACCESS:    2045482  HIT:    2045475  MISS:          7
cpu0_ITLB RFO       ACCESS:          0  HIT:          0  MISS:          0
cpu0_ITLB PREFETCH  ACCESS:          0  HIT:          0  MISS:          0
cpu0_ITLB WRITEBACK ACCESS:          0  HIT:          0  MISS:          0
cpu0_L1I TOTAL     ACCESS:    1185262  HIT:    1183296  MISS:       1966
cpu0_L1I LOAD      ACCESS:    1185262  HIT:    1183296  MISS:       1966
cpu0_L1I RFO       ACCESS:          0  HIT:          0  MISS:          0
cpu0_L1I PREFETCH  ACCESS:          0  HIT:          0  MISS:          0
cpu0_L1I WRITEBACK ACCESS:          0  HIT:          0  MISS:          0
cpu0_STLB TOTAL     ACCESS:       9545  HIT:       9497  MISS:         48
cpu0_STLB LOAD      ACCESS:       8991  HIT:       8953  MISS:         38
cpu0_STLB RFO       ACCESS:        554  HIT:        544  MISS:         10
cpu0_STLB PREFETCH  ACCESS:          0  HIT:          0  MISS:          0
cpu0_STLB WRITEBACK ACCESS:          0  HIT:          0  MISS:          0
cpu0_L1D TOTAL     ACCESS:    5782374  HIT:    5700967  MISS:      81407
cpu0_L1D LOAD      ACCESS:    3972717  HIT:    3907324  MISS:      65393
cpu0_L1D RFO       ACCESS:    1809611  HIT:    1793626  MISS:      15985
cpu0_L1D PREFETCH  ACCESS:          0  HIT:          0  MISS:          0
cpu0_L1D WRITEBACK ACCESS:          0  HIT:          0  MISS:          0
cpu0_L2C TOTAL     ACCESS:      99852  HIT:      50157  MISS:      49695
cpu0_L2C LOAD      ACCESS:      67359  HIT:      31765  MISS:      35594
cpu0_L2C RFO       ACCESS:      15985  HIT:       1940  MISS:      14045
cpu0_L2C PREFETCH  ACCESS:          0  HIT:          0  MISS:          0
cpu0_L2C WRITEBACK ACCESS:      16479  HIT:      16432  MISS:         47
LLC TOTAL     ACCESS:      64032  HIT:      25256  MISS:      38776
LLC LOAD      ACCESS:      35594  HIT:      15129  MISS:      20465
LLC RFO       ACCESS:      14045  HIT:       3579  MISS:      10466
LLC PREFETCH  ACCESS:          0  HIT:          0  MISS:          0
LLC WRITEBACK ACCESS:      14384  HIT:       6542  MISS:       7842
Heartbeat CPU 0 instructions: 78000002 cycles: 38767002 heartbeat IPC: 1.63294 cumulative IPC: 1.46954 (Simulation time: 0 hr 45 min 20 sec) 

Region of Interest Statistics
cpu0_DTLB TOTAL     ACCESS:    6132790  HIT:    6123135  MISS:       9655
cpu0_DTLB LOAD      ACCESS:    4959374  HIT:    4950305  MISS:       9069
cpu0_DTLB RFO       ACCESS:    1173416  HIT:    1172830  MISS:        586
cpu0_DTLB PREFETCH  ACCESS:          0  HIT:          0  MISS:          0
cpu0_DTLB WRITEBACK ACCESS:          0  HIT:          0  MISS:          0
cpu0_ITLB TOTAL     ACCESS:    2180253  HIT:    2180246  MISS:          7
cpu0_ITLB LOAD      ACCESS:    2180253  HIT:    2180246  MISS:          7
cpu0_ITLB RFO       ACCESS:          0  HIT:          0  MISS:          0
cpu0_ITLB PREFETCH  ACCESS:          0  HIT:          0  MISS:          0
cpu0_ITLB WRITEBACK ACCESS:          0  HIT:          0  MISS:          0
cpu0_L1I TOTAL     ACCESS:    1237712  HIT:    1235746  MISS:       1966
cpu0_L1I LOAD      ACCESS:    1237712  HIT:    1235746  MISS:       1966
cpu0_L1I RFO       ACCESS:          0  HIT:          0  MISS:          0
cpu0_L1I PREFETCH  ACCESS:          0  HIT:          0  MISS:          0
cpu0_L1I WRITEBACK ACCESS:          0  HIT:          0  MISS:          0
cpu0_STLB TOTAL     ACCESS:       9662  HIT:       9612  MISS:         50
cpu0_STLB LOAD      ACCESS:       9076  HIT:       9036  MISS:         40
cpu0_STLB RFO       ACCESS:        586  HIT:        576  MISS:         10
cpu0_STLB PREFETCH  ACCESS:          0  HIT:          0  MISS:          0
cpu0_STLB WRITEBACK ACCESS:          0  HIT:          0  MISS:          0
cpu0_L1D TOTAL     ACCESS:    6264986  HIT:    6180892  MISS:      84094
cpu0_L1D LOAD      ACCESS:    4376525  HIT:    4310084  MISS:      66441
cpu0_L1D RFO       ACCESS:    1888413  HIT:    1870790  MISS:      17623
cpu0_L1D PREFETCH  ACCESS:          0  HIT:          0  MISS:          0
cpu0_L1D WRITEBACK ACCESS:          0  HIT:          0  MISS:          0
cpu0_L2C TOTAL     ACCESS:     103866  HIT:      52253  MISS:      51613
cpu0_L2C LOAD      ACCESS:      68407  HIT:      32507  MISS:      35900
cpu0_L2C RFO       ACCESS:      17623  HIT:       1966  MISS:      15657
cpu0_L2C PREFETCH  ACCESS:          0  HIT:          0  MISS:          0
cpu0_L2C WRITEBACK ACCESS:      17806  HIT:      17759  MISS:         47
LLC TOTAL     ACCESS:      67586  HIT:      26478  MISS:      41108
LLC LOAD      ACCESS:      35900  HIT:      15194  MISS:      20706
LLC RFO       ACCESS:      15657  HIT:       4036  MISS:      11621
LLC PREFETCH  ACCESS:          0  HIT:          0  MISS:          0
LLC WRITEBACK ACCESS:      16020  HIT:       7242  MISS:       8778
Heartbeat CPU 0 instructions: 80000000 cycles: 39978460 heartbeat IPC: 1.6509 cumulative IPC: 1.48038 (Simulation time: 0 hr 46 min 53 sec) 

Region of Interest Statistics
cpu0_DTLB TOTAL     ACCESS:    6596500  HIT:    6586702  MISS:       9798
cpu0_DTLB LOAD      ACCESS:    5372025  HIT:    5362871  MISS:       9154
cpu0_DTLB RFO       ACCESS:    1224475  HIT:    1223831  MISS:        644
cpu0_DTLB PREFETCH  ACCESS:          0  HIT:          0  MISS:          0
cpu0_DTLB WRITEBACK ACCESS:          0  HIT:          0  MISS:          0
cpu0_ITLB TOTAL     ACCESS:    2317406  HIT:    2317399  MISS:          7
cpu0_ITLB LOAD      ACCESS:    2317406  HIT:    2317399  MISS:          7
cpu0_ITLB RFO       ACCESS:          0  HIT:          0  MISS:          0
cpu0_ITLB PREFETCH  ACCESS:          0  HIT:          0  MISS:          0
cpu0_ITLB WRITEBACK ACCESS:          0  HIT:          0  MISS:          0
cpu0_L1I TOTAL     ACCESS:    1281001  HIT:    1279034  MISS:       1967
cpu0_L1I LOAD      ACCESS:    1281001  HIT:    1279034  MISS:       1967
cpu0_L1I RFO       ACCESS:          0  HIT:          0  MISS:          0
cpu0_L1I PREFETCH  ACCESS:          0  HIT:          0  MISS:          0
cpu0_L1I WRITEBACK ACCESS:          0  HIT:          0  MISS:          0
cpu0_STLB TOTAL     ACCESS:       9805  HIT:       9755  MISS:         50
cpu0_STLB LOAD      ACCESS:       9161  HIT:       9121  MISS:         40
cpu0_STLB RFO       ACCESS:        644  HIT:        634  MISS:         10
cpu0_STLB PREFETCH  ACCESS:          0  HIT:          0  MISS:          0
cpu0_STLB WRITEBACK ACCESS:          0  HIT:          0  MISS:          0
cpu0_L1D TOTAL     ACCESS:    6729539  HIT:    6639548  MISS:      89991
cpu0_L1D LOAD      ACCESS:    4765206  HIT:    4695583  MISS:      69623
cpu0_L1D RFO       ACCESS:    1964285  HIT:    1943947  MISS:      20338
cpu0_L1D PREFETCH  ACCESS:          0  HIT:          0  MISS:          0
cpu0_L1D WRITEBACK ACCESS:          0  HIT:          0  MISS:          0
cpu0_L2C TOTAL     ACCESS:     112507  HIT:      57935  MISS:      54572
cpu0_L2C LOAD      ACCESS:      71590  HIT:      35406  MISS:      36184
cpu0_L2C RFO       ACCESS:      20338  HIT:       2006  MISS:      18332
cpu0_L2C PREFETCH  ACCESS:          0  HIT:          0  MISS:          0
cpu0_L2C WRITEBACK ACCESS:      20549  HIT:      20502  MISS:         47
LLC TOTAL     ACCESS:      73177  HIT:      28353  MISS:      44824
LLC LOAD      ACCESS:      36184  HIT:      15223  MISS:      20961
LLC RFO       ACCESS:      18332  HIT:       4786  MISS:      13546
LLC PREFETCH  ACCESS:          0  HIT:          0  MISS:          0
LLC WRITEBACK ACCESS:      18652  HIT:       8338  MISS:      10314
Heartbeat CPU 0 instructions: 82000001 cycles: 41185491 heartbeat IPC: 1.65696 cumulative IPC: 1.49031 (Simulation time: 0 hr 48 min 30 sec) 

Region of Interest Statistics
cpu0_DTLB TOTAL     ACCESS:    7061620  HIT:    7051679  MISS:       9941
cpu0_DTLB LOAD      ACCESS:    5786433  HIT:    5777193  MISS:       9240
cpu0_DTLB RFO       ACCESS:    1275187  HIT:    1274486  MISS:        701
cpu0_DTLB PREFETCH  ACCESS:          0  HIT:          0  MISS:          0
cpu0_DTLB WRITEBACK ACCESS:          0  HIT:          0  MISS:          0
cpu0_ITLB TOTAL     ACCESS:    2453539  HIT:    2453532  MISS:          7
cpu0_ITLB LOAD      ACCESS:    2453539  HIT:    2453532  MISS:          7
cpu0_ITLB RFO       ACCESS:          0  HIT:          0  MISS:          0
cpu0_ITLB PREFETCH  ACCESS:          0  HIT:          0  MISS:          0
cpu0_ITLB WRITEBACK ACCESS:          0  HIT:          0  MISS:          0
cpu0_L1I TOTAL     ACCESS:    1323918  HIT:    1321950  MISS:       1968
cpu0_L1I LOAD      ACCESS:    1323918  HIT:    1321950  MISS:       1968
cpu0_L1I RFO       ACCESS:          0  HIT:          0  MISS:          0
cpu0_L1I PREFETCH  ACCESS:          0  HIT:          0  MISS:          0
cpu0_L1I WRITEBACK ACCESS:          0  HIT:          0  MISS:          0
cpu0_STLB TOTAL     ACCESS:       9948  HIT:       9895  MISS:         53
cpu0_STLB LOAD      ACCESS:       9247  HIT:       9206  MISS:         41
cpu0_STLB RFO       ACCESS:        701  HIT:        689  MISS:         12
cpu0_STLB PREFETCH  ACCESS:          0  HIT:          0  MISS:          0
cpu0_STLB WRITEBACK ACCESS:          0  HIT:          0  MISS:          0
cpu0_L1D TOTAL     ACCESS:    7195385  HIT:    7099453  MISS:      95932
cpu0_L1D LOAD      ACCESS:    5155596  HIT:    5082758  MISS:      72838
cpu0_L1D RFO       ACCESS:    2039738  HIT:    2016677  MISS:      23061
cpu0_L1D PREFETCH  ACCESS:          0  HIT:          0  MISS:          0
cpu0_L1D WRITEBACK ACCESS:          0  HIT:          0  MISS:          0
cpu0_L2C TOTAL     ACCESS:     121191  HIT:      63667  MISS:      57524
cpu0_L2C LOAD      ACCESS:      74806  HIT:      38354  MISS:      36452
cpu0_L2C RFO       ACCESS:      23061  HIT:       2046  MISS:      21015
cpu0_L2C PREFETCH  ACCESS:          0  HIT:          0  MISS:          0
cpu0_L2C WRITEBACK ACCESS:      23291  HIT:      23244  MISS:         47
LLC TOTAL     ACCESS:      78752  HIT:      30526  MISS:      48226
LLC LOAD      ACCESS:      36452  HIT:      15293  MISS:      21159
LLC RFO       ACCESS:      21015  HIT:       5560  MISS:      15455
LLC PREFETCH  ACCESS:          0  HIT:          0  MISS:          0
LLC WRITEBACK ACCESS:      21275  HIT:       9666  MISS:      11609
Heartbeat CPU 0 instructions: 84000004 cycles: 42395046 heartbeat IPC: 1.6535 cumulative IPC: 1.49901 (Simulation time: 0 hr 49 min 46 sec) 

Region of Interest Statistics
cpu0_DTLB TOTAL     ACCESS:    7525832  HIT:    7515746  MISS:      10086
cpu0_DTLB LOAD      ACCESS:    6200000  HIT:    6190674  MISS:       9326
cpu0_DTLB RFO       ACCESS:    1325832  HIT:    1325072  MISS:        760
cpu0_DTLB PREFETCH  ACCESS:          0  HIT:          0  MISS:          0
cpu0_DTLB WRITEBACK ACCESS:          0  HIT:          0  MISS:          0
cpu0_ITLB TOTAL     ACCESS:    2589016  HIT:    2589009  MISS:          7
cpu0_ITLB LOAD      ACCESS:    2589016  HIT:    2589009  MISS:          7
cpu0_ITLB RFO       ACCESS:          0  HIT:          0  MISS:          0
cpu0_ITLB PREFETCH  ACCESS:          0  HIT:          0  MISS:          0
cpu0_ITLB WRITEBACK ACCESS:          0  HIT:          0  MISS:          0
cpu0_L1I TOTAL     ACCESS:    1367458  HIT:    1365490  MISS:       1968
cpu0_L1I LOAD      ACCESS:    1367458  HIT:    1365490  MISS:       1968
cpu0_L1I RFO       ACCESS:          0  HIT:          0  MISS:          0
cpu0_L1I PREFETCH  ACCESS:          0  HIT:          0  MISS:          0
cpu0_L1I WRITEBACK ACCESS:          0  HIT:          0  MISS:          0
cpu0_STLB TOTAL     ACCESS:      10093  HIT:      10036  MISS:         57
cpu0_STLB LOAD      ACCESS:       9333  HIT:       9290  MISS:         43
cpu0_STLB RFO       ACCESS:        760  HIT:        746  MISS:         14
cpu0_STLB PREFETCH  ACCESS:          0  HIT:          0  MISS:          0
cpu0_STLB WRITEBACK ACCESS:          0  HIT:          0  MISS:          0
cpu0_L1D TOTAL     ACCESS:    7661480  HIT:    7559635  MISS:     101845
cpu0_L1D LOAD      ACCESS:    5546214  HIT:    5470191  MISS:      76023
cpu0_L1D RFO       ACCESS:    2115211  HIT:    2089426  MISS:      25785
cpu0_L1D PREFETCH  ACCESS:          0  HIT:          0  MISS:          0
cpu0_L1D WRITEBACK ACCESS:          0  HIT:          0  MISS:          0
cpu0_L2C TOTAL     ACCESS:     129893  HIT:      69417  MISS:      60476
cpu0_L2C LOAD      ACCESS:      77991  HIT:      41275  MISS:      36716
cpu0_L2C RFO       ACCESS:      25785  HIT:       2082  MISS:      23703
cpu0_L2C PREFETCH  ACCESS:          0  HIT:          0  MISS:          0
cpu0_L2C WRITEBACK ACCESS:      26080  HIT:      26033  MISS:         47
LLC TOTAL     ACCESS:      84411  HIT:      32550  MISS:      51861
LLC LOAD      ACCESS:      36716  HIT:      15364  MISS:      21352
LLC RFO       ACCESS:      23703  HIT:       6375  MISS:      17328
LLC PREFETCH  ACCESS:          0  HIT:          0  MISS:          0
LLC WRITEBACK ACCESS:      23982  HIT:      10804  MISS:      13178
Heartbeat CPU 0 instructions: 86000002 cycles: 43598473 heartbeat IPC: 1.66192 cumulative IPC: 1.50722 (Simulation time: 0 hr 51 min 0 sec) 

Region of Interest Statistics
cpu0_DTLB TOTAL     ACCESS:    7986436  HIT:    7976200  MISS:      10236
cpu0_DTLB LOAD      ACCESS:    6610271  HIT:    6600850  MISS:       9421
cpu0_DTLB RFO       ACCESS:    1376165  HIT:    1375350  MISS:        815
cpu0_DTLB PREFETCH  ACCESS:          0  HIT:          0  MISS:          0
cpu0_DTLB WRITEBACK ACCESS:          0  HIT:          0  MISS:          0
cpu0_ITLB TOTAL     ACCESS:    2724471  HIT:    2724464  MISS:          7
cpu0_ITLB LOAD      ACCESS:    2724471  HIT:    2724464  MISS:          7
cpu0_ITLB RFO       ACCESS:          0  HIT:          0  MISS:          0
cpu0_ITLB PREFETCH  ACCESS:          0  HIT:          0  MISS:          0
cpu0_ITLB WRITEBACK ACCESS:          0  HIT:          0  MISS:          0
cpu0_L1I TOTAL     ACCESS:    1417030  HIT:    1415062  MISS:       1968
cpu0_L1I LOAD      ACCESS:    1417030  HIT:    1415062  MISS:       1968
cpu0_L1I RFO       ACCESS:          0  HIT:          0  MISS:          0
cpu0_L1I PREFETCH  ACCESS:          0  HIT:          0  MISS:          0
cpu0_L1I WRITEBACK ACCESS:          0  HIT:          0  MISS:          0
cpu0_STLB TOTAL     ACCESS:      10243  HIT:      10183  MISS:         60
cpu0_STLB LOAD      ACCESS:       9428  HIT:       9383  MISS:         45
cpu0_STLB RFO       ACCESS:        815  HIT:        800  MISS:         15
cpu0_STLB PREFETCH  ACCESS:          0  HIT:          0  MISS:          0
cpu0_STLB WRITEBACK ACCESS:          0  HIT:          0  MISS:          0
cpu0_L1D TOTAL     ACCESS:    8125300  HIT:    8017584  MISS:     107716
cpu0_L1D LOAD      ACCESS:    5934058  HIT:    5854869  MISS:      79189
cpu0_L1D RFO       ACCESS:    2191184  HIT:    2162696  MISS:      28488
cpu0_L1D PREFETCH  ACCESS:          0  HIT:          0  MISS:          0
cpu0_L1D WRITEBACK ACCESS:          0  HIT:          0  MISS:          0
cpu0_L2C TOTAL     ACCESS:     138599  HIT:      75167  MISS:      63432
cpu0_L2C LOAD      ACCESS:      81157  HIT:      44148  MISS:      37009
cpu0_L2C RFO       ACCESS:      28488  HIT:       2122  MISS:      26366
cpu0_L2C PREFETCH  ACCESS:          0  HIT:          0  MISS:          0
cpu0_L2C WRITEBACK ACCESS:      28915  HIT:      28868  MISS:         47
LLC TOTAL     ACCESS:      90017  HIT:      34636  MISS:      55381
LLC LOAD      ACCESS:      37009  HIT:      15385  MISS:      21624
LLC RFO       ACCESS:      26366  HIT:       7228  MISS:      19138
LLC PREFETCH  ACCESS:          0  HIT:          0  MISS:          0
LLC WRITEBACK ACCESS:      26632  HIT:      12016  MISS:      14616
Heartbeat CPU 0 instructions: 88000002 cycles: 44803865 heartbeat IPC: 1.65921 cumulative IPC: 1.51452 (Simulation time: 0 hr 52 min 18 sec) 

Region of Interest Statistics
cpu0_DTLB TOTAL     ACCESS:    8446946  HIT:    8436556  MISS:      10390
cpu0_DTLB LOAD      ACCESS:    7020321  HIT:    7010806  MISS:       9515
cpu0_DTLB RFO       ACCESS:    1426625  HIT:    1425750  MISS:        875
cpu0_DTLB PREFETCH  ACCESS:          0  HIT:          0  MISS:          0
cpu0_DTLB WRITEBACK ACCESS:          0  HIT:          0  MISS:          0
cpu0_ITLB TOTAL     ACCESS:    2858768  HIT:    2858761  MISS:          7
cpu0_ITLB LOAD      ACCESS:    2858768  HIT:    2858761  MISS:          7
cpu0_ITLB RFO       ACCESS:          0  HIT:          0  MISS:          0
cpu0_ITLB PREFETCH  ACCESS:          0  HIT:          0  MISS:          0
cpu0_ITLB WRITEBACK ACCESS:          0  HIT:          0  MISS:          0
cpu0_L1I TOTAL     ACCESS:    1467638  HIT:    1465670  MISS:       1968
cpu0_L1I LOAD      ACCESS:    1467638  HIT:    1465670  MISS:       1968
cpu0_L1I RFO       ACCESS:          0  HIT:          0  MISS:          0
cpu0_L1I PREFETCH  ACCESS:          0  HIT:          0  MISS:          0
cpu0_L1I WRITEBACK ACCESS:          0  HIT:          0  MISS:          0
cpu0_STLB TOTAL     ACCESS:      10397  HIT:      10334  MISS:         63
cpu0_STLB LOAD      ACCESS:       9522  HIT:       9476  MISS:         46
cpu0_STLB RFO       ACCESS:        875  HIT:        858  MISS:         17
cpu0_STLB PREFETCH  ACCESS:          0  HIT:          0  MISS:          0
cpu0_STLB WRITEBACK ACCESS:          0  HIT:          0  MISS:          0
cpu0_L1D TOTAL     ACCESS:    8588872  HIT:    8475273  MISS:     113599
cpu0_L1D LOAD      ACCESS:    6321460  HIT:    6239093  MISS:      82367
cpu0_L1D RFO       ACCESS:    2267351  HIT:    2236161  MISS:      31190
cpu0_L1D PREFETCH  ACCESS:          0  HIT:          0  MISS:          0
cpu0_L1D WRITEBACK ACCESS:          0  HIT:          0  MISS:          0
cpu0_L2C TOTAL     ACCESS:     147274  HIT:      80922  MISS:      66352
cpu0_L2C LOAD      ACCESS:      84335  HIT:      47068  MISS:      37267
cpu0_L2C RFO       ACCESS:      31190  HIT:       2162  MISS:      29028
cpu0_L2C PREFETCH  ACCESS:          0  HIT:          0  MISS:          0
cpu0_L2C WRITEBACK ACCESS:      31707  HIT:      31660  MISS:         47
LLC TOTAL     ACCESS:      95612  HIT:      36656  MISS:      58956
LLC LOAD      ACCESS:      37267  HIT:      15391  MISS:      21876
LLC RFO       ACCESS:      29028  HIT:       8021  MISS:      21007
LLC PREFETCH  ACCESS:          0  HIT:          0  MISS:          0
LLC WRITEBACK ACCESS:      29307  HIT:      13237  MISS:      16070
Heartbeat CPU 0 instructions: 90000000 cycles: 46010291 heartbeat IPC: 1.65779 cumulative IPC: 1.52109 (Simulation time: 0 hr 53 min 33 sec) 

Region of Interest Statistics
cpu0_DTLB TOTAL     ACCESS:    8906692  HIT:    8896132  MISS:      10560
cpu0_DTLB LOAD      ACCESS:    7427066  HIT:    7417428  MISS:       9638
cpu0_DTLB RFO       ACCESS:    1479626  HIT:    1478704  MISS:        922
cpu0_DTLB PREFETCH  ACCESS:          0  HIT:          0  MISS:          0
cpu0_DTLB WRITEBACK ACCESS:          0  HIT:          0  MISS:          0
cpu0_ITLB TOTAL     ACCESS:    2996283  HIT:    2996276  MISS:          7
cpu0_ITLB LOAD      ACCESS:    2996283  HIT:    2996276  MISS:          7
cpu0_ITLB RFO       ACCESS:          0  HIT:          0  MISS:          0
cpu0_ITLB PREFETCH  ACCESS:          0  HIT:          0  MISS:          0
cpu0_ITLB WRITEBACK ACCESS:          0  HIT:          0  MISS:          0
cpu0_L1I TOTAL     ACCESS:    1516344  HIT:    1514347  MISS:       1997
cpu0_L1I LOAD      ACCESS:    1516344  HIT:    1514347  MISS:       1997
cpu0_L1I RFO       ACCESS:          0  HIT:          0  MISS:          0
cpu0_L1I PREFETCH  ACCESS:          0  HIT:          0  MISS:          0
cpu0_L1I WRITEBACK ACCESS:          0  HIT:          0  MISS:          0
cpu0_STLB TOTAL     ACCESS:      10567  HIT:      10502  MISS:         65
cpu0_STLB LOAD      ACCESS:       9645  HIT:       9598  MISS:         47
cpu0_STLB RFO       ACCESS:        922  HIT:        904  MISS:         18
cpu0_STLB PREFETCH  ACCESS:          0  HIT:          0  MISS:          0
cpu0_STLB WRITEBACK ACCESS:          0  HIT:          0  MISS:          0
cpu0_L1D TOTAL     ACCESS:    9049666  HIT:    8929987  MISS:     119679
cpu0_L1D LOAD      ACCESS:    6702776  HIT:    6617004  MISS:      85772
cpu0_L1D RFO       ACCESS:    2346827  HIT:    2312964  MISS:      33863
cpu0_L1D PREFETCH  ACCESS:          0  HIT:          0  MISS:          0
cpu0_L1D WRITEBACK ACCESS:          0  HIT:          0  MISS:          0
cpu0_L2C TOTAL     ACCESS:     156254  HIT:      86752  MISS:      69502
cpu0_L2C LOAD      ACCESS:      87769  HIT:      49995  MISS:      37774
cpu0_L2C RFO       ACCESS:      33863  HIT:       2192  MISS:      31671
cpu0_L2C PREFETCH  ACCESS:          0  HIT:          0  MISS:          0
cpu0_L2C WRITEBACK ACCESS:      34578  HIT:      34531  MISS:         47
LLC TOTAL     ACCESS:     101639  HIT:      39026  MISS:      62613
LLC LOAD      ACCESS:      37774  HIT:      15569  MISS:      22205
LLC RFO       ACCESS:      31671  HIT:       8753  MISS:      22918
LLC PREFETCH  ACCESS:          0  HIT:          0  MISS:          0
LLC WRITEBACK ACCESS:      32184  HIT:      14697  MISS:      17487
Heartbeat CPU 0 instructions: 92000001 cycles: 47022219 heartbeat IPC: 1.97643 cumulative IPC: 1.53797 (Simulation time: 0 hr 54 min 22 sec) 

Region of Interest Statistics
cpu0_DTLB TOTAL     ACCESS:    9300247  HIT:    9288719  MISS:      11528
cpu0_DTLB LOAD      ACCESS:    7698318  HIT:    7687733  MISS:      10585
cpu0_DTLB RFO       ACCESS:    1601929  HIT:    1600986  MISS:        943
cpu0_DTLB PREFETCH  ACCESS:          0  HIT:          0  MISS:          0
cpu0_DTLB WRITEBACK ACCESS:          0  HIT:          0  MISS:          0
cpu0_ITLB TOTAL     ACCESS:    3176304  HIT:    3176297  MISS:          7
cpu0_ITLB LOAD      ACCESS:    3176304  HIT:    3176297  MISS:          7
cpu0_ITLB RFO       ACCESS:          0  HIT:          0  MISS:          0
cpu0_ITLB PREFETCH  ACCESS:          0  HIT:          0  MISS:          0
cpu0_ITLB WRITEBACK ACCESS:          0  HIT:          0  MISS:          0
cpu0_L1I TOTAL     ACCESS:    1670769  HIT:    1668744  MISS:       2025
cpu0_L1I LOAD      ACCESS:    1670769  HIT:    1668744  MISS:       2025
cpu0_L1I RFO       ACCESS:          0  HIT:          0  MISS:          0
cpu0_L1I PREFETCH  ACCESS:          0  HIT:          0  MISS:          0
cpu0_L1I WRITEBACK ACCESS:          0  HIT:          0  MISS:          0
cpu0_STLB TOTAL     ACCESS:      11535  HIT:      11468  MISS:         67
cpu0_STLB LOAD      ACCESS:      10592  HIT:      10543  MISS:         49
cpu0_STLB RFO       ACCESS:        943  HIT:        925  MISS:         18
cpu0_STLB PREFETCH  ACCESS:          0  HIT:          0  MISS:          0
cpu0_STLB WRITEBACK ACCESS:          0  HIT:          0  MISS:          0
cpu0_L1D TOTAL     ACCESS:    9473359  HIT:    9348188  MISS:     125171
cpu0_L1D LOAD      ACCESS:    6926579  HIT:    6835585  MISS:      90994
cpu0_L1D RFO       ACCESS:    2546715  HIT:    2512583  MISS:      34132
cpu0_L1D PREFETCH  ACCESS:          0  HIT:          0  MISS:          0
cpu0_L1D WRITEBACK ACCESS:          0  HIT:          0  MISS:          0
cpu0_L2C TOTAL     ACCESS:     162186  HIT:      89021  MISS:      73165
cpu0_L2C LOAD      ACCESS:      93019  HIT:      51773  MISS:      41246
cpu0_L2C RFO       ACCESS:      34132  HIT:       2271  MISS:      31861
cpu0_L2C PREFETCH  ACCESS:          0  HIT:          0  MISS:          0
cpu0_L2C WRITEBACK ACCESS:      34990  HIT:      34942  MISS:         48
LLC TOTAL     ACCESS:     108681  HIT:      43154  MISS:      65527
LLC LOAD      ACCESS:      41246  HIT:      17938  MISS:      23308
LLC RFO       ACCESS:      31861  HIT:       8804  MISS:      23057
LLC PREFETCH  ACCESS:          0  HIT:          0  MISS:          0
LLC WRITEBACK ACCESS:      35564  HIT:      16405  MISS:      19159
Heartbeat CPU 0 instructions: 94000000 cycles: 48014386 heartbeat IPC: 2.01579 cumulative IPC: 1.55472 (Simulation time: 0 hr 55 min 7 sec) 

Region of Interest Statistics
cpu0_DTLB TOTAL     ACCESS:    9674343  HIT:    9661579  MISS:      12764
cpu0_DTLB LOAD      ACCESS:    7970506  HIT:    7958720  MISS:      11786
cpu0_DTLB RFO       ACCESS:    1703837  HIT:    1702859  MISS:        978
cpu0_DTLB PREFETCH  ACCESS:          0  HIT:          0  MISS:          0
cpu0_DTLB WRITEBACK ACCESS:          0  HIT:          0  MISS:          0
cpu0_ITLB TOTAL     ACCESS:    3333165  HIT:    3333157  MISS:          8
cpu0_ITLB LOAD      ACCESS:    3333165  HIT:    3333157  MISS:          8
cpu0_ITLB RFO       ACCESS:          0  HIT:          0  MISS:          0
cpu0_ITLB PREFETCH  ACCESS:          0  HIT:          0  MISS:          0
cpu0_ITLB WRITEBACK ACCESS:          0  HIT:          0  MISS:          0
cpu0_L1I TOTAL     ACCESS:    1843296  HIT:    1841080  MISS:       2216
cpu0_L1I LOAD      ACCESS:    1843296  HIT:    1841080  MISS:       2216
cpu0_L1I RFO       ACCESS:          0  HIT:          0  MISS:          0
cpu0_L1I PREFETCH  ACCESS:          0  HIT:          0  MISS:          0
cpu0_L1I WRITEBACK ACCESS:          0  HIT:          0  MISS:          0
cpu0_STLB TOTAL     ACCESS:      12772  HIT:      12703  MISS:         69
cpu0_STLB LOAD      ACCESS:      11794  HIT:      11743  MISS:         51
cpu0_STLB RFO       ACCESS:        978  HIT:        960  MISS:         18
cpu0_STLB PREFETCH  ACCESS:          0  HIT:          0  MISS:          0
cpu0_STLB WRITEBACK ACCESS:          0  HIT:          0  MISS:          0
cpu0_L1D TOTAL     ACCESS:    9863618  HIT:    9731339  MISS:     132279
cpu0_L1D LOAD      ACCESS:    7142243  HIT:    7044535  MISS:      97708
cpu0_L1D RFO       ACCESS:    2721308  HIT:    2686784  MISS:      34524
cpu0_L1D PREFETCH  ACCESS:          0  HIT:          0  MISS:          0
cpu0_L1D WRITEBACK ACCESS:          0  HIT:          0  MISS:          0
cpu0_L2C TOTAL     ACCESS:     169840  HIT:      92930  MISS:      76910
cpu0_L2C LOAD      ACCESS:      99924  HIT:      55169  MISS:      44755
cpu0_L2C RFO       ACCESS:      34524  HIT:       2432  MISS:      32092
cpu0_L2C PREFETCH  ACCESS:          0  HIT:          0  MISS:          0
cpu0_L2C WRITEBACK ACCESS:      35345  HIT:      35294  MISS:         51
LLC TOTAL     ACCESS:     114680  HIT:      46433  MISS:      68247
LLC LOAD      ACCESS:      44755  HIT:      20075  MISS:      24680
LLC RFO       ACCESS:      32092  HIT:       8830  MISS:      23262
LLC PREFETCH  ACCESS:          0  HIT:          0  MISS:          0
LLC WRITEBACK ACCESS:      37821  HIT:      17521  MISS:      20300
Heartbeat CPU 0 instructions: 96000000 cycles: 49117364 heartbeat IPC: 1.81327 cumulative IPC: 1.56442 (Simulation time: 0 hr 55 min 58 sec) 

Region of Interest Statistics
cpu0_DTLB TOTAL     ACCESS:   10047064  HIT:   10033192  MISS:      13872
cpu0_DTLB LOAD      ACCESS:    8253297  HIT:    8240434  MISS:      12863
cpu0_DTLB RFO       ACCESS:    1793767  HIT:    1792758  MISS:       1009
cpu0_DTLB PREFETCH  ACCESS:          0  HIT:          0  MISS:          0
cpu0_DTLB WRITEBACK ACCESS:          0  HIT:          0  MISS:          0
cpu0_ITLB TOTAL     ACCESS:    3485761  HIT:    3485753  MISS:          8
cpu0_ITLB LOAD      ACCESS:    3485761  HIT:    3485753  MISS:          8
cpu0_ITLB RFO       ACCESS:          0  HIT:          0  MISS:          0
cpu0_ITLB PREFETCH  ACCESS:          0  HIT:          0  MISS:          0
cpu0_ITLB WRITEBACK ACCESS:          0  HIT:          0  MISS:          0
cpu0_L1I TOTAL     ACCESS:    1985974  HIT:    1983697  MISS:       2277
cpu0_L1I LOAD      ACCESS:    1985974  HIT:    1983697  MISS:       2277
cpu0_L1I RFO       ACCESS:          0  HIT:          0  MISS:          0
cpu0_L1I PREFETCH  ACCESS:          0  HIT:          0  MISS:          0
cpu0_L1I WRITEBACK ACCESS:          0  HIT:          0  MISS:          0
cpu0_STLB TOTAL     ACCESS:      13880  HIT:      13809  MISS:         71
cpu0_STLB LOAD      ACCESS:      12871  HIT:      12819  MISS:         52
cpu0_STLB RFO       ACCESS:       1009  HIT:        990  MISS:         19
cpu0_STLB PREFETCH  ACCESS:          0  HIT:          0  MISS:          0
cpu0_STLB WRITEBACK ACCESS:          0  HIT:          0  MISS:          0
cpu0_L1D TOTAL     ACCESS:   10223424  HIT:   10083116  MISS:     140308
cpu0_L1D LOAD      ACCESS:    7347652  HIT:    7242296  MISS:     105356
cpu0_L1D RFO       ACCESS:    2875703  HIT:    2840800  MISS:      34903
cpu0_L1D PREFETCH  ACCESS:          0  HIT:          0  MISS:          0
cpu0_L1D WRITEBACK ACCESS:          0  HIT:          0  MISS:          0
cpu0_L2C TOTAL     ACCESS:     178221  HIT:      96001  MISS:      82220
cpu0_L2C LOAD      ACCESS:     107633  HIT:      57763  MISS:      49870
cpu0_L2C RFO       ACCESS:      34903  HIT:       2617  MISS:      32286
cpu0_L2C PREFETCH  ACCESS:          0  HIT:          0  MISS:          0
cpu0_L2C WRITEBACK ACCESS:      35636  HIT:      35584  MISS:         52
LLC TOTAL     ACCESS:     121219  HIT:      50353  MISS:      70866
LLC LOAD      ACCESS:      49870  HIT:      23173  MISS:      26697
LLC RFO       ACCESS:      32286  HIT:       8867  MISS:      23419
LLC PREFETCH  ACCESS:          0  HIT:          0  MISS:          0
LLC WRITEBACK ACCESS:      39051  HIT:      18306  MISS:      20745
Heartbeat CPU 0 instructions: 98000003 cycles: 50759406 heartbeat IPC: 1.218 cumulative IPC: 1.54609 (Simulation time: 0 hr 56 min 51 sec) 

Region of Interest Statistics
cpu0_DTLB TOTAL     ACCESS:   10443621  HIT:   10428586  MISS:      15035
cpu0_DTLB LOAD      ACCESS:    8565012  HIT:    8551006  MISS:      14006
cpu0_DTLB RFO       ACCESS:    1878609  HIT:    1877580  MISS:       1029
cpu0_DTLB PREFETCH  ACCESS:          0  HIT:          0  MISS:          0
cpu0_DTLB WRITEBACK ACCESS:          0  HIT:          0  MISS:          0
cpu0_ITLB TOTAL     ACCESS:    3651062  HIT:    3651054  MISS:          8
cpu0_ITLB LOAD      ACCESS:    3651062  HIT:    3651054  MISS:          8
cpu0_ITLB RFO       ACCESS:          0  HIT:          0  MISS:          0
cpu0_ITLB PREFETCH  ACCESS:          0  HIT:          0  MISS:          0
cpu0_ITLB WRITEBACK ACCESS:          0  HIT:          0  MISS:          0
cpu0_L1I TOTAL     ACCESS:    2106610  HIT:    2104301  MISS:       2309
cpu0_L1I LOAD      ACCESS:    2106610  HIT:    2104301  MISS:       2309
cpu0_L1I RFO       ACCESS:          0  HIT:          0  MISS:          0
cpu0_L1I PREFETCH  ACCESS:          0  HIT:          0  MISS:          0
cpu0_L1I WRITEBACK ACCESS:          0  HIT:          0  MISS:          0
cpu0_STLB TOTAL     ACCESS:      15043  HIT:      14971  MISS:         72
cpu0_STLB LOAD      ACCESS:      14014  HIT:      13961  MISS:         53
cpu0_STLB RFO       ACCESS:       1029  HIT:       1010  MISS:         19
cpu0_STLB PREFETCH  ACCESS:          0  HIT:          0  MISS:          0
cpu0_STLB WRITEBACK ACCESS:          0  HIT:          0  MISS:          0
cpu0_L1D TOTAL     ACCESS:   10610716  HIT:   10462820  MISS:     147896
cpu0_L1D LOAD      ACCESS:    7591737  HIT:    7479051  MISS:     112686
cpu0_L1D RFO       ACCESS:    3018909  HIT:    2983749  MISS:      35160
cpu0_L1D PREFETCH  ACCESS:          0  HIT:          0  MISS:          0
cpu0_L1D WRITEBACK ACCESS:          0  HIT:          0  MISS:          0
cpu0_L2C TOTAL     ACCESS:     186189  HIT:      98873  MISS:      87316
cpu0_L2C LOAD      ACCESS:     114995  HIT:      60142  MISS:      54853
cpu0_L2C RFO       ACCESS:      35160  HIT:       2761  MISS:      32399
cpu0_L2C PREFETCH  ACCESS:          0  HIT:          0  MISS:          0
cpu0_L2C WRITEBACK ACCESS:      35984  HIT:      35932  MISS:         52
LLC TOTAL     ACCESS:     126708  HIT:      51733  MISS:      74975
LLC LOAD      ACCESS:      54853  HIT:      24226  MISS:      30627
LLC RFO       ACCESS:      32399  HIT:       8875  MISS:      23524
LLC PREFETCH  ACCESS:          0  HIT:          0  MISS:          0
LLC WRITEBACK ACCESS:      39444  HIT:      18625  MISS:      20819
Heartbeat CPU 0 instructions: 100000003 cycles: 52721916 heartbeat IPC: 1.0191 cumulative IPC: 1.51476 (Simulation time: 0 hr 57 min 43 sec) 

Region of Interest Statistics
cpu0_DTLB TOTAL     ACCESS:   10875304  HIT:   10859154  MISS:      16150
cpu0_DTLB LOAD      ACCESS:    8900471  HIT:    8885381  MISS:      15090
cpu0_DTLB RFO       ACCESS:    1974833  HIT:    1973773  MISS:       1060
cpu0_DTLB PREFETCH  ACCESS:          0  HIT:          0  MISS:          0
cpu0_DTLB WRITEBACK ACCESS:          0  HIT:          0  MISS:          0
cpu0_ITLB TOTAL     ACCESS:    3850053  HIT:    3850045  MISS:          8
cpu0_ITLB LOAD      ACCESS:    3850053  HIT:    3850045  MISS:          8
cpu0_ITLB RFO       ACCESS:          0  HIT:          0  MISS:          0
cpu0_ITLB PREFETCH  ACCESS:          0  HIT:          0  MISS:          0
cpu0_ITLB WRITEBACK ACCESS:          0  HIT:          0  MISS:          0
cpu0_L1I TOTAL     ACCESS:    2206882  HIT:    2204504  MISS:       2378
cpu0_L1I LOAD      ACCESS:    2206882  HIT:    2204504  MISS:       2378
cpu0_L1I RFO       ACCESS:          0  HIT:          0  MISS:          0
cpu0_L1I PREFETCH  ACCESS:          0  HIT:          0  MISS:          0
cpu0_L1I WRITEBACK ACCESS:          0  HIT:          0  MISS:          0
cpu0_STLB TOTAL     ACCESS:      16158  HIT:      16076  MISS:         82
cpu0_STLB LOAD      ACCESS:      15098  HIT:      15035  MISS:         63
cpu0_STLB RFO       ACCESS:       1060  HIT:       1041  MISS:         19
cpu0_STLB PREFETCH  ACCESS:          0  HIT:          0  MISS:          0
cpu0_STLB WRITEBACK ACCESS:          0  HIT:          0  MISS:          0
cpu0_L1D TOTAL     ACCESS:   11051511  HIT:   10896893  MISS:     154618
cpu0_L1D LOAD      ACCESS:    7877355  HIT:    7758298  MISS:     119057
cpu0_L1D RFO       ACCESS:    3174077  HIT:    3138570  MISS:      35507
cpu0_L1D PREFETCH  ACCESS:          0  HIT:          0  MISS:          0
cpu0_L1D WRITEBACK ACCESS:          0  HIT:          0  MISS:          0
cpu0_L2C TOTAL     ACCESS:     193332  HIT:     101104  MISS:      92228
cpu0_L2C LOAD      ACCESS:     121435  HIT:      61858  MISS:      59577
cpu0_L2C RFO       ACCESS:      35507  HIT:       2924  MISS:      32583
cpu0_L2C PREFETCH  ACCESS:          0  HIT:          0  MISS:          0
cpu0_L2C WRITEBACK ACCESS:      36336  HIT:      36281  MISS:         55
LLC TOTAL     ACCESS:     131808  HIT:      53980  MISS:      77828
LLC LOAD      ACCESS:      59577  HIT:      26260  MISS:      33317
LLC RFO       ACCESS:      32583  HIT:       8912  MISS:      23671
LLC PREFETCH  ACCESS:          0  HIT:          0  MISS:          0
LLC WRITEBACK ACCESS:      39635  HIT:      18801  MISS:      20834
Heartbeat CPU 0 instructions: 102000003 cycles: 54830005 heartbeat IPC: 0.948727 cumulative IPC: 1.48078 (Simulation time: 0 hr 58 min 36 sec) 

Region of Interest Statistics
cpu0_DTLB TOTAL     ACCESS:   11312546  HIT:   11295349  MISS:      17197
cpu0_DTLB LOAD      ACCESS:    9252040  HIT:    9235931  MISS:      16109
cpu0_DTLB RFO       ACCESS:    2060506  HIT:    2059418  MISS:       1088
cpu0_DTLB PREFETCH  ACCESS:          0  HIT:          0  MISS:          0
cpu0_DTLB WRITEBACK ACCESS:          0  HIT:          0  MISS:          0
cpu0_ITLB TOTAL     ACCESS:    4052041  HIT:    4052033  MISS:          8
cpu0_ITLB LOAD      ACCESS:    4052041  HIT:    4052033  MISS:          8
cpu0_ITLB RFO       ACCESS:          0  HIT:          0  MISS:          0
cpu0_ITLB PREFETCH  ACCESS:          0  HIT:          0  MISS:          0
cpu0_ITLB WRITEBACK ACCESS:          0  HIT:          0  MISS:          0
cpu0_L1I TOTAL     ACCESS:    2292386  HIT:    2290007  MISS:       2379
cpu0_L1I LOAD      ACCESS:    2292386  HIT:    2290007  MISS:       2379
cpu0_L1I RFO       ACCESS:          0  HIT:          0  MISS:          0
cpu0_L1I PREFETCH  ACCESS:          0  HIT:          0  MISS:          0
cpu0_L1I WRITEBACK ACCESS:          0  HIT:          0  MISS:          0
cpu0_STLB TOTAL     ACCESS:      17205  HIT:      17120  MISS:         85
cpu0_STLB LOAD      ACCESS:      16117  HIT:      16051  MISS:         66
cpu0_STLB RFO       ACCESS:       1088  HIT:       1069  MISS:         19
cpu0_STLB PREFETCH  ACCESS:          0  HIT:          0  MISS:          0
cpu0_STLB WRITEBACK ACCESS:          0  HIT:          0  MISS:          0
cpu0_L1D TOTAL     ACCESS:   11492322  HIT:   11331117  MISS:     161205
cpu0_L1D LOAD      ACCESS:    8179277  HIT:    8053879  MISS:     125398
cpu0_L1D RFO       ACCESS:    3312963  HIT:    3277213  MISS:      35750
cpu0_L1D PREFETCH  ACCESS:          0  HIT:          0  MISS:          0
cpu0_L1D WRITEBACK ACCESS:          0  HIT:          0  MISS:          0
cpu0_L2C TOTAL     ACCESS:     200139  HIT:     103054  MISS:      97085
cpu0_L2C LOAD      ACCESS:     127777  HIT:      63469  MISS:      64308
cpu0_L2C RFO       ACCESS:      35750  HIT:       3045  MISS:      32705
cpu0_L2C PREFETCH  ACCESS:          0  HIT:          0  MISS:          0
cpu0_L2C WRITEBACK ACCESS:      36555  HIT:      36497  MISS:         58
LLC TOTAL     ACCESS:     136802  HIT:      56652  MISS:      80150
LLC LOAD      ACCESS:      64308  HIT:      28773  MISS:      35535
LLC RFO       ACCESS:      32705  HIT:       8945  MISS:      23760
LLC PREFETCH  ACCESS:          0  HIT:          0  MISS:          0
LLC WRITEBACK ACCESS:      39775  HIT:      18926  MISS:      20849
Heartbeat CPU 0 instructions: 104000001 cycles: 56912040 heartbeat IPC: 0.960598 cumulative IPC: 1.45167 (Simulation time: 0 hr 59 min 27 sec) 

Region of Interest Statistics
cpu0_DTLB TOTAL     ACCESS:   11750158  HIT:   11731845  MISS:      18313
cpu0_DTLB LOAD      ACCESS:    9600273  HIT:    9583085  MISS:      17188
cpu0_DTLB RFO       ACCESS:    2149885  HIT:    2148760  MISS:       1125
cpu0_DTLB PREFETCH  ACCESS:          0  HIT:          0  MISS:          0
cpu0_DTLB WRITEBACK ACCESS:          0  HIT:          0  MISS:          0
cpu0_ITLB TOTAL     ACCESS:    4253955  HIT:    4253947  MISS:          8
cpu0_ITLB LOAD      ACCESS:    4253955  HIT:    4253947  MISS:          8
cpu0_ITLB RFO       ACCESS:          0  HIT:          0  MISS:          0
cpu0_ITLB PREFETCH  ACCESS:          0  HIT:          0  MISS:          0
cpu0_ITLB WRITEBACK ACCESS:          0  HIT:          0  MISS:          0
cpu0_L1I TOTAL     ACCESS:    2380796  HIT:    2378410  MISS:       2386
cpu0_L1I LOAD      ACCESS:    2380796  HIT:    2378410  MISS:       2386
cpu0_L1I RFO       ACCESS:          0  HIT:          0  MISS:          0
cpu0_L1I PREFETCH  ACCESS:          0  HIT:          0  MISS:          0
cpu0_L1I WRITEBACK ACCESS:          0  HIT:          0  MISS:          0
cpu0_STLB TOTAL     ACCESS:      18321  HIT:      18233  MISS:         88
cpu0_STLB LOAD      ACCESS:      17196  HIT:      17127  MISS:         69
cpu0_STLB RFO       ACCESS:       1125  HIT:       1106  MISS:         19
cpu0_STLB PREFETCH  ACCESS:          0  HIT:          0  MISS:          0
cpu0_STLB WRITEBACK ACCESS:          0  HIT:          0  MISS:          0
cpu0_L1D TOTAL     ACCESS:   11935716  HIT:   11767979  MISS:     167737
cpu0_L1D LOAD      ACCESS:    8478791  HIT:    8347191  MISS:     131600
cpu0_L1D RFO       ACCESS:    3456840  HIT:    3420762  MISS:      36078
cpu0_L1D PREFETCH  ACCESS:          0  HIT:          0  MISS:          0
cpu0_L1D WRITEBACK ACCESS:          0  HIT:          0  MISS:          0
cpu0_L2C TOTAL     ACCESS:     207015  HIT:     105725  MISS:     101290
cpu0_L2C LOAD      ACCESS:     133986  HIT:      65611  MISS:      68375
cpu0_L2C RFO       ACCESS:      36078  HIT:       3236  MISS:      32842
cpu0_L2C PREFETCH  ACCESS:          0  HIT:          0  MISS:          0
cpu0_L2C WRITEBACK ACCESS:      36892  HIT:      36833  MISS:         59
LLC TOTAL     ACCESS:     141073  HIT:      57432  MISS:      83641
LLC LOAD      ACCESS:      68375  HIT:      29471  MISS:      38904
LLC RFO       ACCESS:      32842  HIT:       8968  MISS:      23874
LLC PREFETCH  ACCESS:          0  HIT:          0  MISS:          0
LLC WRITEBACK ACCESS:      39842  HIT:      18985  MISS:      20857
Heartbeat CPU 0 instructions: 106000004 cycles: 58884305 heartbeat IPC: 1.01406 cumulative IPC: 1.42963 (Simulation time: 1 hr 0 min 19 sec) 

Region of Interest Statistics
cpu0_DTLB TOTAL     ACCESS:   12238658  HIT:   12219497  MISS:      19161
cpu0_DTLB LOAD      ACCESS:    9989942  HIT:    9971961  MISS:      17981
cpu0_DTLB RFO       ACCESS:    2248716  HIT:    2247536  MISS:       1180
cpu0_DTLB PREFETCH  ACCESS:          0  HIT:          0  MISS:          0
cpu0_DTLB WRITEBACK ACCESS:          0  HIT:          0  MISS:          0
cpu0_ITLB TOTAL     ACCESS:    4415717  HIT:    4415706  MISS:         11
cpu0_ITLB LOAD      ACCESS:    4415717  HIT:    4415706  MISS:         11
cpu0_ITLB RFO       ACCESS:          0  HIT:          0  MISS:          0
cpu0_ITLB PREFETCH  ACCESS:          0  HIT:          0  MISS:          0
cpu0_ITLB WRITEBACK ACCESS:          0  HIT:          0  MISS:          0
cpu0_L1I TOTAL     ACCESS:    2467905  HIT:    2464794  MISS:       3111
cpu0_L1I LOAD      ACCESS:    2467905  HIT:    2464794  MISS:       3111
cpu0_L1I RFO       ACCESS:          0  HIT:          0  MISS:          0
cpu0_L1I PREFETCH  ACCESS:          0  HIT:          0  MISS:          0
cpu0_L1I WRITEBACK ACCESS:          0  HIT:          0  MISS:          0
cpu0_STLB TOTAL     ACCESS:      19172  HIT:      19078  MISS:         94
cpu0_STLB LOAD      ACCESS:      17992  HIT:      17917  MISS:         75
cpu0_STLB RFO       ACCESS:       1180  HIT:       1161  MISS:         19
cpu0_STLB PREFETCH  ACCESS:          0  HIT:          0  MISS:          0
cpu0_STLB WRITEBACK ACCESS:          0  HIT:          0  MISS:          0
cpu0_L1D TOTAL     ACCESS:   12462012  HIT:   12290128  MISS:     171884
cpu0_L1D LOAD      ACCESS:    8844284  HIT:    8709310  MISS:     134974
cpu0_L1D RFO       ACCESS:    3617637  HIT:    3580789  MISS:      36848
cpu0_L1D PREFETCH  ACCESS:          0  HIT:          0  MISS:          0
cpu0_L1D WRITEBACK ACCESS:          0  HIT:          0  MISS:          0
cpu0_L2C TOTAL     ACCESS:     212398  HIT:     107290  MISS:     105108
cpu0_L2C LOAD      ACCESS:     138085  HIT:      66487  MISS:      71598
cpu0_L2C RFO       ACCESS:      36848  HIT:       3444  MISS:      33404
cpu0_L2C PREFETCH  ACCESS:          0  HIT:          0  MISS:          0
cpu0_L2C WRITEBACK ACCESS:      37403  HIT:      37314  MISS:         89
[...]

CPU 0 cumulative IPC: 1.46459 instructions: 1500000000 cycles: 1024176968
cpu0_DTLB TOTAL     ACCESS:  338707194  HIT:  338314909  MISS:     392285
cpu0_DTLB LOAD      ACCESS:  275975259  HIT:  275616066  MISS:     359193
cpu0_DTLB RFO       ACCESS:   62731935  HIT:   62698843  MISS:      33092
cpu0_DTLB PREFETCH  ACCESS:          0  HIT:          0  MISS:          0
cpu0_DTLB WRITEBACK ACCESS:          0  HIT:          0  MISS:          0
cpu0_DTLB TRANSLATION ACCESS:          0  HIT:          0  MISS:          0
cpu0_DTLB PREFETCH  REQUESTED:          0  ISSUED:          0  USEFUL:          0  USELESS:          0
cpu0_DTLB AVERAGE MISS LATENCY: 9.64883 cycles
cpu0_ITLB TOTAL     ACCESS:  114434406  HIT:  114434174  MISS:        232
cpu0_ITLB LOAD      ACCESS:  114434406  HIT:  114434174  MISS:        232
cpu0_ITLB RFO       ACCESS:          0  HIT:          0  MISS:          0
cpu0_ITLB PREFETCH  ACCESS:          0  HIT:          0  MISS:          0
cpu0_ITLB WRITEBACK ACCESS:          0  HIT:          0  MISS:          0
cpu0_ITLB TRANSLATION ACCESS:          0  HIT:          0  MISS:          0
cpu0_ITLB PREFETCH  REQUESTED:          0  ISSUED:          0  USEFUL:          0  USELESS:          0
cpu0_ITLB AVERAGE MISS LATENCY: 59.5862 cycles
cpu0_L1I TOTAL     ACCESS:   49538952  HIT:   49445671  MISS:      93281
cpu0_L1I LOAD      ACCESS:   49538952  HIT:   49445671  MISS:      93281
cpu0_L1I RFO       ACCESS:          0  HIT:          0  MISS:          0
cpu0_L1I PREFETCH  ACCESS:          0  HIT:          0  MISS:          0
cpu0_L1I WRITEBACK ACCESS:          0  HIT:          0  MISS:          0
cpu0_L1I TRANSLATION ACCESS:          0  HIT:          0  MISS:          0
cpu0_L1I PREFETCH  REQUESTED:          0  ISSUED:          0  USEFUL:          0  USELESS:          0
cpu0_L1I AVERAGE MISS LATENCY: 107.783 cycles
cpu0_STLB TOTAL     ACCESS:     392517  HIT:     386969  MISS:       5548
cpu0_STLB LOAD      ACCESS:     359425  HIT:     355463  MISS:       3962
cpu0_STLB RFO       ACCESS:      33092  HIT:      31506  MISS:       1586
cpu0_STLB PREFETCH  ACCESS:          0  HIT:          0  MISS:          0
cpu0_STLB WRITEBACK ACCESS:          0  HIT:          0  MISS:          0
cpu0_STLB TRANSLATION ACCESS:          0  HIT:          0  MISS:          0
cpu0_STLB PREFETCH  REQUESTED:          0  ISSUED:          0  USEFUL:          0  USELESS:          0
cpu0_STLB AVERAGE MISS LATENCY: 47.1253 cycles
cpu0_L1D TOTAL     ACCESS:  349126280  HIT:  345025007  MISS:    4101273
cpu0_L1D LOAD      ACCESS:  250850149  HIT:  247877151  MISS:    2972998
cpu0_L1D RFO       ACCESS:   98270927  HIT:   97144635  MISS:    1126292
cpu0_L1D PREFETCH  ACCESS:          0  HIT:          0  MISS:          0
cpu0_L1D WRITEBACK ACCESS:          0  HIT:          0  MISS:          0
cpu0_L1D TRANSLATION ACCESS:       5204  HIT:       3221  MISS:       1983
cpu0_L1D PREFETCH  REQUESTED:          0  ISSUED:          0  USEFUL:          0  USELESS:          0
cpu0_L1D AVERAGE MISS LATENCY: 116.988 cycles
cpu0_L2C TOTAL     ACCESS:    5332515  HIT:    2915433  MISS:    2417082
cpu0_L2C LOAD      ACCESS:    3066271  HIT:    1697511  MISS:    1368760
cpu0_L2C RFO       ACCESS:    1126289  HIT:      79998  MISS:    1046291
cpu0_L2C PREFETCH  ACCESS:          0  HIT:          0  MISS:          0
cpu0_L2C WRITEBACK ACCESS:    1137972  HIT:    1136210  MISS:       1762
cpu0_L2C TRANSLATION ACCESS:       1983  HIT:       1714  MISS:        269
cpu0_L2C PREFETCH  REQUESTED:          0  ISSUED:          0  USEFUL:          0  USELESS:          0
cpu0_L2C AVERAGE MISS LATENCY: 183.55 cycles
LLC TOTAL     ACCESS:    3478510  HIT:    1405450  MISS:    2073060
LLC LOAD      ACCESS:    1368760  HIT:     530277  MISS:     838483
LLC RFO       ACCESS:    1046291  HIT:     402735  MISS:     643556
LLC PREFETCH  ACCESS:          0  HIT:          0  MISS:          0
LLC WRITEBACK ACCESS:    1063190  HIT:     472328  MISS:     590862
LLC TRANSLATION ACCESS:        269  HIT:        110  MISS:        159
LLC PREFETCH  REQUESTED:          0  ISSUED:          0  USEFUL:          0  USELESS:          0
LLC AVERAGE MISS LATENCY: 189.541 cycles
~~~~~~~~~~Reuse Distance Profiler output~~~~~~~~~~
0	60202000	22119936
1	29589856	19280208
2	28817536	22483440
3	25611696	21471920
4	22223520	19501424
5	15257616	12343808
6	13424064	11124560
7	11088528	9499184
8	12880256	11380224
9	7912672	6674352
10	7228944	6133424
11	6439184	5506368
12	4299312	3520464
13	3875920	3115776
14	3137136	2457088
15	3016608	2153712
16	2935600	2059200
17	2771888	2035952
18	2669424	2022928
19	2416640	1813632
20	2380320	1781328
21	2456944	1692560
22	2349312	1601408
23	2188816	1544608
24	2048112	1427664
25	1827552	1234944
26	1666848	1072640
27	1627136	1046352
28	1959472	1477664
29	1155344	789568
30	1086816	808336
31	1109216	808544
32	1041344	806976
33	903328	738896
34	876144	731568
35	923280	762928
36	983712	818512
37	966640	800192
38	859840	690816
39	753376	585600
40	764080	586672
41	763712	555184
42	801776	559344
43	861008	584896
44	950112	653424
45	881008	625200
46	883264	685136
47	837520	689472
48	797984	684416
49	807024	683680
50	729712	609952
51	602272	504080
52	554592	471184
53	607728	469248
54	493600	407792
55	431008	382048
56	353968	315712
57	342768	311168
58	347888	324480
59	321696	299488
60	297280	277696
61	269424	250144
62	267632	239536
63	288288	264288
64	568432	505232
66	660768	532176
68	626752	465696
70	412912	340944
72	379424	337616
74	422448	373712
76	471280	360912
78	462720	408576
80	505728	447312
82	574800	508000
84	495984	455216
86	464416	418544
88	470688	411408
90	438048	355616
92	450432	336336
94	399152	348928
96	431376	388976
98	416048	400576
100	464496	436448
102	411936	387120
104	366944	330560
106	381296	358944
108	355888	318752
110	370480	319536
112	434128	371792
114	470784	369040
116	457168	328784
118	448960	341520
120	480752	402352
122	511568	404112
124	572944	447360
126	579568	457152
128	1123184	1020672
132	1124144	1055888
136	664224	608416
140	448992	397648
144	389392	340016
148	312256	266928
152	290976	253424
156	261168	239616
160	258048	243296
164	193040	180192
168	136400	125808
172	119680	111184
176	116880	109760
180	117024	109824
184	117440	110048
188	112224	101712
192	124496	101024
196	154736	138160
200	166608	138704
204	153088	134848
208	147296	124512
212	130864	118208
216	116144	110816
220	101584	92352
224	86080	79232
228	105024	91568
232	82352	72800
236	83680	70992
240	79808	71744
244	72976	69184
248	108848	96128
252	109584	99056
256	226192	207968
264	419216	404064
272	326416	316144
280	230384	214160
288	182272	172512
296	177696	161168
304	180384	162016
312	179792	167504
320	221008	200144
328	257280	217568
336	300944	232080
344	275520	227504
352	318736	254384
360	327440	267616
368	361968	280784
376	417152	308080
384	456320	343664
392	534944	402112
400	649424	476864
408	715632	520416
416	743328	524800
424	766352	520640
432	755936	483728
440	750128	441088
448	798896	414784
456	862912	414608
464	912976	413776
472	896880	378640
480	785808	312288
488	580768	215168
496	388144	148976
504	230048	108800
512	249536	176032
528	259920	224512
544	230896	192576
560	178000	138880
576	172896	137888
592	189584	148992
608	169760	131808
624	182752	152128
640	220080	176464
656	244512	188176
672	222512	184448
688	220512	190624
704	221120	192784
720	249104	208224
736	342784	275568
752	299424	251440
768	303200	262368
784	343104	299920
800	391024	326944
816	447744	353696
832	481776	381872
848	525584	425840
864	517200	449296
880	538320	488544
896	563632	530016
912	582320	560000
928	612928	591136
944	584304	574256
960	483040	476272
976	299360	292112
992	165088	156704
1008	70512	63360
1024	87168	73248
1056	106736	94656
1088	106720	96624
1120	78000	69088
1152	102704	91600
1184	133152	115040
1216	139072	125856
1248	129312	119968
1280	105584	93168
1312	94544	77728
1344	85440	68736
1376	78368	65376
1408	105440	90608
1440	57424	48016
1472	46400	38528
1504	49536	40576
1536	64640	56272
1568	82048	74624
1600	109248	101280
1632	144400	133296
1664	138192	129264
1696	113056	106912
1728	79728	73984
1760	46144	39888
1792	36368	30320
1824	31648	26352
1856	37472	32000
1888	33776	27872
1920	31344	26224
1952	32032	25296
1984	38288	30592
2016	36240	28656
2048	66512	52608
2112	67296	54112
2176	58624	45184
2240	58864	45696
2304	65680	56464
2368	73856	65312
2432	52400	45296
2496	36704	30160
2560	33600	29296
2624	23264	19680
2688	24928	21328
2752	23184	19760
2816	29824	26464
2880	28592	24832
2944	28512	24480
3008	33680	27840
3072	31776	28016
3136	34624	31008
3200	30320	26800
3264	28848	24736
3328	35184	30720
3392	44912	40944
3456	46224	42512
3520	51696	48032
3584	52176	48112
3648	49040	45504
3712	40784	38016
3776	35840	32848
3840	29824	26848
3904	29408	26912
3968	36000	32992
4032	39392	36720
4096	78064	71920
4224	71456	65744
4352	63312	57280
4480	75696	69872
4608	91552	85520
4736	79424	73728
4864	60720	55168
4992	59856	55520
5120	74000	68736
5248	71488	67232
5376	63296	59328
5504	60448	56704
5632	59200	55904
5760	61328	57632
5888	58560	55136
6016	52560	49760
6144	55200	52128
6272	57408	54256
6400	49040	45920
6528	47360	44896
6656	51328	48864
6784	50544	48048
6912	49088	46640
7040	48800	46384
7168	50896	48528
7296	45984	43712
7424	40208	38016
7552	38144	36608
7680	41264	38848
7808	40560	38400
7936	32640	30288
8064	25664	23904
8192	51616	48928
8448	52752	50432
8704	41184	38208
8960	36448	33472
9216	35360	32176
9472	26560	24368
9728	29120	26704
9984	27184	25472
10240	28608	27088
10496	27136	24784
10752	25776	23888
11008	27376	25712
11264	29200	26944
11520	26288	23936
11776	26160	24256
12032	22592	20912
12288	21936	20224
12544	20736	19040
12800	22720	21216
13056	19408	18288
13312	18480	17104
13568	18736	17120
13824	20672	19152
14080	21760	20016
14336	20688	19168
14592	19216	17936
14848	16688	14944
15104	15488	13984
15360	16496	15040
15616	18096	16896
15872	17040	15648
16128	18448	17376
16384	32768	30800
16896	28720	26720
17408	23984	21728
17920	27696	25392
18432	28144	26448
18944	25744	23568
19456	26112	23808
19968	25872	23920
20480	20496	19280
20992	19472	18368
21504	13808	12944
22016	13072	12224
22528	11232	10384
23040	11968	11280
23552	10144	9104
24064	8720	7840
24576	9152	7936
25088	7120	6576
25600	7440	6784
26112	6928	6256
26624	6304	5824
27136	5648	5296
27648	6304	5856
28160	5808	5472
28672	6032	5728
29184	6208	5728
29696	6352	5760
30208	6832	6304
30720	5552	5264
31232	6608	5888
31744	7840	6736
32256	10960	8768
32768	17920	14000
33792	14208	12448
34816	13968	12368
35840	10528	9024
36864	10656	9696
37888	9904	8416
38912	12688	10848
39936	12592	10080
40960	10272	8432
41984	12224	10464
43008	7888	6960
44032	6304	5744
45056	5584	5216
46080	5520	5088
47104	5456	5104
48128	3600	3200
49152	3328	3024
50176	3232	2896
51200	3040	2848
52224	3664	3408
53248	2320	2208
54272	2064	1888
55296	2256	2256
56320	2880	2720
57344	3248	3088
58368	2336	2080
59392	2208	2064
60416	2912	2752
61440	2640	2512
62464	1984	1856
63488	2160	1936
64512	1808	1712
65536	3920	3520
67584	3952	3648
69632	4240	3856
71680	3936	3440
73728	4368	4096
75776	4752	4336
77824	4592	4192
79872	4800	4432
81920	5536	5088
83968	5408	5088
86016	6176	5760
88064	7392	6928
90112	7824	7392
92160	9168	8672
94208	11072	10144
96256	12032	11120
98304	13024	12384
100352	13712	12768
102400	13728	12832
104448	13488	12352
106496	13760	12496
108544	13792	13136
110592	14368	13328
112640	13152	12304
114688	13760	12816
116736	14832	13856
118784	12560	11856
120832	12352	11408
122880	12736	12048
124928	11920	11216
126976	11248	10528
129024	11920	11296
131072	24112	23056
135168	25200	23712
139264	24688	23264
143360	24784	23120
147456	22944	21392
151552	20640	19056
155648	19872	18528
159744	18208	17280
163840	17072	15744
167936	15136	14176
172032	11264	10704
176128	11232	10768
180224	10752	10000
184320	10192	9872
188416	9616	9184
192512	9568	9168
196608	8512	8080
200704	9696	9232
204800	7840	7520
208896	6944	6496
212992	7776	7280
217088	7328	7008
221184	7488	7072
225280	7216	6832
229376	8400	7504
233472	7296	6688
237568	7200	6384
241664	6976	6176
245760	6976	6288
249856	6672	6048
253952	6816	6032
258048	5920	5712
262144	12960	11584
270336	13488	12048
278528	16592	14448
286720	14784	13088
294912	14176	12640
303104	12832	11472
311296	15056	12384
319488	14576	12192
327680	12544	11168
335872	11456	10512
344064	11008	10432
352256	11616	10448
360448	9664	9056
368640	9904	9184
376832	8784	8608
385024	7472	7408
393216	9040	8816
401408	8656	8528
409600	7520	7280
417792	8640	8432
425984	8432	8176
434176	7472	7248
442368	7792	7584
450560	9584	9232
458752	8368	7872
466944	9360	8960
475136	9488	8976
483328	10688	9504
491520	8128	7552
499712	8256	7728
507904	12864	11744
516096	9168	7984
524288	21824	20160
540672	18800	17536
557056	22960	21584
573440	5328	5072
589824	4608	4320
606208	5248	5056
622592	5664	5328
638976	5024	4848
655360	4080	3904
671744	4768	4512
688128	6640	5920
704512	4608	4288
720896	6288	5728
737280	11488	10864
753664	3776	3504
770048	2176	2048
786432	1744	1696
802816	2352	2192
819200	1984	1936
835584	2736	2496
851968	2720	2608
868352	2384	2336
884736	2000	1904
901120	2480	2400
917504	1952	1760
933888	2080	1920
950272	1920	1840
966656	1232	1120
983040	2560	2256
999424	1712	1584
1015808	3664	3376
1032192	2752	2560
1048576	5408	5104
1081344	4976	4624
1114112	4736	4320
1146880	5296	4928
1179648	4560	4048
1212416	4592	4304
1245184	6704	6256
1277952	5264	4976
1310720	5744	5376
1343488	4832	4544
1376256	5536	5104
1409024	6880	6368
1441792	6064	5536
1474560	6208	5504
1507328	5456	4448
1540096	6240	5040
1572864	7936	7184
1605632	5632	4592
1638400	7184	5616
1671168	6720	5424
1703936	7040	6064
1736704	5184	4080
1769472	8192	6496
1802240	6624	5280
1835008	6000	5168
1867776	6080	4944
1900544	8112	6512
1933312	6080	4976
1966080	6832	5712
1998848	6928	5744
2031616	6672	4880
2064384	6608	4928
2097152	15808	11344
2162688	16320	12224
2228224	15600	10960
2293760	15856	11728
2359296	17472	13088
2424832	16576	11840
2490368	17488	12400
2555904	17536	11872
2621440	17984	12064
2686976	18528	11584
2752512	19040	12944
2818048	19632	13296
2883584	18144	11952
2949120	17984	11440
3014656	21632	15024
3080192	22592	13536
3145728	21600	12576
3211264	19888	12448
3276800	25600	16176
3342336	20160	11968
3407872	20032	10400
3473408	22192	13856
3538944	26592	15136
3604480	21360	12352
3670016	21808	12144
3735552	22848	13744
3801088	24880	14144
3866624	22656	12256
3932160	23920	12832
3997696	24864	13696
4063232	26640	14816
4128768	23744	12480
4194304	47360	25568
4325376	49088	27840
4456448	49488	26336
4587520	50992	26464
4718592	50832	26976
4849664	48592	26624
4980736	46240	24096
5111808	48672	25216
5242880	47920	24032
5373952	45360	23888
5505024	47120	22576
5636096	47536	22736
5767168	44048	20016
5898240	42672	20752
6029312	45264	21584
6160384	43568	20304
6291456	40864	17072
6422528	39200	17184
6553600	34992	14416
6684672	39712	16128
6815744	34240	14096
6946816	34080	14368
7077888	28896	10496
7208960	30800	11072
7340032	24800	7744
7471104	24704	8768
7602176	22832	8480
7733248	20240	5520
7864320	19520	4560
7995392	15280	3792
8126464	15808	4864
8257536	16592	5136
8388608	30624	8480
8650752	27344	9536
8912896	31856	12976
9175040	30928	13504
9437184	29136	10848
9699328	21184	7312
9961472	16528	4784
10223616	7920	2592
10485760	5584	1840
10747904	7168	2640
11010048	3264	1312
11272192	4688	1760
11534336	4688	1744
11796480	1088	320
12058624	352	80
12320768	512	64
12582912	624	64
12845056	304	80
13107200	720	192
13369344	336	48
13631488	704	272
13893632	560	304
14155776	384	176
14417920	160	80
14680064	464	80
14942208	64	48
15204352	112	112
15466496	160	144
15728640	224	224
15990784	208	208
16252928	96	96
16515072	288	272
16777216	768	720
17301504	592	528
17825792	960	672
18350080	976	640
18874368	560	384
19398656	624	432
19922944	272	224
20447232	240	160
20971520	272	160
21495808	112	64
22020096	48	48
22544384	64	32
23068672	80	16
23592960	0	0
24117248	0	0
24641536	0	0
25165824	0	0
25690112	32	32
26214400	16	16
26738688	16	16
27262976	64	32
27787264	0	0
28311552	32	16
28835840	16	16
29360128	0	0
29884416	32	32
30408704	0	0
30932992	0	0
31457280	16	16
31981568	16	16
32505856	0	0
33030144	0	0
33554432	0	0
34603008	0	0
35651584	48	48
36700160	16	16
37748736	32	16
38797312	128	16
39845888	0	0
40894464	16	16
41943040	16	16
42991616	0	0
44040192	0	0
45088768	16	16
46137344	48	0
47185920	48	0
48234496	32	32
49283072	0	0
50331648	0	0
51380224	0	0
52428800	0	0
53477376	0	0
54525952	0	0
55574528	0	0
56623104	48	48
57671680	16	16
58720256	0	0
59768832	0	0
60817408	0	0
61865984	0	0
62914560	0	0
63963136	32	16
65011712	48	48
66060288	240	224
67108864	2240	2160
69206016	1536	1536
71303168	528	528
73400320	80	80
75497472	192	192
77594624	448	448
79691776	256	256
81788928	48	48
83886080	464	432
85983232	880	832
88080384	576	544
90177536	528	528
92274688	1104	1104
94371840	1424	1424
96468992	1760	1568
98566144	1568	1296
100663296	800	720
102760448	1024	1008
104857600	1472	1472
106954752	2336	2320
109051904	1136	1136
111149056	64	64
113246208	320	320
115343360	192	192
117440512	256	256
119537664	128	128
121634816	0	0
123731968	0	0
125829120	0	0
127926272	0	0
130023424	16	0
132120576	0	0
134217728	0	0
138412032	0	0
142606336	0	0
146800640	0	0
150994944	0	0
155189248	0	0
159383552	0	0
163577856	0	0
167772160	0	0
171966464	0	0
176160768	0	0
180355072	0	0
184549376	0	0
188743680	0	0
192937984	0	0
197132288	0	0
201326592	0	0
205520896	16	0
209715200	0	0
213909504	0	0
218103808	0	0
222298112	0	0
226492416	0	0
230686720	0	0
234881024	0	0
239075328	0	0
243269632	0	0
247463936	0	0
251658240	0	0
255852544	0	0
260046848	0	0
264241152	0	0
268435456	0	0
276824064	0	0
285212672	0	0
293601280	0	0
301989888	0	0
310378496	0	0
318767104	0	0
327155712	0	0
335544320	0	0
343932928	16	16
352321536	0	0
360710144	0	0
369098752	0	0
377487360	0	0
385875968	0	0
394264576	0	0
402653184	0	0
411041792	0	0
419430400	0	0
427819008	0	0
436207616	0	0
444596224	0	0
452984832	0	0
461373440	0	0
469762048	0	0
478150656	0	0
486539264	0	0
494927872	0	0
503316480	0	0
511705088	0	0
520093696	0	0
528482304	0	0
536870912	0	0
553648128	0	0
570425344	0	0
587202560	0	0
603979776	0	0
620756992	0	0
637534208	0	0
654311424	0	0
671088640	0	0
687865856	0	0
704643072	0	0
721420288	0	0
738197504	0	0
754974720	0	0
771751936	0	0
788529152	0	0
805306368	0	0
822083584	0	0
838860800	0	0
855638016	0	0
872415232	0	0
889192448	0	0
905969664	0	0
922746880	0	0
939524096	0	0
956301312	0	0
973078528	0	0
989855744	0	0
1006632960	0	0
1023410176	0	0
1040187392	0	0
1056964608	0	0
1073741824	0	0
1107296256	0	0
1140850688	0	0
1174405120	0	0
1207959552	0	0
1241513984	0	0
1275068416	0	0
1308622848	0	0
1342177280	0	0
1375731712	0	0
1409286144	0	0
1442840576	0	0
1476395008	0	0
1509949440	0	0
1543503872	0	0
1577058304	0	0
1610612736	0	0
1644167168	0	0
1677721600	0	0
1711276032	0	0
1744830464	0	0
1778384896	0	0
1811939328	0	0
1845493760	0	0
1879048192	0	0
1912602624	0	0
1946157056	0	0
1979711488	0	0
2013265920	0	0
2046820352	0	0
2080374784	0	0
2113929216	0	0
2147483648	0	0
2214592512	0	0
2281701376	0	0
2348810240	0	0
2415919104	0	0
2483027968	0	0
2550136832	0	0
2617245696	0	0
2684354560	0	0
2751463424	0	0
2818572288	0	0
2885681152	0	0
2952790016	0	0
3019898880	0	0
3087007744	0	0
3154116608	0	0
3221225472	0	0
3288334336	0	0
3355443200	0	0
3422552064	0	0
3489660928	0	0
3556769792	0	0
3623878656	0	0
3690987520	0	0
3758096384	0	0
3825205248	0	0
3892314112	0	0
3959422976	0	0
4026531840	0	0
4093640704	0	0
4160749568	0	0
4227858432	0	0
~~~~~~~~~~Reuse Distance Profiler output end~~~~~~~~~~

Sampler size:5862

DRAM Statistics
 CHANNEL 0
 RQ ROW_BUFFER_HIT:     407848  ROW_BUFFER_MISS:    1074254
 DBUS AVG_CONGESTED_CYCLE:    3.95243
 WQ ROW_BUFFER_HIT:     137468  ROW_BUFFER_MISS:     729475  FULL:        149


CPU 0 Branch Prediction Accuracy: 91.7027% MPKI: 7.91652 Average ROB Occupancy at Mispredict: 124.778
Branch type MPKI
BRANCH_DIRECT_JUMP: 2.4e-05
BRANCH_INDIRECT: 0.000970667
BRANCH_CONDITIONAL: 7.83991
BRANCH_DIRECT_CALL: 0.0739147
BRANCH_INDIRECT_CALL: 0.000104
BRANCH_RETURN: 0.00159267

