
*** ChampSim Multicore Out-of-Order Simulator ***

Warmup Instructions: 50000000
Simulation Instructions: 1500000000
Number of CPUs: 1
Off-chip DRAM Size: 4 GiB Channels: 1 Width: 64-bit Data Rate: 3200 MT/s

VirtualMemory physical capacity: 8588881920 num_ppages: 2096895
VirtualMemory page size: 4096 log2_page_size: 12

CPU 0 runs /s/traces/champsim_traces/464.h264ref-30B.champsimtrace.xz
CPU 0 Bimodal branch predictor
Basic BTB sets: 1024 ways: 8 indirect buffer size: 4096 RAS size: 64
Initializing LRU.
Initializing LRU.
Initializing LRU.
Initializing LRU.
Initializing rdLRU.
Initializing LRU.
Initializing mockingjay of size: 4096
Heartbeat CPU 0 instructions: 2000000 cycles: 963818 heartbeat IPC: 2.07508 cumulative IPC: 2.07508 (Simulation time: 0 hr 2 min 36 sec) 
Heartbeat CPU 0 instructions: 4000002 cycles: 1931060 heartbeat IPC: 2.06774 cumulative IPC: 2.0714 (Simulation time: 0 hr 5 min 7 sec) 
Heartbeat CPU 0 instructions: 6000003 cycles: 2953645 heartbeat IPC: 1.95583 cumulative IPC: 2.03139 (Simulation time: 0 hr 7 min 52 sec) 
Heartbeat CPU 0 instructions: 8000000 cycles: 3944829 heartbeat IPC: 2.01779 cumulative IPC: 2.02797 (Simulation time: 0 hr 10 min 33 sec) 
Heartbeat CPU 0 instructions: 10000002 cycles: 4910033 heartbeat IPC: 2.0721 cumulative IPC: 2.03665 (Simulation time: 0 hr 13 min 7 sec) 
Heartbeat CPU 0 instructions: 12000001 cycles: 5873843 heartbeat IPC: 2.0751 cumulative IPC: 2.04296 (Simulation time: 0 hr 15 min 40 sec) 
Heartbeat CPU 0 instructions: 14000002 cycles: 6837820 heartbeat IPC: 2.07474 cumulative IPC: 2.04744 (Simulation time: 0 hr 18 min 16 sec) 
Heartbeat CPU 0 instructions: 16000001 cycles: 7803057 heartbeat IPC: 2.07203 cumulative IPC: 2.05048 (Simulation time: 0 hr 20 min 54 sec) 
Heartbeat CPU 0 instructions: 18000001 cycles: 8768007 heartbeat IPC: 2.07265 cumulative IPC: 2.05292 (Simulation time: 0 hr 23 min 31 sec) 
Heartbeat CPU 0 instructions: 20000001 cycles: 9733255 heartbeat IPC: 2.07201 cumulative IPC: 2.05481 (Simulation time: 0 hr 26 min 7 sec) 
Heartbeat CPU 0 instructions: 22000003 cycles: 10638273 heartbeat IPC: 2.2099 cumulative IPC: 2.06801 (Simulation time: 0 hr 28 min 25 sec) 
Heartbeat CPU 0 instructions: 24000000 cycles: 11146846 heartbeat IPC: 3.93257 cumulative IPC: 2.15308 (Simulation time: 0 hr 29 min 33 sec) 
Heartbeat CPU 0 instructions: 26000001 cycles: 11657141 heartbeat IPC: 3.9193 cumulative IPC: 2.23039 (Simulation time: 0 hr 30 min 42 sec) 
Heartbeat CPU 0 instructions: 28000000 cycles: 12165237 heartbeat IPC: 3.93626 cumulative IPC: 2.30164 (Simulation time: 0 hr 31 min 50 sec) 
Heartbeat CPU 0 instructions: 30000001 cycles: 12675615 heartbeat IPC: 3.91867 cumulative IPC: 2.36675 (Simulation time: 0 hr 32 min 54 sec) 
Heartbeat CPU 0 instructions: 32000003 cycles: 13184864 heartbeat IPC: 3.92736 cumulative IPC: 2.42703 (Simulation time: 0 hr 34 min 2 sec) 
Heartbeat CPU 0 instructions: 34000001 cycles: 13692694 heartbeat IPC: 3.93832 cumulative IPC: 2.48308 (Simulation time: 0 hr 35 min 41 sec) 
Heartbeat CPU 0 instructions: 36000000 cycles: 14199741 heartbeat IPC: 3.94441 cumulative IPC: 2.53526 (Simulation time: 0 hr 36 min 47 sec) 
Heartbeat CPU 0 instructions: 38000003 cycles: 14777588 heartbeat IPC: 3.46113 cumulative IPC: 2.57146 (Simulation time: 0 hr 38 min 9 sec) 
Heartbeat CPU 0 instructions: 40000002 cycles: 15338028 heartbeat IPC: 3.56862 cumulative IPC: 2.6079 (Simulation time: 0 hr 39 min 23 sec) 
Heartbeat CPU 0 instructions: 42000001 cycles: 15977079 heartbeat IPC: 3.12964 cumulative IPC: 2.62877 (Simulation time: 0 hr 40 min 54 sec) 
Heartbeat CPU 0 instructions: 44000001 cycles: 16623951 heartbeat IPC: 3.0918 cumulative IPC: 2.64678 (Simulation time: 0 hr 42 min 25 sec) 
Heartbeat CPU 0 instructions: 46000003 cycles: 17287454 heartbeat IPC: 3.01431 cumulative IPC: 2.66089 (Simulation time: 0 hr 43 min 57 sec) 
Heartbeat CPU 0 instructions: 48000000 cycles: 17936833 heartbeat IPC: 3.07986 cumulative IPC: 2.67606 (Simulation time: 0 hr 45 min 32 sec) 
Heartbeat CPU 0 instructions: 50000001 cycles: 18596185 heartbeat IPC: 3.03328 cumulative IPC: 2.68872 (Simulation time: 0 hr 47 min 2 sec) 

Warmup complete CPU 0 instructions: 50000001 cycles: 18596185 (Simulation time: 0 hr 47 min 2 sec) 

Heartbeat CPU 0 instructions: 52000002 cycles: 19663979 heartbeat IPC: 1.87302 cumulative IPC: 1.87302 (Simulation time: 0 hr 48 min 22 sec) 

Region of Interest Statistics
cpu0_DTLB TOTAL     ACCESS:     434443  HIT:     434301  MISS:        142
cpu0_DTLB LOAD      ACCESS:     341002  HIT:     340917  MISS:         85
cpu0_DTLB RFO       ACCESS:      93441  HIT:      93384  MISS:         57
cpu0_DTLB PREFETCH  ACCESS:          0  HIT:          0  MISS:          0
cpu0_DTLB WRITEBACK ACCESS:          0  HIT:          0  MISS:          0
cpu0_ITLB TOTAL     ACCESS:     182282  HIT:     182282  MISS:          0
cpu0_ITLB LOAD      ACCESS:     182282  HIT:     182282  MISS:          0
cpu0_ITLB RFO       ACCESS:          0  HIT:          0  MISS:          0
cpu0_ITLB PREFETCH  ACCESS:          0  HIT:          0  MISS:          0
cpu0_ITLB WRITEBACK ACCESS:          0  HIT:          0  MISS:          0
cpu0_L1I TOTAL     ACCESS:      16660  HIT:      16660  MISS:          0
cpu0_L1I LOAD      ACCESS:      16660  HIT:      16660  MISS:          0
cpu0_L1I RFO       ACCESS:          0  HIT:          0  MISS:          0
cpu0_L1I PREFETCH  ACCESS:          0  HIT:          0  MISS:          0
cpu0_L1I WRITEBACK ACCESS:          0  HIT:          0  MISS:          0
cpu0_STLB TOTAL     ACCESS:        142  HIT:        133  MISS:          9
cpu0_STLB LOAD      ACCESS:         85  HIT:         79  MISS:          6
cpu0_STLB RFO       ACCESS:         57  HIT:         54  MISS:          3
cpu0_STLB PREFETCH  ACCESS:          0  HIT:          0  MISS:          0
cpu0_STLB WRITEBACK ACCESS:          0  HIT:          0  MISS:          0
cpu0_L1D TOTAL     ACCESS:     426092  HIT:     420472  MISS:       5620
cpu0_L1D LOAD      ACCESS:     293130  HIT:     289908  MISS:       3222
cpu0_L1D RFO       ACCESS:     132954  HIT:     130560  MISS:       2394
cpu0_L1D PREFETCH  ACCESS:          0  HIT:          0  MISS:          0
cpu0_L1D WRITEBACK ACCESS:          0  HIT:          0  MISS:          0
cpu0_L2C TOTAL     ACCESS:       8056  HIT:       5388  MISS:       2668
cpu0_L2C LOAD      ACCESS:       3222  HIT:       2899  MISS:        323
cpu0_L2C RFO       ACCESS:       2394  HIT:         50  MISS:       2344
cpu0_L2C PREFETCH  ACCESS:          0  HIT:          0  MISS:          0
cpu0_L2C WRITEBACK ACCESS:       2436  HIT:       2436  MISS:          0
LLC TOTAL     ACCESS:       4699  HIT:       4528  MISS:        171
LLC LOAD      ACCESS:        323  HIT:        174  MISS:        149
LLC RFO       ACCESS:       2344  HIT:       2322  MISS:         22
LLC PREFETCH  ACCESS:          0  HIT:          0  MISS:          0
LLC WRITEBACK ACCESS:       2031  HIT:       2031  MISS:          0
Heartbeat CPU 0 instructions: 54000003 cycles: 20721536 heartbeat IPC: 1.89115 cumulative IPC: 1.88204 (Simulation time: 0 hr 49 min 43 sec) 

Region of Interest Statistics
cpu0_DTLB TOTAL     ACCESS:     867033  HIT:     866349  MISS:        684
cpu0_DTLB LOAD      ACCESS:     679932  HIT:     679627  MISS:        305
cpu0_DTLB RFO       ACCESS:     187101  HIT:     186722  MISS:        379
cpu0_DTLB PREFETCH  ACCESS:          0  HIT:          0  MISS:          0
cpu0_DTLB WRITEBACK ACCESS:          0  HIT:          0  MISS:          0
cpu0_ITLB TOTAL     ACCESS:     364106  HIT:     364106  MISS:          0
cpu0_ITLB LOAD      ACCESS:     364106  HIT:     364106  MISS:          0
cpu0_ITLB RFO       ACCESS:          0  HIT:          0  MISS:          0
cpu0_ITLB PREFETCH  ACCESS:          0  HIT:          0  MISS:          0
cpu0_ITLB WRITEBACK ACCESS:          0  HIT:          0  MISS:          0
cpu0_L1I TOTAL     ACCESS:      32110  HIT:      32110  MISS:          0
cpu0_L1I LOAD      ACCESS:      32110  HIT:      32110  MISS:          0
cpu0_L1I RFO       ACCESS:          0  HIT:          0  MISS:          0
cpu0_L1I PREFETCH  ACCESS:          0  HIT:          0  MISS:          0
cpu0_L1I WRITEBACK ACCESS:          0  HIT:          0  MISS:          0
cpu0_STLB TOTAL     ACCESS:        684  HIT:        670  MISS:         14
cpu0_STLB LOAD      ACCESS:        305  HIT:        296  MISS:          9
cpu0_STLB RFO       ACCESS:        379  HIT:        374  MISS:          5
cpu0_STLB PREFETCH  ACCESS:          0  HIT:          0  MISS:          0
cpu0_STLB WRITEBACK ACCESS:          0  HIT:          0  MISS:          0
cpu0_L1D TOTAL     ACCESS:     851526  HIT:     840361  MISS:      11165
cpu0_L1D LOAD      ACCESS:     585818  HIT:     579453  MISS:       6365
cpu0_L1D RFO       ACCESS:     265695  HIT:     260902  MISS:       4793
cpu0_L1D PREFETCH  ACCESS:          0  HIT:          0  MISS:          0
cpu0_L1D WRITEBACK ACCESS:          0  HIT:          0  MISS:          0
cpu0_L2C TOTAL     ACCESS:      16233  HIT:      10909  MISS:       5324
cpu0_L2C LOAD      ACCESS:       6365  HIT:       5743  MISS:        622
cpu0_L2C RFO       ACCESS:       4793  HIT:         92  MISS:       4701
cpu0_L2C PREFETCH  ACCESS:          0  HIT:          0  MISS:          0
cpu0_L2C WRITEBACK ACCESS:       5068  HIT:       5068  MISS:          0
LLC TOTAL     ACCESS:       9573  HIT:       9278  MISS:        295
LLC LOAD      ACCESS:        622  HIT:        349  MISS:        273
LLC RFO       ACCESS:       4701  HIT:       4679  MISS:         22
LLC PREFETCH  ACCESS:          0  HIT:          0  MISS:          0
LLC WRITEBACK ACCESS:       4249  HIT:       4249  MISS:          0
Heartbeat CPU 0 instructions: 56000002 cycles: 21862270 heartbeat IPC: 1.75326 cumulative IPC: 1.83706 (Simulation time: 0 hr 51 min 1 sec) 

Region of Interest Statistics
cpu0_DTLB TOTAL     ACCESS:    1313738  HIT:    1313050  MISS:        688
cpu0_DTLB LOAD      ACCESS:    1035642  HIT:    1035334  MISS:        308
cpu0_DTLB RFO       ACCESS:     278096  HIT:     277716  MISS:        380
cpu0_DTLB PREFETCH  ACCESS:          0  HIT:          0  MISS:          0
cpu0_DTLB WRITEBACK ACCESS:          0  HIT:          0  MISS:          0
cpu0_ITLB TOTAL     ACCESS:     543493  HIT:     543493  MISS:          0
cpu0_ITLB LOAD      ACCESS:     543493  HIT:     543493  MISS:          0
cpu0_ITLB RFO       ACCESS:          0  HIT:          0  MISS:          0
cpu0_ITLB PREFETCH  ACCESS:          0  HIT:          0  MISS:          0
cpu0_ITLB WRITEBACK ACCESS:          0  HIT:          0  MISS:          0
cpu0_L1I TOTAL     ACCESS:      41874  HIT:      41874  MISS:          0
cpu0_L1I LOAD      ACCESS:      41874  HIT:      41874  MISS:          0
cpu0_L1I RFO       ACCESS:          0  HIT:          0  MISS:          0
cpu0_L1I PREFETCH  ACCESS:          0  HIT:          0  MISS:          0
cpu0_L1I WRITEBACK ACCESS:          0  HIT:          0  MISS:          0
cpu0_STLB TOTAL     ACCESS:        688  HIT:        674  MISS:         14
cpu0_STLB LOAD      ACCESS:        308  HIT:        299  MISS:          9
cpu0_STLB RFO       ACCESS:        380  HIT:        375  MISS:          5
cpu0_STLB PREFETCH  ACCESS:          0  HIT:          0  MISS:          0
cpu0_STLB WRITEBACK ACCESS:          0  HIT:          0  MISS:          0
cpu0_L1D TOTAL     ACCESS:    1308808  HIT:    1296782  MISS:      12026
cpu0_L1D LOAD      ACCESS:     905970  HIT:     899463  MISS:       6507
cpu0_L1D RFO       ACCESS:     402825  HIT:     397313  MISS:       5512
cpu0_L1D PREFETCH  ACCESS:          0  HIT:          0  MISS:          0
cpu0_L1D WRITEBACK ACCESS:          0  HIT:          0  MISS:          0
cpu0_L2C TOTAL     ACCESS:      17595  HIT:      11500  MISS:       6095
cpu0_L2C LOAD      ACCESS:       6507  HIT:       5833  MISS:        674
cpu0_L2C RFO       ACCESS:       5512  HIT:         92  MISS:       5420
cpu0_L2C PREFETCH  ACCESS:          0  HIT:          0  MISS:          0
cpu0_L2C WRITEBACK ACCESS:       5569  HIT:       5569  MISS:          0
LLC TOTAL     ACCESS:      11011  HIT:      10715  MISS:        296
LLC LOAD      ACCESS:        674  HIT:        401  MISS:        273
LLC RFO       ACCESS:       5420  HIT:       5397  MISS:         23
LLC PREFETCH  ACCESS:          0  HIT:          0  MISS:          0
LLC WRITEBACK ACCESS:       4916  HIT:       4916  MISS:          0
Heartbeat CPU 0 instructions: 58000004 cycles: 22920119 heartbeat IPC: 1.89063 cumulative IPC: 1.85017 (Simulation time: 0 hr 52 min 20 sec) 

Region of Interest Statistics
cpu0_DTLB TOTAL     ACCESS:    1747779  HIT:    1746943  MISS:        836
cpu0_DTLB LOAD      ACCESS:    1376983  HIT:    1376584  MISS:        399
cpu0_DTLB RFO       ACCESS:     370796  HIT:     370359  MISS:        437
cpu0_DTLB PREFETCH  ACCESS:          0  HIT:          0  MISS:          0
cpu0_DTLB WRITEBACK ACCESS:          0  HIT:          0  MISS:          0
cpu0_ITLB TOTAL     ACCESS:     724561  HIT:     724561  MISS:          0
cpu0_ITLB LOAD      ACCESS:     724561  HIT:     724561  MISS:          0
cpu0_ITLB RFO       ACCESS:          0  HIT:          0  MISS:          0
cpu0_ITLB PREFETCH  ACCESS:          0  HIT:          0  MISS:          0
cpu0_ITLB WRITEBACK ACCESS:          0  HIT:          0  MISS:          0
cpu0_L1I TOTAL     ACCESS:      57655  HIT:      57655  MISS:          0
cpu0_L1I LOAD      ACCESS:      57655  HIT:      57655  MISS:          0
cpu0_L1I RFO       ACCESS:          0  HIT:          0  MISS:          0
cpu0_L1I PREFETCH  ACCESS:          0  HIT:          0  MISS:          0
cpu0_L1I WRITEBACK ACCESS:          0  HIT:          0  MISS:          0
cpu0_STLB TOTAL     ACCESS:        836  HIT:        817  MISS:         19
cpu0_STLB LOAD      ACCESS:        399  HIT:        389  MISS:         10
cpu0_STLB RFO       ACCESS:        437  HIT:        428  MISS:          9
cpu0_STLB PREFETCH  ACCESS:          0  HIT:          0  MISS:          0
cpu0_STLB WRITEBACK ACCESS:          0  HIT:          0  MISS:          0
cpu0_L1D TOTAL     ACCESS:    1734035  HIT:    1716441  MISS:      17594
cpu0_L1D LOAD      ACCESS:    1199375  HIT:    1189707  MISS:       9668
cpu0_L1D RFO       ACCESS:     534642  HIT:     526725  MISS:       7917
cpu0_L1D PREFETCH  ACCESS:          0  HIT:          0  MISS:          0
cpu0_L1D WRITEBACK ACCESS:          0  HIT:          0  MISS:          0
cpu0_L2C TOTAL     ACCESS:      25753  HIT:      17004  MISS:       8749
cpu0_L2C LOAD      ACCESS:       9668  HIT:       8703  MISS:        965
cpu0_L2C RFO       ACCESS:       7917  HIT:        134  MISS:       7783
cpu0_L2C PREFETCH  ACCESS:          0  HIT:          0  MISS:          0
cpu0_L2C WRITEBACK ACCESS:       8159  HIT:       8159  MISS:          0
LLC TOTAL     ACCESS:      15848  HIT:      15426  MISS:        422
LLC LOAD      ACCESS:        965  HIT:        568  MISS:        397
LLC RFO       ACCESS:       7783  HIT:       7758  MISS:         25
LLC PREFETCH  ACCESS:          0  HIT:          0  MISS:          0
LLC WRITEBACK ACCESS:       7099  HIT:       7099  MISS:          0
Heartbeat CPU 0 instructions: 60000003 cycles: 24050176 heartbeat IPC: 1.76982 cumulative IPC: 1.83352 (Simulation time: 0 hr 53 min 35 sec) 

Region of Interest Statistics
cpu0_DTLB TOTAL     ACCESS:    2191401  HIT:    2190562  MISS:        839
cpu0_DTLB LOAD      ACCESS:    1728997  HIT:    1728596  MISS:        401
cpu0_DTLB RFO       ACCESS:     462404  HIT:     461966  MISS:        438
cpu0_DTLB PREFETCH  ACCESS:          0  HIT:          0  MISS:          0
cpu0_DTLB WRITEBACK ACCESS:          0  HIT:          0  MISS:          0
cpu0_ITLB TOTAL     ACCESS:     904491  HIT:     904491  MISS:          0
cpu0_ITLB LOAD      ACCESS:     904491  HIT:     904491  MISS:          0
cpu0_ITLB RFO       ACCESS:          0  HIT:          0  MISS:          0
cpu0_ITLB PREFETCH  ACCESS:          0  HIT:          0  MISS:          0
cpu0_ITLB WRITEBACK ACCESS:          0  HIT:          0  MISS:          0
cpu0_L1I TOTAL     ACCESS:      66820  HIT:      66820  MISS:          0
cpu0_L1I LOAD      ACCESS:      66820  HIT:      66820  MISS:          0
cpu0_L1I RFO       ACCESS:          0  HIT:          0  MISS:          0
cpu0_L1I PREFETCH  ACCESS:          0  HIT:          0  MISS:          0
cpu0_L1I WRITEBACK ACCESS:          0  HIT:          0  MISS:          0
cpu0_STLB TOTAL     ACCESS:        839  HIT:        820  MISS:         19
cpu0_STLB LOAD      ACCESS:        401  HIT:        391  MISS:         10
cpu0_STLB RFO       ACCESS:        438  HIT:        429  MISS:          9
cpu0_STLB PREFETCH  ACCESS:          0  HIT:          0  MISS:          0
cpu0_STLB WRITEBACK ACCESS:          0  HIT:          0  MISS:          0
cpu0_L1D TOTAL     ACCESS:    2188787  HIT:    2170350  MISS:      18437
cpu0_L1D LOAD      ACCESS:    1515876  HIT:    1506073  MISS:       9803
cpu0_L1D RFO       ACCESS:     672893  HIT:     664268  MISS:       8625
cpu0_L1D PREFETCH  ACCESS:          0  HIT:          0  MISS:          0
cpu0_L1D WRITEBACK ACCESS:          0  HIT:          0  MISS:          0
cpu0_L2C TOTAL     ACCESS:      27151  HIT:      17649  MISS:       9502
cpu0_L2C LOAD      ACCESS:       9803  HIT:       8793  MISS:       1010
cpu0_L2C RFO       ACCESS:       8625  HIT:        134  MISS:       8491
cpu0_L2C PREFETCH  ACCESS:          0  HIT:          0  MISS:          0
cpu0_L2C WRITEBACK ACCESS:       8714  HIT:       8714  MISS:          0
LLC TOTAL     ACCESS:      17240  HIT:      16810  MISS:        430
LLC LOAD      ACCESS:       1010  HIT:        613  MISS:        397
LLC RFO       ACCESS:       8491  HIT:       8458  MISS:         33
LLC PREFETCH  ACCESS:          0  HIT:          0  MISS:          0
LLC WRITEBACK ACCESS:       7738  HIT:       7738  MISS:          0
Heartbeat CPU 0 instructions: 62000000 cycles: 25120252 heartbeat IPC: 1.86902 cumulative IPC: 1.83934 (Simulation time: 0 hr 54 min 57 sec) 

Region of Interest Statistics
cpu0_DTLB TOTAL     ACCESS:    2627463  HIT:    2626472  MISS:        991
cpu0_DTLB LOAD      ACCESS:    2073027  HIT:    2072531  MISS:        496
cpu0_DTLB RFO       ACCESS:     554436  HIT:     553941  MISS:        495
cpu0_DTLB PREFETCH  ACCESS:          0  HIT:          0  MISS:          0
cpu0_DTLB WRITEBACK ACCESS:          0  HIT:          0  MISS:          0
cpu0_ITLB TOTAL     ACCESS:    1085309  HIT:    1085309  MISS:          0
cpu0_ITLB LOAD      ACCESS:    1085309  HIT:    1085309  MISS:          0
cpu0_ITLB RFO       ACCESS:          0  HIT:          0  MISS:          0
cpu0_ITLB PREFETCH  ACCESS:          0  HIT:          0  MISS:          0
cpu0_ITLB WRITEBACK ACCESS:          0  HIT:          0  MISS:          0
cpu0_L1I TOTAL     ACCESS:      82761  HIT:      82761  MISS:          0
cpu0_L1I LOAD      ACCESS:      82761  HIT:      82761  MISS:          0
cpu0_L1I RFO       ACCESS:          0  HIT:          0  MISS:          0
cpu0_L1I PREFETCH  ACCESS:          0  HIT:          0  MISS:          0
cpu0_L1I WRITEBACK ACCESS:          0  HIT:          0  MISS:          0
cpu0_STLB TOTAL     ACCESS:        991  HIT:        966  MISS:         25
cpu0_STLB LOAD      ACCESS:        496  HIT:        484  MISS:         12
cpu0_STLB RFO       ACCESS:        495  HIT:        482  MISS:         13
cpu0_STLB PREFETCH  ACCESS:          0  HIT:          0  MISS:          0
cpu0_STLB WRITEBACK ACCESS:          0  HIT:          0  MISS:          0
cpu0_L1D TOTAL     ACCESS:    2616081  HIT:    2592018  MISS:      24063
cpu0_L1D LOAD      ACCESS:    1812008  HIT:    1798992  MISS:      13016
cpu0_L1D RFO       ACCESS:     804049  HIT:     793015  MISS:      11034
cpu0_L1D PREFETCH  ACCESS:          0  HIT:          0  MISS:          0
cpu0_L1D WRITEBACK ACCESS:          0  HIT:          0  MISS:          0
cpu0_L2C TOTAL     ACCESS:      35227  HIT:      23048  MISS:      12179
cpu0_L2C LOAD      ACCESS:      13016  HIT:      11696  MISS:       1320
cpu0_L2C RFO       ACCESS:      11034  HIT:        176  MISS:      10858
cpu0_L2C PREFETCH  ACCESS:          0  HIT:          0  MISS:          0
cpu0_L2C WRITEBACK ACCESS:      11164  HIT:      11164  MISS:          0
LLC TOTAL     ACCESS:      22251  HIT:      21698  MISS:        553
LLC LOAD      ACCESS:       1320  HIT:        800  MISS:        520
LLC RFO       ACCESS:      10858  HIT:      10825  MISS:         33
LLC PREFETCH  ACCESS:          0  HIT:          0  MISS:          0
LLC WRITEBACK ACCESS:      10072  HIT:      10072  MISS:          0
Heartbeat CPU 0 instructions: 64000000 cycles: 26176675 heartbeat IPC: 1.89318 cumulative IPC: 1.84685 (Simulation time: 0 hr 56 min 16 sec) 

Region of Interest Statistics
cpu0_DTLB TOTAL     ACCESS:    3058979  HIT:    3057836  MISS:       1143
cpu0_DTLB LOAD      ACCESS:    2410386  HIT:    2409796  MISS:        590
cpu0_DTLB RFO       ACCESS:     648593  HIT:     648040  MISS:        553
cpu0_DTLB PREFETCH  ACCESS:          0  HIT:          0  MISS:          0
cpu0_DTLB WRITEBACK ACCESS:          0  HIT:          0  MISS:          0
cpu0_ITLB TOTAL     ACCESS:    1268280  HIT:    1268280  MISS:          0
cpu0_ITLB LOAD      ACCESS:    1268280  HIT:    1268280  MISS:          0
cpu0_ITLB RFO       ACCESS:          0  HIT:          0  MISS:          0
cpu0_ITLB PREFETCH  ACCESS:          0  HIT:          0  MISS:          0
cpu0_ITLB WRITEBACK ACCESS:          0  HIT:          0  MISS:          0
cpu0_L1I TOTAL     ACCESS:      97532  HIT:      97532  MISS:          0
cpu0_L1I LOAD      ACCESS:      97532  HIT:      97532  MISS:          0
cpu0_L1I RFO       ACCESS:          0  HIT:          0  MISS:          0
cpu0_L1I PREFETCH  ACCESS:          0  HIT:          0  MISS:          0
cpu0_L1I WRITEBACK ACCESS:          0  HIT:          0  MISS:          0
cpu0_STLB TOTAL     ACCESS:       1143  HIT:       1107  MISS:         36
cpu0_STLB LOAD      ACCESS:        590  HIT:        571  MISS:         19
cpu0_STLB RFO       ACCESS:        553  HIT:        536  MISS:         17
cpu0_STLB PREFETCH  ACCESS:          0  HIT:          0  MISS:          0
cpu0_STLB WRITEBACK ACCESS:          0  HIT:          0  MISS:          0
cpu0_L1D TOTAL     ACCESS:    3038003  HIT:    3008380  MISS:      29623
cpu0_L1D LOAD      ACCESS:    2100534  HIT:    2084357  MISS:      16177
cpu0_L1D RFO       ACCESS:     937434  HIT:     924006  MISS:      13428
cpu0_L1D PREFETCH  ACCESS:          0  HIT:          0  MISS:          0
cpu0_L1D WRITEBACK ACCESS:          0  HIT:          0  MISS:          0
cpu0_L2C TOTAL     ACCESS:      43405  HIT:      28597  MISS:      14808
cpu0_L2C LOAD      ACCESS:      16177  HIT:      14581  MISS:       1596
cpu0_L2C RFO       ACCESS:      13428  HIT:        218  MISS:      13210
cpu0_L2C PREFETCH  ACCESS:          0  HIT:          0  MISS:          0
cpu0_L2C WRITEBACK ACCESS:      13782  HIT:      13782  MISS:          0
LLC TOTAL     ACCESS:      27255  HIT:      26572  MISS:        683
LLC LOAD      ACCESS:       1596  HIT:        958  MISS:        638
LLC RFO       ACCESS:      13210  HIT:      13165  MISS:         45
LLC PREFETCH  ACCESS:          0  HIT:          0  MISS:          0
LLC WRITEBACK ACCESS:      12447  HIT:      12447  MISS:          0
Heartbeat CPU 0 instructions: 66000001 cycles: 27317201 heartbeat IPC: 1.75358 cumulative IPC: 1.83465 (Simulation time: 0 hr 57 min 37 sec) 

Region of Interest Statistics
cpu0_DTLB TOTAL     ACCESS:    3505601  HIT:    3504454  MISS:       1147
cpu0_DTLB LOAD      ACCESS:    2765942  HIT:    2765349  MISS:        593
cpu0_DTLB RFO       ACCESS:     739659  HIT:     739105  MISS:        554
cpu0_DTLB PREFETCH  ACCESS:          0  HIT:          0  MISS:          0
cpu0_DTLB WRITEBACK ACCESS:          0  HIT:          0  MISS:          0
cpu0_ITLB TOTAL     ACCESS:    1447809  HIT:    1447809  MISS:          0
cpu0_ITLB LOAD      ACCESS:    1447809  HIT:    1447809  MISS:          0
cpu0_ITLB RFO       ACCESS:          0  HIT:          0  MISS:          0
cpu0_ITLB PREFETCH  ACCESS:          0  HIT:          0  MISS:          0
cpu0_ITLB WRITEBACK ACCESS:          0  HIT:          0  MISS:          0
cpu0_L1I TOTAL     ACCESS:     107305  HIT:     107305  MISS:          0
cpu0_L1I LOAD      ACCESS:     107305  HIT:     107305  MISS:          0
cpu0_L1I RFO       ACCESS:          0  HIT:          0  MISS:          0
cpu0_L1I PREFETCH  ACCESS:          0  HIT:          0  MISS:          0
cpu0_L1I WRITEBACK ACCESS:          0  HIT:          0  MISS:          0
cpu0_STLB TOTAL     ACCESS:       1147  HIT:       1110  MISS:         37
cpu0_STLB LOAD      ACCESS:        593  HIT:        573  MISS:         20
cpu0_STLB RFO       ACCESS:        554  HIT:        537  MISS:         17
cpu0_STLB PREFETCH  ACCESS:          0  HIT:          0  MISS:          0
cpu0_STLB WRITEBACK ACCESS:          0  HIT:          0  MISS:          0
cpu0_L1D TOTAL     ACCESS:    3494825  HIT:    3464345  MISS:      30480
cpu0_L1D LOAD      ACCESS:    2420078  HIT:    2403760  MISS:      16318
cpu0_L1D RFO       ACCESS:    1074711  HIT:    1060567  MISS:      14144
cpu0_L1D PREFETCH  ACCESS:          0  HIT:          0  MISS:          0
cpu0_L1D WRITEBACK ACCESS:          0  HIT:          0  MISS:          0
cpu0_L2C TOTAL     ACCESS:      44774  HIT:      29194  MISS:      15580
cpu0_L2C LOAD      ACCESS:      16318  HIT:      14666  MISS:       1652
cpu0_L2C RFO       ACCESS:      14144  HIT:        218  MISS:      13926
cpu0_L2C PREFETCH  ACCESS:          0  HIT:          0  MISS:          0
cpu0_L2C WRITEBACK ACCESS:      14294  HIT:      14294  MISS:          0
LLC TOTAL     ACCESS:      28722  HIT:      28039  MISS:        683
LLC LOAD      ACCESS:       1652  HIT:       1014  MISS:        638
LLC RFO       ACCESS:      13926  HIT:      13881  MISS:         45
LLC PREFETCH  ACCESS:          0  HIT:          0  MISS:          0
LLC WRITEBACK ACCESS:      13142  HIT:      13142  MISS:          0
Heartbeat CPU 0 instructions: 68000004 cycles: 28372180 heartbeat IPC: 1.89578 cumulative IPC: 1.84125 (Simulation time: 0 hr 58 min 56 sec) 

Region of Interest Statistics
cpu0_DTLB TOTAL     ACCESS:    3938917  HIT:    3937618  MISS:       1299
cpu0_DTLB LOAD      ACCESS:    3106198  HIT:    3105509  MISS:        689
cpu0_DTLB RFO       ACCESS:     832719  HIT:     832109  MISS:        610
cpu0_DTLB PREFETCH  ACCESS:          0  HIT:          0  MISS:          0
cpu0_DTLB WRITEBACK ACCESS:          0  HIT:          0  MISS:          0
cpu0_ITLB TOTAL     ACCESS:    1629070  HIT:    1629070  MISS:          0
cpu0_ITLB LOAD      ACCESS:    1629070  HIT:    1629070  MISS:          0
cpu0_ITLB RFO       ACCESS:          0  HIT:          0  MISS:          0
cpu0_ITLB PREFETCH  ACCESS:          0  HIT:          0  MISS:          0
cpu0_ITLB WRITEBACK ACCESS:          0  HIT:          0  MISS:          0
cpu0_L1I TOTAL     ACCESS:     123278  HIT:     123278  MISS:          0
cpu0_L1I LOAD      ACCESS:     123278  HIT:     123278  MISS:          0
cpu0_L1I RFO       ACCESS:          0  HIT:          0  MISS:          0
cpu0_L1I PREFETCH  ACCESS:          0  HIT:          0  MISS:          0
cpu0_L1I WRITEBACK ACCESS:          0  HIT:          0  MISS:          0
cpu0_STLB TOTAL     ACCESS:       1299  HIT:       1258  MISS:         41
cpu0_STLB LOAD      ACCESS:        689  HIT:        669  MISS:         20
cpu0_STLB RFO       ACCESS:        610  HIT:        589  MISS:         21
cpu0_STLB PREFETCH  ACCESS:          0  HIT:          0  MISS:          0
cpu0_STLB WRITEBACK ACCESS:          0  HIT:          0  MISS:          0
cpu0_L1D TOTAL     ACCESS:    3918990  HIT:    3882960  MISS:      36030
cpu0_L1D LOAD      ACCESS:    2712249  HIT:    2692785  MISS:      19464
cpu0_L1D RFO       ACCESS:    1206701  HIT:    1190156  MISS:      16545
cpu0_L1D PREFETCH  ACCESS:          0  HIT:          0  MISS:          0
cpu0_L1D WRITEBACK ACCESS:          0  HIT:          0  MISS:          0
cpu0_L2C TOTAL     ACCESS:      52910  HIT:      34664  MISS:      18246
cpu0_L2C LOAD      ACCESS:      19464  HIT:      17505  MISS:       1959
cpu0_L2C RFO       ACCESS:      16545  HIT:        260  MISS:      16285
cpu0_L2C PREFETCH  ACCESS:          0  HIT:          0  MISS:          0
cpu0_L2C WRITEBACK ACCESS:      16880  HIT:      16880  MISS:          0
LLC TOTAL     ACCESS:      33776  HIT:      32969  MISS:        807
LLC LOAD      ACCESS:       1959  HIT:       1203  MISS:        756
LLC RFO       ACCESS:      16285  HIT:      16234  MISS:         51
LLC PREFETCH  ACCESS:          0  HIT:          0  MISS:          0
LLC WRITEBACK ACCESS:      15530  HIT:      15530  MISS:          0
Heartbeat CPU 0 instructions: 70000001 cycles: 29501630 heartbeat IPC: 1.77077 cumulative IPC: 1.83395 (Simulation time: 1 hr 0 min 10 sec) 

Region of Interest Statistics
cpu0_DTLB TOTAL     ACCESS:    4382432  HIT:    4381130  MISS:       1302
cpu0_DTLB LOAD      ACCESS:    3458361  HIT:    3457670  MISS:        691
cpu0_DTLB RFO       ACCESS:     924071  HIT:     923460  MISS:        611
cpu0_DTLB PREFETCH  ACCESS:          0  HIT:          0  MISS:          0
cpu0_DTLB WRITEBACK ACCESS:          0  HIT:          0  MISS:          0
cpu0_ITLB TOTAL     ACCESS:    1808601  HIT:    1808601  MISS:          0
cpu0_ITLB LOAD      ACCESS:    1808601  HIT:    1808601  MISS:          0
cpu0_ITLB RFO       ACCESS:          0  HIT:          0  MISS:          0
cpu0_ITLB PREFETCH  ACCESS:          0  HIT:          0  MISS:          0
cpu0_ITLB WRITEBACK ACCESS:          0  HIT:          0  MISS:          0
cpu0_L1I TOTAL     ACCESS:     132575  HIT:     132575  MISS:          0
cpu0_L1I LOAD      ACCESS:     132575  HIT:     132575  MISS:          0
cpu0_L1I RFO       ACCESS:          0  HIT:          0  MISS:          0
cpu0_L1I PREFETCH  ACCESS:          0  HIT:          0  MISS:          0
cpu0_L1I WRITEBACK ACCESS:          0  HIT:          0  MISS:          0
cpu0_STLB TOTAL     ACCESS:       1302  HIT:       1261  MISS:         41
cpu0_STLB LOAD      ACCESS:        691  HIT:        671  MISS:         20
cpu0_STLB RFO       ACCESS:        611  HIT:        590  MISS:         21
cpu0_STLB PREFETCH  ACCESS:          0  HIT:          0  MISS:          0
cpu0_STLB WRITEBACK ACCESS:          0  HIT:          0  MISS:          0
cpu0_L1D TOTAL     ACCESS:    4373439  HIT:    4336561  MISS:      36878
cpu0_L1D LOAD      ACCESS:    3028770  HIT:    3009171  MISS:      19599
cpu0_L1D RFO       ACCESS:    1344629  HIT:    1327371  MISS:      17258
cpu0_L1D PREFETCH  ACCESS:          0  HIT:          0  MISS:          0
cpu0_L1D WRITEBACK ACCESS:          0  HIT:          0  MISS:          0
cpu0_L2C TOTAL     ACCESS:      54317  HIT:      35297  MISS:      19020
cpu0_L2C LOAD      ACCESS:      19599  HIT:      17579  MISS:       2020
cpu0_L2C RFO       ACCESS:      17258  HIT:        260  MISS:      16998
cpu0_L2C PREFETCH  ACCESS:          0  HIT:          0  MISS:          0
cpu0_L2C WRITEBACK ACCESS:      17439  HIT:      17439  MISS:          0
LLC TOTAL     ACCESS:      35231  HIT:      34421  MISS:        810
LLC LOAD      ACCESS:       2020  HIT:       1263  MISS:        757
LLC RFO       ACCESS:      16998  HIT:      16945  MISS:         53
LLC PREFETCH  ACCESS:          0  HIT:          0  MISS:          0
LLC WRITEBACK ACCESS:      16211  HIT:      16211  MISS:          0
Heartbeat CPU 0 instructions: 72000002 cycles: 30571782 heartbeat IPC: 1.86889 cumulative IPC: 1.83707 (Simulation time: 1 hr 1 min 24 sec) 

Region of Interest Statistics
cpu0_DTLB TOTAL     ACCESS:    4818664  HIT:    4817199  MISS:       1465
cpu0_DTLB LOAD      ACCESS:    3801980  HIT:    3801187  MISS:        793
cpu0_DTLB RFO       ACCESS:    1016684  HIT:    1016012  MISS:        672
cpu0_DTLB PREFETCH  ACCESS:          0  HIT:          0  MISS:          0
cpu0_DTLB WRITEBACK ACCESS:          0  HIT:          0  MISS:          0
cpu0_ITLB TOTAL     ACCESS:    1989749  HIT:    1989749  MISS:          0
cpu0_ITLB LOAD      ACCESS:    1989749  HIT:    1989749  MISS:          0
cpu0_ITLB RFO       ACCESS:          0  HIT:          0  MISS:          0
cpu0_ITLB PREFETCH  ACCESS:          0  HIT:          0  MISS:          0
cpu0_ITLB WRITEBACK ACCESS:          0  HIT:          0  MISS:          0
cpu0_L1I TOTAL     ACCESS:     149392  HIT:     149392  MISS:          0
cpu0_L1I LOAD      ACCESS:     149392  HIT:     149392  MISS:          0
cpu0_L1I RFO       ACCESS:          0  HIT:          0  MISS:          0
cpu0_L1I PREFETCH  ACCESS:          0  HIT:          0  MISS:          0
cpu0_L1I WRITEBACK ACCESS:          0  HIT:          0  MISS:          0
cpu0_STLB TOTAL     ACCESS:       1465  HIT:       1412  MISS:         53
cpu0_STLB LOAD      ACCESS:        793  HIT:        766  MISS:         27
cpu0_STLB RFO       ACCESS:        672  HIT:        646  MISS:         26
cpu0_STLB PREFETCH  ACCESS:          0  HIT:          0  MISS:          0
cpu0_STLB WRITEBACK ACCESS:          0  HIT:          0  MISS:          0
cpu0_L1D TOTAL     ACCESS:    4801532  HIT:    4759049  MISS:      42483
cpu0_L1D LOAD      ACCESS:    3325087  HIT:    3302290  MISS:      22797
cpu0_L1D RFO       ACCESS:    1476393  HIT:    1456733  MISS:      19660
cpu0_L1D PREFETCH  ACCESS:          0  HIT:          0  MISS:          0
cpu0_L1D WRITEBACK ACCESS:          0  HIT:          0  MISS:          0
cpu0_L2C TOTAL     ACCESS:      62362  HIT:      40671  MISS:      21691
cpu0_L2C LOAD      ACCESS:      22797  HIT:      20466  MISS:       2331
cpu0_L2C RFO       ACCESS:      19660  HIT:        302  MISS:      19358
cpu0_L2C PREFETCH  ACCESS:          0  HIT:          0  MISS:          0
cpu0_L2C WRITEBACK ACCESS:      19879  HIT:      19879  MISS:          0
LLC TOTAL     ACCESS:      40330  HIT:      39332  MISS:        998
LLC LOAD      ACCESS:       2331  HIT:       1447  MISS:        884
LLC RFO       ACCESS:      19358  HIT:      19244  MISS:        114
LLC PREFETCH  ACCESS:          0  HIT:          0  MISS:          0
LLC WRITEBACK ACCESS:      18639  HIT:      18639  MISS:          0
Heartbeat CPU 0 instructions: 74000000 cycles: 31610515 heartbeat IPC: 1.92542 cumulative IPC: 1.84412 (Simulation time: 1 hr 2 min 44 sec) 

Region of Interest Statistics
cpu0_DTLB TOTAL     ACCESS:    5244953  HIT:    5243238  MISS:       1715
cpu0_DTLB LOAD      ACCESS:    4130078  HIT:    4129082  MISS:        996
cpu0_DTLB RFO       ACCESS:    1114875  HIT:    1114156  MISS:        719
cpu0_DTLB PREFETCH  ACCESS:          0  HIT:          0  MISS:          0
cpu0_DTLB WRITEBACK ACCESS:          0  HIT:          0  MISS:          0
cpu0_ITLB TOTAL     ACCESS:    2175545  HIT:    2175545  MISS:          0
cpu0_ITLB LOAD      ACCESS:    2175545  HIT:    2175545  MISS:          0
cpu0_ITLB RFO       ACCESS:          0  HIT:          0  MISS:          0
cpu0_ITLB PREFETCH  ACCESS:          0  HIT:          0  MISS:          0
cpu0_ITLB WRITEBACK ACCESS:          0  HIT:          0  MISS:          0
cpu0_L1I TOTAL     ACCESS:     177186  HIT:     177157  MISS:         29
cpu0_L1I LOAD      ACCESS:     177186  HIT:     177157  MISS:         29
cpu0_L1I RFO       ACCESS:          0  HIT:          0  MISS:          0
cpu0_L1I PREFETCH  ACCESS:          0  HIT:          0  MISS:          0
cpu0_L1I WRITEBACK ACCESS:          0  HIT:          0  MISS:          0
cpu0_STLB TOTAL     ACCESS:       1715  HIT:       1646  MISS:         69
cpu0_STLB LOAD      ACCESS:        996  HIT:        956  MISS:         40
cpu0_STLB RFO       ACCESS:        719  HIT:        690  MISS:         29
cpu0_STLB PREFETCH  ACCESS:          0  HIT:          0  MISS:          0
cpu0_STLB WRITEBACK ACCESS:          0  HIT:          0  MISS:          0
cpu0_L1D TOTAL     ACCESS:    5222436  HIT:    5173791  MISS:      48645
cpu0_L1D LOAD      ACCESS:    3605064  HIT:    3578435  MISS:      26629
cpu0_L1D RFO       ACCESS:    1617307  HIT:    1595323  MISS:      21984
cpu0_L1D PREFETCH  ACCESS:          0  HIT:          0  MISS:          0
cpu0_L1D WRITEBACK ACCESS:          0  HIT:          0  MISS:          0
cpu0_L2C TOTAL     ACCESS:      71406  HIT:      46430  MISS:      24976
cpu0_L2C LOAD      ACCESS:      26658  HIT:      23335  MISS:       3323
cpu0_L2C RFO       ACCESS:      21984  HIT:        334  MISS:      21650
cpu0_L2C PREFETCH  ACCESS:          0  HIT:          0  MISS:          0
cpu0_L2C WRITEBACK ACCESS:      22732  HIT:      22732  MISS:          0
LLC TOTAL     ACCESS:      46525  HIT:      45239  MISS:       1286
LLC LOAD      ACCESS:       3323  HIT:       2227  MISS:       1096
LLC RFO       ACCESS:      21650  HIT:      21460  MISS:        190
LLC PREFETCH  ACCESS:          0  HIT:          0  MISS:          0
LLC WRITEBACK ACCESS:      21549  HIT:      21549  MISS:          0
Heartbeat CPU 0 instructions: 76000000 cycles: 32514888 heartbeat IPC: 2.21148 cumulative IPC: 1.86799 (Simulation time: 1 hr 4 min 1 sec) 

Region of Interest Statistics
cpu0_DTLB TOTAL     ACCESS:    5639123  HIT:    5635970  MISS:       3153
cpu0_DTLB LOAD      ACCESS:    4396452  HIT:    4394059  MISS:       2393
cpu0_DTLB RFO       ACCESS:    1242671  HIT:    1241911  MISS:        760
cpu0_DTLB PREFETCH  ACCESS:          0  HIT:          0  MISS:          0
cpu0_DTLB WRITEBACK ACCESS:          0  HIT:          0  MISS:          0
cpu0_ITLB TOTAL     ACCESS:    2375020  HIT:    2375020  MISS:          0
cpu0_ITLB LOAD      ACCESS:    2375020  HIT:    2375020  MISS:          0
cpu0_ITLB RFO       ACCESS:          0  HIT:          0  MISS:          0
cpu0_ITLB PREFETCH  ACCESS:          0  HIT:          0  MISS:          0
cpu0_ITLB WRITEBACK ACCESS:          0  HIT:          0  MISS:          0
cpu0_L1I TOTAL     ACCESS:     305548  HIT:     305483  MISS:         65
cpu0_L1I LOAD      ACCESS:     305548  HIT:     305483  MISS:         65
cpu0_L1I RFO       ACCESS:          0  HIT:          0  MISS:          0
cpu0_L1I PREFETCH  ACCESS:          0  HIT:          0  MISS:          0
cpu0_L1I WRITEBACK ACCESS:          0  HIT:          0  MISS:          0
cpu0_STLB TOTAL     ACCESS:       3153  HIT:       3075  MISS:         78
cpu0_STLB LOAD      ACCESS:       2393  HIT:       2344  MISS:         49
cpu0_STLB RFO       ACCESS:        760  HIT:        731  MISS:         29
cpu0_STLB PREFETCH  ACCESS:          0  HIT:          0  MISS:          0
cpu0_STLB WRITEBACK ACCESS:          0  HIT:          0  MISS:          0
cpu0_L1D TOTAL     ACCESS:    5650646  HIT:    5595031  MISS:      55615
cpu0_L1D LOAD      ACCESS:    3823254  HIT:    3789986  MISS:      33268
cpu0_L1D RFO       ACCESS:    1827318  HIT:    1805008  MISS:      22310
cpu0_L1D PREFETCH  ACCESS:          0  HIT:          0  MISS:          0
cpu0_L1D WRITEBACK ACCESS:          0  HIT:          0  MISS:          0
cpu0_L2C TOTAL     ACCESS:      78758  HIT:      49990  MISS:      28768
cpu0_L2C LOAD      ACCESS:      33333  HIT:      26428  MISS:       6905
cpu0_L2C RFO       ACCESS:      22310  HIT:        451  MISS:      21859
cpu0_L2C PREFETCH  ACCESS:          0  HIT:          0  MISS:          0
cpu0_L2C WRITEBACK ACCESS:      23078  HIT:      23078  MISS:          0
LLC TOTAL     ACCESS:      53569  HIT:      52087  MISS:       1482
LLC LOAD      ACCESS:       6905  HIT:       5617  MISS:       1288
LLC RFO       ACCESS:      21859  HIT:      21665  MISS:        194
LLC PREFETCH  ACCESS:          0  HIT:          0  MISS:          0
LLC WRITEBACK ACCESS:      24801  HIT:      24801  MISS:          0
Heartbeat CPU 0 instructions: 78000000 cycles: 33533818 heartbeat IPC: 1.96284 cumulative IPC: 1.87446 (Simulation time: 1 hr 5 min 19 sec) 

Region of Interest Statistics
cpu0_DTLB TOTAL     ACCESS:    6024628  HIT:    6019978  MISS:       4650
cpu0_DTLB LOAD      ACCESS:    4677734  HIT:    4673882  MISS:       3852
cpu0_DTLB RFO       ACCESS:    1346894  HIT:    1346096  MISS:        798
cpu0_DTLB PREFETCH  ACCESS:          0  HIT:          0  MISS:          0
cpu0_DTLB WRITEBACK ACCESS:          0  HIT:          0  MISS:          0
cpu0_ITLB TOTAL     ACCESS:    2575627  HIT:    2575626  MISS:          1
cpu0_ITLB LOAD      ACCESS:    2575627  HIT:    2575626  MISS:          1
cpu0_ITLB RFO       ACCESS:          0  HIT:          0  MISS:          0
cpu0_ITLB PREFETCH  ACCESS:          0  HIT:          0  MISS:          0
cpu0_ITLB WRITEBACK ACCESS:          0  HIT:          0  MISS:          0
cpu0_L1I TOTAL     ACCESS:     412113  HIT:     411866  MISS:        247
cpu0_L1I LOAD      ACCESS:     412113  HIT:     411866  MISS:        247
cpu0_L1I RFO       ACCESS:          0  HIT:          0  MISS:          0
cpu0_L1I PREFETCH  ACCESS:          0  HIT:          0  MISS:          0
cpu0_L1I WRITEBACK ACCESS:          0  HIT:          0  MISS:          0
cpu0_STLB TOTAL     ACCESS:       4651  HIT:       4568  MISS:         83
cpu0_STLB LOAD      ACCESS:       3853  HIT:       3800  MISS:         53
cpu0_STLB RFO       ACCESS:        798  HIT:        768  MISS:         30
cpu0_STLB PREFETCH  ACCESS:          0  HIT:          0  MISS:          0
cpu0_STLB WRITEBACK ACCESS:          0  HIT:          0  MISS:          0
cpu0_L1D TOTAL     ACCESS:    6033812  HIT:    5969346  MISS:      64466
cpu0_L1D LOAD      ACCESS:    4032903  HIT:    3991223  MISS:      41680
cpu0_L1D RFO       ACCESS:    2000830  HIT:    1978084  MISS:      22746
cpu0_L1D PREFETCH  ACCESS:          0  HIT:          0  MISS:          0
cpu0_L1D WRITEBACK ACCESS:          0  HIT:          0  MISS:          0
cpu0_L2C TOTAL     ACCESS:      88304  HIT:      54454  MISS:      33850
cpu0_L2C LOAD      ACCESS:      41927  HIT:      30189  MISS:      11738
cpu0_L2C RFO       ACCESS:      22746  HIT:        639  MISS:      22107
cpu0_L2C PREFETCH  ACCESS:          0  HIT:          0  MISS:          0
cpu0_L2C WRITEBACK ACCESS:      23591  HIT:      23591  MISS:          0
LLC TOTAL     ACCESS:      60965  HIT:      59454  MISS:       1511
LLC LOAD      ACCESS:      11738  HIT:      10434  MISS:       1304
LLC RFO       ACCESS:      22107  HIT:      21909  MISS:        198
LLC PREFETCH  ACCESS:          0  HIT:          0  MISS:          0
LLC WRITEBACK ACCESS:      27115  HIT:      27106  MISS:          9
Heartbeat CPU 0 instructions: 80000001 cycles: 34615372 heartbeat IPC: 1.84919 cumulative IPC: 1.87275 (Simulation time: 1 hr 6 min 33 sec) 

Region of Interest Statistics
cpu0_DTLB TOTAL     ACCESS:    6409161  HIT:    6403091  MISS:       6070
cpu0_DTLB LOAD      ACCESS:    4962636  HIT:    4957395  MISS:       5241
cpu0_DTLB RFO       ACCESS:    1446525  HIT:    1445696  MISS:        829
cpu0_DTLB PREFETCH  ACCESS:          0  HIT:          0  MISS:          0
cpu0_DTLB WRITEBACK ACCESS:          0  HIT:          0  MISS:          0
cpu0_ITLB TOTAL     ACCESS:    2775620  HIT:    2775619  MISS:          1
cpu0_ITLB LOAD      ACCESS:    2775620  HIT:    2775619  MISS:          1
cpu0_ITLB RFO       ACCESS:          0  HIT:          0  MISS:          0
cpu0_ITLB PREFETCH  ACCESS:          0  HIT:          0  MISS:          0
cpu0_ITLB WRITEBACK ACCESS:          0  HIT:          0  MISS:          0
cpu0_L1I TOTAL     ACCESS:     516122  HIT:     515805  MISS:        317
cpu0_L1I LOAD      ACCESS:     516122  HIT:     515805  MISS:        317
cpu0_L1I RFO       ACCESS:          0  HIT:          0  MISS:          0
cpu0_L1I PREFETCH  ACCESS:          0  HIT:          0  MISS:          0
cpu0_L1I WRITEBACK ACCESS:          0  HIT:          0  MISS:          0
cpu0_STLB TOTAL     ACCESS:       6071  HIT:       5987  MISS:         84
cpu0_STLB LOAD      ACCESS:       5242  HIT:       5188  MISS:         54
cpu0_STLB RFO       ACCESS:        829  HIT:        799  MISS:         30
cpu0_STLB PREFETCH  ACCESS:          0  HIT:          0  MISS:          0
cpu0_STLB WRITEBACK ACCESS:          0  HIT:          0  MISS:          0
cpu0_L1D TOTAL     ACCESS:    6414843  HIT:    6341919  MISS:      72924
cpu0_L1D LOAD      ACCESS:    4246949  HIT:    4197206  MISS:      49743
cpu0_L1D RFO       ACCESS:    2167814  HIT:    2144674  MISS:      23140
cpu0_L1D PREFETCH  ACCESS:          0  HIT:          0  MISS:          0
cpu0_L1D WRITEBACK ACCESS:          0  HIT:          0  MISS:          0
cpu0_L2C TOTAL     ACCESS:      97255  HIT:      57834  MISS:      39421
cpu0_L2C LOAD      ACCESS:      50060  HIT:      32950  MISS:      17110
cpu0_L2C RFO       ACCESS:      23140  HIT:        836  MISS:      22304
cpu0_L2C PREFETCH  ACCESS:          0  HIT:          0  MISS:          0
cpu0_L2C WRITEBACK ACCESS:      24014  HIT:      24013  MISS:          1
LLC TOTAL     ACCESS:      67495  HIT:      65953  MISS:       1542
LLC LOAD      ACCESS:      17110  HIT:      15782  MISS:       1328
LLC RFO       ACCESS:      22304  HIT:      22099  MISS:        205
LLC PREFETCH  ACCESS:          0  HIT:          0  MISS:          0
LLC WRITEBACK ACCESS:      28075  HIT:      28066  MISS:          9
Heartbeat CPU 0 instructions: 82000000 cycles: 35687530 heartbeat IPC: 1.8654 cumulative IPC: 1.87229 (Simulation time: 1 hr 7 min 51 sec) 

Region of Interest Statistics
cpu0_DTLB TOTAL     ACCESS:    6793087  HIT:    6785643  MISS:       7444
cpu0_DTLB LOAD      ACCESS:    5245835  HIT:    5239249  MISS:       6586
cpu0_DTLB RFO       ACCESS:    1547252  HIT:    1546394  MISS:        858
cpu0_DTLB PREFETCH  ACCESS:          0  HIT:          0  MISS:          0
cpu0_DTLB WRITEBACK ACCESS:          0  HIT:          0  MISS:          0
cpu0_ITLB TOTAL     ACCESS:    2973556  HIT:    2973555  MISS:          1
cpu0_ITLB LOAD      ACCESS:    2973556  HIT:    2973555  MISS:          1
cpu0_ITLB RFO       ACCESS:          0  HIT:          0  MISS:          0
cpu0_ITLB PREFETCH  ACCESS:          0  HIT:          0  MISS:          0
cpu0_ITLB WRITEBACK ACCESS:          0  HIT:          0  MISS:          0
cpu0_L1I TOTAL     ACCESS:     620324  HIT:     619983  MISS:        341
cpu0_L1I LOAD      ACCESS:     620324  HIT:     619983  MISS:        341
cpu0_L1I RFO       ACCESS:          0  HIT:          0  MISS:          0
cpu0_L1I PREFETCH  ACCESS:          0  HIT:          0  MISS:          0
cpu0_L1I WRITEBACK ACCESS:          0  HIT:          0  MISS:          0
cpu0_STLB TOTAL     ACCESS:       7445  HIT:       7361  MISS:         84
cpu0_STLB LOAD      ACCESS:       6587  HIT:       6533  MISS:         54
cpu0_STLB RFO       ACCESS:        858  HIT:        828  MISS:         30
cpu0_STLB PREFETCH  ACCESS:          0  HIT:          0  MISS:          0
cpu0_STLB WRITEBACK ACCESS:          0  HIT:          0  MISS:          0
cpu0_L1D TOTAL     ACCESS:    6793806  HIT:    6712542  MISS:      81264
cpu0_L1D LOAD      ACCESS:    4457444  HIT:    4399726  MISS:      57718
cpu0_L1D RFO       ACCESS:    2336282  HIT:    2312777  MISS:      23505
cpu0_L1D PREFETCH  ACCESS:          0  HIT:          0  MISS:          0
cpu0_L1D WRITEBACK ACCESS:          0  HIT:          0  MISS:          0
cpu0_L2C TOTAL     ACCESS:     106050  HIT:      60737  MISS:      45313
cpu0_L2C LOAD      ACCESS:      58059  HIT:      35258  MISS:      22801
cpu0_L2C RFO       ACCESS:      23505  HIT:       1003  MISS:      22502
cpu0_L2C PREFETCH  ACCESS:          0  HIT:          0  MISS:          0
cpu0_L2C WRITEBACK ACCESS:      24445  HIT:      24441  MISS:          4
LLC TOTAL     ACCESS:      73699  HIT:      72121  MISS:       1578
LLC LOAD      ACCESS:      22801  HIT:      21445  MISS:       1356
LLC RFO       ACCESS:      22502  HIT:      22289  MISS:        213
LLC PREFETCH  ACCESS:          0  HIT:          0  MISS:          0
LLC WRITEBACK ACCESS:      28390  HIT:      28381  MISS:          9
Heartbeat CPU 0 instructions: 84000000 cycles: 37197764 heartbeat IPC: 1.3243 cumulative IPC: 1.8278 (Simulation time: 1 hr 9 min 5 sec) 

Region of Interest Statistics
cpu0_DTLB TOTAL     ACCESS:    7197146  HIT:    7188290  MISS:       8856
cpu0_DTLB LOAD      ACCESS:    5561561  HIT:    5553589  MISS:       7972
cpu0_DTLB RFO       ACCESS:    1635585  HIT:    1634701  MISS:        884
cpu0_DTLB PREFETCH  ACCESS:          0  HIT:          0  MISS:          0
cpu0_DTLB WRITEBACK ACCESS:          0  HIT:          0  MISS:          0
cpu0_ITLB TOTAL     ACCESS:    3177183  HIT:    3177182  MISS:          1
cpu0_ITLB LOAD      ACCESS:    3177183  HIT:    3177182  MISS:          1
cpu0_ITLB RFO       ACCESS:          0  HIT:          0  MISS:          0
cpu0_ITLB PREFETCH  ACCESS:          0  HIT:          0  MISS:          0
cpu0_ITLB WRITEBACK ACCESS:          0  HIT:          0  MISS:          0
cpu0_L1I TOTAL     ACCESS:     711816  HIT:     711470  MISS:        346
cpu0_L1I LOAD      ACCESS:     711816  HIT:     711470  MISS:        346
cpu0_L1I RFO       ACCESS:          0  HIT:          0  MISS:          0
cpu0_L1I PREFETCH  ACCESS:          0  HIT:          0  MISS:          0
cpu0_L1I WRITEBACK ACCESS:          0  HIT:          0  MISS:          0
cpu0_STLB TOTAL     ACCESS:       8857  HIT:       8769  MISS:         88
cpu0_STLB LOAD      ACCESS:       7973  HIT:       7915  MISS:         58
cpu0_STLB RFO       ACCESS:        884  HIT:        854  MISS:         30
cpu0_STLB PREFETCH  ACCESS:          0  HIT:          0  MISS:          0
cpu0_STLB WRITEBACK ACCESS:          0  HIT:          0  MISS:          0
cpu0_L1D TOTAL     ACCESS:    7195954  HIT:    7106613  MISS:      89341
cpu0_L1D LOAD      ACCESS:    4710341  HIT:    4644858  MISS:      65483
cpu0_L1D RFO       ACCESS:    2485529  HIT:    2461714  MISS:      23815
cpu0_L1D PREFETCH  ACCESS:          0  HIT:          0  MISS:          0
cpu0_L1D WRITEBACK ACCESS:          0  HIT:          0  MISS:          0
cpu0_L2C TOTAL     ACCESS:     114456  HIT:      63721  MISS:      50735
cpu0_L2C LOAD      ACCESS:      65829  HIT:      37742  MISS:      28087
cpu0_L2C RFO       ACCESS:      23815  HIT:       1179  MISS:      22636
cpu0_L2C PREFETCH  ACCESS:          0  HIT:          0  MISS:          0
cpu0_L2C WRITEBACK ACCESS:      24769  HIT:      24764  MISS:          5
LLC TOTAL     ACCESS:      79352  HIT:      77748  MISS:       1604
LLC LOAD      ACCESS:      28087  HIT:      26708  MISS:       1379
LLC RFO       ACCESS:      22636  HIT:      22420  MISS:        216
LLC PREFETCH  ACCESS:          0  HIT:          0  MISS:          0
LLC WRITEBACK ACCESS:      28622  HIT:      28613  MISS:          9
Heartbeat CPU 0 instructions: 86000000 cycles: 38258007 heartbeat IPC: 1.88636 cumulative IPC: 1.83096 (Simulation time: 1 hr 10 min 24 sec) 

Region of Interest Statistics
cpu0_DTLB TOTAL     ACCESS:    7581128  HIT:    7570597  MISS:      10531
cpu0_DTLB LOAD      ACCESS:    5847647  HIT:    5838038  MISS:       9609
cpu0_DTLB RFO       ACCESS:    1733481  HIT:    1732559  MISS:        922
cpu0_DTLB PREFETCH  ACCESS:          0  HIT:          0  MISS:          0
cpu0_DTLB WRITEBACK ACCESS:          0  HIT:          0  MISS:          0
cpu0_ITLB TOTAL     ACCESS:    3376679  HIT:    3376678  MISS:          1
cpu0_ITLB LOAD      ACCESS:    3376679  HIT:    3376678  MISS:          1
cpu0_ITLB RFO       ACCESS:          0  HIT:          0  MISS:          0
cpu0_ITLB PREFETCH  ACCESS:          0  HIT:          0  MISS:          0
cpu0_ITLB WRITEBACK ACCESS:          0  HIT:          0  MISS:          0
cpu0_L1I TOTAL     ACCESS:     812160  HIT:     811798  MISS:        362
cpu0_L1I LOAD      ACCESS:     812160  HIT:     811798  MISS:        362
cpu0_L1I RFO       ACCESS:          0  HIT:          0  MISS:          0
cpu0_L1I PREFETCH  ACCESS:          0  HIT:          0  MISS:          0
cpu0_L1I WRITEBACK ACCESS:          0  HIT:          0  MISS:          0
cpu0_STLB TOTAL     ACCESS:      10532  HIT:      10444  MISS:         88
cpu0_STLB LOAD      ACCESS:       9610  HIT:       9552  MISS:         58
cpu0_STLB RFO       ACCESS:        922  HIT:        892  MISS:         30
cpu0_STLB PREFETCH  ACCESS:          0  HIT:          0  MISS:          0
cpu0_STLB WRITEBACK ACCESS:          0  HIT:          0  MISS:          0
cpu0_L1D TOTAL     ACCESS:    7568279  HIT:    7470004  MISS:      98275
cpu0_L1D LOAD      ACCESS:    4918884  HIT:    4844911  MISS:      73973
cpu0_L1D RFO       ACCESS:    2649311  HIT:    2625052  MISS:      24259
cpu0_L1D PREFETCH  ACCESS:          0  HIT:          0  MISS:          0
cpu0_L1D WRITEBACK ACCESS:          0  HIT:          0  MISS:          0
cpu0_L2C TOTAL     ACCESS:     123933  HIT:      67364  MISS:      56569
cpu0_L2C LOAD      ACCESS:      74335  HIT:      40604  MISS:      33731
cpu0_L2C RFO       ACCESS:      24259  HIT:       1434  MISS:      22825
cpu0_L2C PREFETCH  ACCESS:          0  HIT:          0  MISS:          0
cpu0_L2C WRITEBACK ACCESS:      25296  HIT:      25290  MISS:          6
LLC TOTAL     ACCESS:      85374  HIT:      83709  MISS:       1665
LLC LOAD      ACCESS:      33731  HIT:      32291  MISS:       1440
LLC RFO       ACCESS:      22825  HIT:      22609  MISS:        216
LLC PREFETCH  ACCESS:          0  HIT:          0  MISS:          0
LLC WRITEBACK ACCESS:      28811  HIT:      28802  MISS:          9
Heartbeat CPU 0 instructions: 88000001 cycles: 39984299 heartbeat IPC: 1.15855 cumulative IPC: 1.77669 (Simulation time: 1 hr 11 min 45 sec) 

Region of Interest Statistics
cpu0_DTLB TOTAL     ACCESS:    8086488  HIT:    8074887  MISS:      11601
cpu0_DTLB LOAD      ACCESS:    6231874  HIT:    6221289  MISS:      10585
cpu0_DTLB RFO       ACCESS:    1854614  HIT:    1853598  MISS:       1016
cpu0_DTLB PREFETCH  ACCESS:          0  HIT:          0  MISS:          0
cpu0_DTLB WRITEBACK ACCESS:          0  HIT:          0  MISS:          0
cpu0_ITLB TOTAL     ACCESS:    3526629  HIT:    3526626  MISS:          3
cpu0_ITLB LOAD      ACCESS:    3526629  HIT:    3526626  MISS:          3
cpu0_ITLB RFO       ACCESS:          0  HIT:          0  MISS:          0
cpu0_ITLB PREFETCH  ACCESS:          0  HIT:          0  MISS:          0
cpu0_ITLB WRITEBACK ACCESS:          0  HIT:          0  MISS:          0
cpu0_L1I TOTAL     ACCESS:     914571  HIT:     913324  MISS:       1247
cpu0_L1I LOAD      ACCESS:     914571  HIT:     913324  MISS:       1247
cpu0_L1I RFO       ACCESS:          0  HIT:          0  MISS:          0
cpu0_L1I PREFETCH  ACCESS:          0  HIT:          0  MISS:          0
cpu0_L1I WRITEBACK ACCESS:          0  HIT:          0  MISS:          0
cpu0_STLB TOTAL     ACCESS:      11604  HIT:      11500  MISS:        104
cpu0_STLB LOAD      ACCESS:      10588  HIT:      10516  MISS:         72
cpu0_STLB RFO       ACCESS:       1016  HIT:        984  MISS:         32
cpu0_STLB PREFETCH  ACCESS:          0  HIT:          0  MISS:          0
cpu0_STLB WRITEBACK ACCESS:          0  HIT:          0  MISS:          0
cpu0_L1D TOTAL     ACCESS:    8133378  HIT:    8031622  MISS:     101756
cpu0_L1D LOAD      ACCESS:    5285330  HIT:    5208696  MISS:      76634
cpu0_L1D RFO       ACCESS:    2847948  HIT:    2822874  MISS:      25074
cpu0_L1D PREFETCH  ACCESS:          0  HIT:          0  MISS:          0
cpu0_L1D WRITEBACK ACCESS:          0  HIT:          0  MISS:          0
cpu0_L2C TOTAL     ACCESS:     128902  HIT:      69321  MISS:      59581
cpu0_L2C LOAD      ACCESS:      77881  HIT:      41727  MISS:      36154
cpu0_L2C RFO       ACCESS:      25074  HIT:       1693  MISS:      23381
cpu0_L2C PREFETCH  ACCESS:          0  HIT:          0  MISS:          0
cpu0_L2C WRITEBACK ACCESS:      25899  HIT:      25863  MISS:         36
LLC TOTAL     ACCESS:      88448  HIT:      86542  MISS:       1906
LLC LOAD      ACCESS:      36154  HIT:      34588  MISS:       1566
LLC RFO       ACCESS:      23381  HIT:      23050  MISS:        331
LLC PREFETCH  ACCESS:          0  HIT:          0  MISS:          0
LLC WRITEBACK ACCESS:      28903  HIT:      28894  MISS:          9
Heartbeat CPU 0 instructions: 90000003 cycles: 41824970 heartbeat IPC: 1.08656 cumulative IPC: 1.722 (Simulation time: 1 hr 12 min 58 sec) 

Region of Interest Statistics
cpu0_DTLB TOTAL     ACCESS:    8609959  HIT:    8598016  MISS:      11943
cpu0_DTLB LOAD      ACCESS:    6607667  HIT:    6596805  MISS:      10862
cpu0_DTLB RFO       ACCESS:    2002292  HIT:    2001211  MISS:       1081
cpu0_DTLB PREFETCH  ACCESS:          0  HIT:          0  MISS:          0
cpu0_DTLB WRITEBACK ACCESS:          0  HIT:          0  MISS:          0
cpu0_ITLB TOTAL     ACCESS:    3676144  HIT:    3676141  MISS:          3
cpu0_ITLB LOAD      ACCESS:    3676144  HIT:    3676141  MISS:          3
cpu0_ITLB RFO       ACCESS:          0  HIT:          0  MISS:          0
cpu0_ITLB PREFETCH  ACCESS:          0  HIT:          0  MISS:          0
cpu0_ITLB WRITEBACK ACCESS:          0  HIT:          0  MISS:          0
cpu0_L1I TOTAL     ACCESS:    1033638  HIT:    1031618  MISS:       2020
cpu0_L1I LOAD      ACCESS:    1033638  HIT:    1031618  MISS:       2020
cpu0_L1I RFO       ACCESS:          0  HIT:          0  MISS:          0
cpu0_L1I PREFETCH  ACCESS:          0  HIT:          0  MISS:          0
cpu0_L1I WRITEBACK ACCESS:          0  HIT:          0  MISS:          0
cpu0_STLB TOTAL     ACCESS:      11946  HIT:      11842  MISS:        104
cpu0_STLB LOAD      ACCESS:      10865  HIT:      10793  MISS:         72
cpu0_STLB RFO       ACCESS:       1081  HIT:       1049  MISS:         32
cpu0_STLB PREFETCH  ACCESS:          0  HIT:          0  MISS:          0
cpu0_STLB WRITEBACK ACCESS:          0  HIT:          0  MISS:          0
cpu0_L1D TOTAL     ACCESS:    8746163  HIT:    8644247  MISS:     101916
cpu0_L1D LOAD      ACCESS:    5653957  HIT:    5577224  MISS:      76733
cpu0_L1D RFO       ACCESS:    3092106  HIT:    3066971  MISS:      25135
cpu0_L1D PREFETCH  ACCESS:          0  HIT:          0  MISS:          0
cpu0_L1D WRITEBACK ACCESS:          0  HIT:          0  MISS:          0
cpu0_L2C TOTAL     ACCESS:     129921  HIT:      70324  MISS:      59597
cpu0_L2C LOAD      ACCESS:      78753  HIT:      42583  MISS:      36170
cpu0_L2C RFO       ACCESS:      25135  HIT:       1754  MISS:      23381
cpu0_L2C PREFETCH  ACCESS:          0  HIT:          0  MISS:          0
cpu0_L2C WRITEBACK ACCESS:      25985  HIT:      25949  MISS:         36
LLC TOTAL     ACCESS:      88464  HIT:      86558  MISS:       1906
LLC LOAD      ACCESS:      36170  HIT:      34604  MISS:       1566
LLC RFO       ACCESS:      23381  HIT:      23050  MISS:        331
LLC PREFETCH  ACCESS:          0  HIT:          0  MISS:          0
LLC WRITEBACK ACCESS:      28903  HIT:      28894  MISS:          9
Heartbeat CPU 0 instructions: 92000000 cycles: 43512831 heartbeat IPC: 1.18493 cumulative IPC: 1.68562 (Simulation time: 1 hr 14 min 15 sec) 

Region of Interest Statistics
cpu0_DTLB TOTAL     ACCESS:    9122144  HIT:    9109817  MISS:      12327
cpu0_DTLB LOAD      ACCESS:    6982164  HIT:    6971004  MISS:      11160
cpu0_DTLB RFO       ACCESS:    2139980  HIT:    2138813  MISS:       1167
cpu0_DTLB PREFETCH  ACCESS:          0  HIT:          0  MISS:          0
cpu0_DTLB WRITEBACK ACCESS:          0  HIT:          0  MISS:          0
cpu0_ITLB TOTAL     ACCESS:    3833711  HIT:    3833705  MISS:          6
cpu0_ITLB LOAD      ACCESS:    3833711  HIT:    3833705  MISS:          6
cpu0_ITLB RFO       ACCESS:          0  HIT:          0  MISS:          0
cpu0_ITLB PREFETCH  ACCESS:          0  HIT:          0  MISS:          0
cpu0_ITLB WRITEBACK ACCESS:          0  HIT:          0  MISS:          0
cpu0_L1I TOTAL     ACCESS:    1127764  HIT:    1124949  MISS:       2815
cpu0_L1I LOAD      ACCESS:    1127764  HIT:    1124949  MISS:       2815
cpu0_L1I RFO       ACCESS:          0  HIT:          0  MISS:          0
cpu0_L1I PREFETCH  ACCESS:          0  HIT:          0  MISS:          0
cpu0_L1I WRITEBACK ACCESS:          0  HIT:          0  MISS:          0
cpu0_STLB TOTAL     ACCESS:      12333  HIT:      12223  MISS:        110
cpu0_STLB LOAD      ACCESS:      11166  HIT:      11088  MISS:         78
cpu0_STLB RFO       ACCESS:       1167  HIT:       1135  MISS:         32
cpu0_STLB PREFETCH  ACCESS:          0  HIT:          0  MISS:          0
cpu0_STLB WRITEBACK ACCESS:          0  HIT:          0  MISS:          0
cpu0_L1D TOTAL     ACCESS:    9320361  HIT:    9217778  MISS:     102583
cpu0_L1D LOAD      ACCESS:    6009995  HIT:    5932912  MISS:      77083
cpu0_L1D RFO       ACCESS:    3310260  HIT:    3284810  MISS:      25450
cpu0_L1D PREFETCH  ACCESS:          0  HIT:          0  MISS:          0
cpu0_L1D WRITEBACK ACCESS:          0  HIT:          0  MISS:          0
cpu0_L2C TOTAL     ACCESS:     131718  HIT:      71459  MISS:      60259
cpu0_L2C LOAD      ACCESS:      79898  HIT:      43284  MISS:      36614
cpu0_L2C RFO       ACCESS:      25450  HIT:       1851  MISS:      23599
cpu0_L2C PREFETCH  ACCESS:          0  HIT:          0  MISS:          0
cpu0_L2C WRITEBACK ACCESS:      26320  HIT:      26284  MISS:         36
LLC TOTAL     ACCESS:      89143  HIT:      87120  MISS:       2023
LLC LOAD      ACCESS:      36614  HIT:      34969  MISS:       1645
LLC RFO       ACCESS:      23599  HIT:      23230  MISS:        369
LLC PREFETCH  ACCESS:          0  HIT:          0  MISS:          0
LLC WRITEBACK ACCESS:      28920  HIT:      28911  MISS:          9
Heartbeat CPU 0 instructions: 94000000 cycles: 44634086 heartbeat IPC: 1.78372 cumulative IPC: 1.68984 (Simulation time: 1 hr 15 min 36 sec) 

Region of Interest Statistics
cpu0_DTLB TOTAL     ACCESS:    9568826  HIT:    9556495  MISS:      12331
cpu0_DTLB LOAD      ACCESS:    7326452  HIT:    7315289  MISS:      11163
cpu0_DTLB RFO       ACCESS:    2242374  HIT:    2241206  MISS:       1168
cpu0_DTLB PREFETCH  ACCESS:          0  HIT:          0  MISS:          0
cpu0_DTLB WRITEBACK ACCESS:          0  HIT:          0  MISS:          0
cpu0_ITLB TOTAL     ACCESS:    4019251  HIT:    4019245  MISS:          6
cpu0_ITLB LOAD      ACCESS:    4019251  HIT:    4019245  MISS:          6
cpu0_ITLB RFO       ACCESS:          0  HIT:          0  MISS:          0
cpu0_ITLB PREFETCH  ACCESS:          0  HIT:          0  MISS:          0
cpu0_ITLB WRITEBACK ACCESS:          0  HIT:          0  MISS:          0
cpu0_L1I TOTAL     ACCESS:    1137049  HIT:    1134234  MISS:       2815
cpu0_L1I LOAD      ACCESS:    1137049  HIT:    1134234  MISS:       2815
cpu0_L1I RFO       ACCESS:          0  HIT:          0  MISS:          0
cpu0_L1I PREFETCH  ACCESS:          0  HIT:          0  MISS:          0
cpu0_L1I WRITEBACK ACCESS:          0  HIT:          0  MISS:          0
cpu0_STLB TOTAL     ACCESS:      12337  HIT:      12225  MISS:        112
cpu0_STLB LOAD      ACCESS:      11169  HIT:      11089  MISS:         80
cpu0_STLB RFO       ACCESS:       1168  HIT:       1136  MISS:         32
cpu0_STLB PREFETCH  ACCESS:          0  HIT:          0  MISS:          0
cpu0_STLB WRITEBACK ACCESS:          0  HIT:          0  MISS:          0
cpu0_L1D TOTAL     ACCESS:    9756572  HIT:    9653147  MISS:     103425
cpu0_L1D LOAD      ACCESS:    6308575  HIT:    6231350  MISS:      77225
cpu0_L1D RFO       ACCESS:    3447889  HIT:    3421739  MISS:      26150
cpu0_L1D PREFETCH  ACCESS:          0  HIT:          0  MISS:          0
cpu0_L1D WRITEBACK ACCESS:          0  HIT:          0  MISS:          0
cpu0_L2C TOTAL     ACCESS:     133091  HIT:      72155  MISS:      60936
cpu0_L2C LOAD      ACCESS:      80040  HIT:      43342  MISS:      36698
cpu0_L2C RFO       ACCESS:      26150  HIT:       1967  MISS:      24183
cpu0_L2C PREFETCH  ACCESS:          0  HIT:          0  MISS:          0
cpu0_L2C WRITEBACK ACCESS:      26851  HIT:      26806  MISS:         45
LLC TOTAL     ACCESS:      89831  HIT:      87766  MISS:       2065
LLC LOAD      ACCESS:      36698  HIT:      35011  MISS:       1687
LLC RFO       ACCESS:      24183  HIT:      23814  MISS:        369
LLC PREFETCH  ACCESS:          0  HIT:          0  MISS:          0
LLC WRITEBACK ACCESS:      28940  HIT:      28931  MISS:          9
Heartbeat CPU 0 instructions: 96000004 cycles: 45673539 heartbeat IPC: 1.92409 cumulative IPC: 1.69884 (Simulation time: 1 hr 16 min 59 sec) 

Region of Interest Statistics
cpu0_DTLB TOTAL     ACCESS:    9998333  HIT:    9985515  MISS:      12818
cpu0_DTLB LOAD      ACCESS:    7655654  HIT:    7644271  MISS:      11383
cpu0_DTLB RFO       ACCESS:    2342679  HIT:    2341244  MISS:       1435
cpu0_DTLB PREFETCH  ACCESS:          0  HIT:          0  MISS:          0
cpu0_DTLB WRITEBACK ACCESS:          0  HIT:          0  MISS:          0
cpu0_ITLB TOTAL     ACCESS:    4203324  HIT:    4203318  MISS:          6
cpu0_ITLB LOAD      ACCESS:    4203324  HIT:    4203318  MISS:          6
cpu0_ITLB RFO       ACCESS:          0  HIT:          0  MISS:          0
cpu0_ITLB PREFETCH  ACCESS:          0  HIT:          0  MISS:          0
cpu0_ITLB WRITEBACK ACCESS:          0  HIT:          0  MISS:          0
cpu0_L1I TOTAL     ACCESS:    1162061  HIT:    1159152  MISS:       2909
cpu0_L1I LOAD      ACCESS:    1162061  HIT:    1159152  MISS:       2909
cpu0_L1I RFO       ACCESS:          0  HIT:          0  MISS:          0
cpu0_L1I PREFETCH  ACCESS:          0  HIT:          0  MISS:          0
cpu0_L1I WRITEBACK ACCESS:          0  HIT:          0  MISS:          0
cpu0_STLB TOTAL     ACCESS:      12824  HIT:      12688  MISS:        136
cpu0_STLB LOAD      ACCESS:      11389  HIT:      11287  MISS:        102
cpu0_STLB RFO       ACCESS:       1435  HIT:       1401  MISS:         34
cpu0_STLB PREFETCH  ACCESS:          0  HIT:          0  MISS:          0
cpu0_STLB WRITEBACK ACCESS:          0  HIT:          0  MISS:          0
cpu0_L1D TOTAL     ACCESS:   10162401  HIT:   10053416  MISS:     108985
cpu0_L1D LOAD      ACCESS:    6584610  HIT:    6504211  MISS:      80399
cpu0_L1D RFO       ACCESS:    3577665  HIT:    3549131  MISS:      28534
cpu0_L1D PREFETCH  ACCESS:          0  HIT:          0  MISS:          0
cpu0_L1D WRITEBACK ACCESS:          0  HIT:          0  MISS:          0
cpu0_L2C TOTAL     ACCESS:     141279  HIT:      77668  MISS:      63611
cpu0_L2C LOAD      ACCESS:      83308  HIT:      46192  MISS:      37116
cpu0_L2C RFO       ACCESS:      28534  HIT:       2094  MISS:      26440
cpu0_L2C PREFETCH  ACCESS:          0  HIT:          0  MISS:          0
cpu0_L2C WRITEBACK ACCESS:      29385  HIT:      29340  MISS:         45
LLC TOTAL     ACCESS:      92697  HIT:      90381  MISS:       2316
LLC LOAD      ACCESS:      37116  HIT:      35178  MISS:       1938
LLC RFO       ACCESS:      26440  HIT:      26071  MISS:        369
LLC PREFETCH  ACCESS:          0  HIT:          0  MISS:          0
LLC WRITEBACK ACCESS:      29131  HIT:      29122  MISS:          9
Heartbeat CPU 0 instructions: 98000003 cycles: 46773406 heartbeat IPC: 1.8184 cumulative IPC: 1.7035 (Simulation time: 1 hr 18 min 21 sec) 

Region of Interest Statistics
cpu0_DTLB TOTAL     ACCESS:   10438606  HIT:   10425007  MISS:      13599
cpu0_DTLB LOAD      ACCESS:    7997918  HIT:    7986171  MISS:      11747
cpu0_DTLB RFO       ACCESS:    2440688  HIT:    2438836  MISS:       1852
cpu0_DTLB PREFETCH  ACCESS:          0  HIT:          0  MISS:          0
cpu0_DTLB WRITEBACK ACCESS:          0  HIT:          0  MISS:          0
cpu0_ITLB TOTAL     ACCESS:    4381263  HIT:    4381257  MISS:          6
cpu0_ITLB LOAD      ACCESS:    4381263  HIT:    4381257  MISS:          6
cpu0_ITLB RFO       ACCESS:          0  HIT:          0  MISS:          0
cpu0_ITLB PREFETCH  ACCESS:          0  HIT:          0  MISS:          0
cpu0_ITLB WRITEBACK ACCESS:          0  HIT:          0  MISS:          0
cpu0_L1I TOTAL     ACCESS:    1171873  HIT:    1168964  MISS:       2909
cpu0_L1I LOAD      ACCESS:    1171873  HIT:    1168964  MISS:       2909
cpu0_L1I RFO       ACCESS:          0  HIT:          0  MISS:          0
cpu0_L1I PREFETCH  ACCESS:          0  HIT:          0  MISS:          0
cpu0_L1I WRITEBACK ACCESS:          0  HIT:          0  MISS:          0
cpu0_STLB TOTAL     ACCESS:      13605  HIT:      13468  MISS:        137
cpu0_STLB LOAD      ACCESS:      11753  HIT:      11650  MISS:        103
cpu0_STLB RFO       ACCESS:       1852  HIT:       1818  MISS:         34
cpu0_STLB PREFETCH  ACCESS:          0  HIT:          0  MISS:          0
cpu0_STLB WRITEBACK ACCESS:          0  HIT:          0  MISS:          0
cpu0_L1D TOTAL     ACCESS:   10596192  HIT:   10485591  MISS:     110601
cpu0_L1D LOAD      ACCESS:    6882312  HIT:    6801314  MISS:      80998
cpu0_L1D RFO       ACCESS:    3713753  HIT:    3684203  MISS:      29550
cpu0_L1D PREFETCH  ACCESS:          0  HIT:          0  MISS:          0
cpu0_L1D WRITEBACK ACCESS:          0  HIT:          0  MISS:          0
cpu0_L2C TOTAL     ACCESS:     144011  HIT:      79401  MISS:      64610
cpu0_L2C LOAD      ACCESS:      83907  HIT:      46764  MISS:      37143
cpu0_L2C RFO       ACCESS:      29550  HIT:       2138  MISS:      27412
cpu0_L2C PREFETCH  ACCESS:          0  HIT:          0  MISS:          0
cpu0_L2C WRITEBACK ACCESS:      30501  HIT:      30456  MISS:         45
LLC TOTAL     ACCESS:      93958  HIT:      91623  MISS:       2335
LLC LOAD      ACCESS:      37143  HIT:      35186  MISS:       1957
LLC RFO       ACCESS:      27412  HIT:      27043  MISS:        369
LLC PREFETCH  ACCESS:          0  HIT:          0  MISS:          0
LLC WRITEBACK ACCESS:      29393  HIT:      29384  MISS:          9
Heartbeat CPU 0 instructions: 100000002 cycles: 47832791 heartbeat IPC: 1.88789 cumulative IPC: 1.71018 (Simulation time: 1 hr 19 min 40 sec) 

Region of Interest Statistics
cpu0_DTLB TOTAL     ACCESS:   10874551  HIT:   10860819  MISS:      13732
cpu0_DTLB LOAD      ACCESS:    8331584  HIT:    8319754  MISS:      11830
cpu0_DTLB RFO       ACCESS:    2542967  HIT:    2541065  MISS:       1902
cpu0_DTLB PREFETCH  ACCESS:          0  HIT:          0  MISS:          0
cpu0_DTLB WRITEBACK ACCESS:          0  HIT:          0  MISS:          0
cpu0_ITLB TOTAL     ACCESS:    4570061  HIT:    4570055  MISS:          6
cpu0_ITLB LOAD      ACCESS:    4570061  HIT:    4570055  MISS:          6
cpu0_ITLB RFO       ACCESS:          0  HIT:          0  MISS:          0
cpu0_ITLB PREFETCH  ACCESS:          0  HIT:          0  MISS:          0
cpu0_ITLB WRITEBACK ACCESS:          0  HIT:          0  MISS:          0
cpu0_L1I TOTAL     ACCESS:    1196661  HIT:    1193748  MISS:       2913
cpu0_L1I LOAD      ACCESS:    1196661  HIT:    1193748  MISS:       2913
cpu0_L1I RFO       ACCESS:          0  HIT:          0  MISS:          0
cpu0_L1I PREFETCH  ACCESS:          0  HIT:          0  MISS:          0
cpu0_L1I WRITEBACK ACCESS:          0  HIT:          0  MISS:          0
cpu0_STLB TOTAL     ACCESS:      13738  HIT:      13575  MISS:        163
cpu0_STLB LOAD      ACCESS:      11836  HIT:      11709  MISS:        127
cpu0_STLB RFO       ACCESS:       1902  HIT:       1866  MISS:         36
cpu0_STLB PREFETCH  ACCESS:          0  HIT:          0  MISS:          0
cpu0_STLB WRITEBACK ACCESS:          0  HIT:          0  MISS:          0
cpu0_L1D TOTAL     ACCESS:   11008214  HIT:   10892811  MISS:     115403
cpu0_L1D LOAD      ACCESS:    7163834  HIT:    7080119  MISS:      83715
cpu0_L1D RFO       ACCESS:    3844234  HIT:    3812602  MISS:      31632
cpu0_L1D PREFETCH  ACCESS:          0  HIT:          0  MISS:          0
cpu0_L1D WRITEBACK ACCESS:          0  HIT:          0  MISS:          0
cpu0_L2C TOTAL     ACCESS:     150708  HIT:      83755  MISS:      66953
cpu0_L2C LOAD      ACCESS:      86628  HIT:      49156  MISS:      37472
cpu0_L2C RFO       ACCESS:      31632  HIT:       2207  MISS:      29425
cpu0_L2C PREFETCH  ACCESS:          0  HIT:          0  MISS:          0
cpu0_L2C WRITEBACK ACCESS:      32392  HIT:      32347  MISS:         45
LLC TOTAL     ACCESS:      97022  HIT:      94422  MISS:       2600
LLC LOAD      ACCESS:      37472  HIT:      35262  MISS:       2210
LLC RFO       ACCESS:      29425  HIT:      29044  MISS:        381
LLC PREFETCH  ACCESS:          0  HIT:          0  MISS:          0
LLC WRITEBACK ACCESS:      30114  HIT:      30105  MISS:          9
Heartbeat CPU 0 instructions: 102000004 cycles: 48866063 heartbeat IPC: 1.9356 cumulative IPC: 1.71788 (Simulation time: 1 hr 21 min 3 sec) 

Region of Interest Statistics
cpu0_DTLB TOTAL     ACCESS:   11301030  HIT:   11287157  MISS:      13873
cpu0_DTLB LOAD      ACCESS:    8659626  HIT:    8647711  MISS:      11915
cpu0_DTLB RFO       ACCESS:    2641404  HIT:    2639446  MISS:       1958
cpu0_DTLB PREFETCH  ACCESS:          0  HIT:          0  MISS:          0
cpu0_DTLB WRITEBACK ACCESS:          0  HIT:          0  MISS:          0
cpu0_ITLB TOTAL     ACCESS:    4752203  HIT:    4752197  MISS:          6
cpu0_ITLB LOAD      ACCESS:    4752203  HIT:    4752197  MISS:          6
cpu0_ITLB RFO       ACCESS:          0  HIT:          0  MISS:          0
cpu0_ITLB PREFETCH  ACCESS:          0  HIT:          0  MISS:          0
cpu0_ITLB WRITEBACK ACCESS:          0  HIT:          0  MISS:          0
cpu0_L1I TOTAL     ACCESS:    1221263  HIT:    1218350  MISS:       2913
cpu0_L1I LOAD      ACCESS:    1221263  HIT:    1218350  MISS:       2913
cpu0_L1I RFO       ACCESS:          0  HIT:          0  MISS:          0
cpu0_L1I PREFETCH  ACCESS:          0  HIT:          0  MISS:          0
cpu0_L1I WRITEBACK ACCESS:          0  HIT:          0  MISS:          0
cpu0_STLB TOTAL     ACCESS:      13879  HIT:      13689  MISS:        190
cpu0_STLB LOAD      ACCESS:      11921  HIT:      11770  MISS:        151
cpu0_STLB RFO       ACCESS:       1958  HIT:       1919  MISS:         39
cpu0_STLB PREFETCH  ACCESS:          0  HIT:          0  MISS:          0
cpu0_STLB WRITEBACK ACCESS:          0  HIT:          0  MISS:          0
cpu0_L1D TOTAL     ACCESS:   11415251  HIT:   11294266  MISS:     120985
cpu0_L1D LOAD      ACCESS:    7439124  HIT:    7352217  MISS:      86907
cpu0_L1D RFO       ACCESS:    3975961  HIT:    3941942  MISS:      34019
cpu0_L1D PREFETCH  ACCESS:          0  HIT:          0  MISS:          0
cpu0_L1D WRITEBACK ACCESS:          0  HIT:          0  MISS:          0
cpu0_L2C TOTAL     ACCESS:     158924  HIT:      89338  MISS:      69586
cpu0_L2C LOAD      ACCESS:      89820  HIT:      52050  MISS:      37770
cpu0_L2C RFO       ACCESS:      34019  HIT:       2259  MISS:      31760
cpu0_L2C PREFETCH  ACCESS:          0  HIT:          0  MISS:          0
cpu0_L2C WRITEBACK ACCESS:      35026  HIT:      34981  MISS:         45
LLC TOTAL     ACCESS:     101462  HIT:      98626  MISS:       2836
LLC LOAD      ACCESS:      37770  HIT:      35331  MISS:       2439
LLC RFO       ACCESS:      31760  HIT:      31374  MISS:        386
LLC PREFETCH  ACCESS:          0  HIT:          0  MISS:          0
LLC WRITEBACK ACCESS:      31921  HIT:      31910  MISS:         11
Heartbeat CPU 0 instructions: 104000000 cycles: 49989179 heartbeat IPC: 1.78076 cumulative IPC: 1.72013 (Simulation time: 1 hr 22 min 23 sec) 

Region of Interest Statistics
cpu0_DTLB TOTAL     ACCESS:   11749131  HIT:   11735256  MISS:      13875
cpu0_DTLB LOAD      ACCESS:    9006072  HIT:    8994156  MISS:      11916
cpu0_DTLB RFO       ACCESS:    2743059  HIT:    2741100  MISS:       1959
cpu0_DTLB PREFETCH  ACCESS:          0  HIT:          0  MISS:          0
cpu0_DTLB WRITEBACK ACCESS:          0  HIT:          0  MISS:          0
cpu0_ITLB TOTAL     ACCESS:    4936866  HIT:    4936860  MISS:          6
cpu0_ITLB LOAD      ACCESS:    4936866  HIT:    4936860  MISS:          6
cpu0_ITLB RFO       ACCESS:          0  HIT:          0  MISS:          0
cpu0_ITLB PREFETCH  ACCESS:          0  HIT:          0  MISS:          0
cpu0_ITLB WRITEBACK ACCESS:          0  HIT:          0  MISS:          0
cpu0_L1I TOTAL     ACCESS:    1230931  HIT:    1228018  MISS:       2913
cpu0_L1I LOAD      ACCESS:    1230931  HIT:    1228018  MISS:       2913
cpu0_L1I RFO       ACCESS:          0  HIT:          0  MISS:          0
cpu0_L1I PREFETCH  ACCESS:          0  HIT:          0  MISS:          0
cpu0_L1I WRITEBACK ACCESS:          0  HIT:          0  MISS:          0
cpu0_STLB TOTAL     ACCESS:      13881  HIT:      13691  MISS:        190
cpu0_STLB LOAD      ACCESS:      11922  HIT:      11771  MISS:        151
cpu0_STLB RFO       ACCESS:       1959  HIT:       1920  MISS:         39
cpu0_STLB PREFETCH  ACCESS:          0  HIT:          0  MISS:          0
cpu0_STLB WRITEBACK ACCESS:          0  HIT:          0  MISS:          0
cpu0_L1D TOTAL     ACCESS:   11852554  HIT:   11730720  MISS:     121834
cpu0_L1D LOAD      ACCESS:    7740598  HIT:    7653550  MISS:      87048
cpu0_L1D RFO       ACCESS:    4111790  HIT:    4077063  MISS:      34727
cpu0_L1D PREFETCH  ACCESS:          0  HIT:          0  MISS:          0
cpu0_L1D WRITEBACK ACCESS:          0  HIT:          0  MISS:          0
cpu0_L2C TOTAL     ACCESS:     160244  HIT:      89902  MISS:      70342
cpu0_L2C LOAD      ACCESS:      89961  HIT:      52142  MISS:      37819
cpu0_L2C RFO       ACCESS:      34727  HIT:       2260  MISS:      32467
cpu0_L2C PREFETCH  ACCESS:          0  HIT:          0  MISS:          0
cpu0_L2C WRITEBACK ACCESS:      35497  HIT:      35452  MISS:         45
LLC TOTAL     ACCESS:     102784  HIT:      99908  MISS:       2876
LLC LOAD      ACCESS:      37819  HIT:      35340  MISS:       2479
LLC RFO       ACCESS:      32467  HIT:      32081  MISS:        386
LLC PREFETCH  ACCESS:          0  HIT:          0  MISS:          0
LLC WRITEBACK ACCESS:      32487  HIT:      32476  MISS:         11
Heartbeat CPU 0 instructions: 106000003 cycles: 51018236 heartbeat IPC: 1.94353 cumulative IPC: 1.72722 (Simulation time: 1 hr 23 min 44 sec) 

Region of Interest Statistics
cpu0_DTLB TOTAL     ACCESS:   12177770  HIT:   12163753  MISS:      14017
cpu0_DTLB LOAD      ACCESS:    9334247  HIT:    9322246  MISS:      12001
cpu0_DTLB RFO       ACCESS:    2843523  HIT:    2841507  MISS:       2016
cpu0_DTLB PREFETCH  ACCESS:          0  HIT:          0  MISS:          0
cpu0_DTLB WRITEBACK ACCESS:          0  HIT:          0  MISS:          0
cpu0_ITLB TOTAL     ACCESS:    5120975  HIT:    5120969  MISS:          6
cpu0_ITLB LOAD      ACCESS:    5120975  HIT:    5120969  MISS:          6
cpu0_ITLB RFO       ACCESS:          0  HIT:          0  MISS:          0
cpu0_ITLB PREFETCH  ACCESS:          0  HIT:          0  MISS:          0
cpu0_ITLB WRITEBACK ACCESS:          0  HIT:          0  MISS:          0
cpu0_L1I TOTAL     ACCESS:    1256009  HIT:    1253096  MISS:       2913
cpu0_L1I LOAD      ACCESS:    1256009  HIT:    1253096  MISS:       2913
cpu0_L1I RFO       ACCESS:          0  HIT:          0  MISS:          0
cpu0_L1I PREFETCH  ACCESS:          0  HIT:          0  MISS:          0
cpu0_L1I WRITEBACK ACCESS:          0  HIT:          0  MISS:          0
cpu0_STLB TOTAL     ACCESS:      14023  HIT:      13807  MISS:        216
cpu0_STLB LOAD      ACCESS:      12007  HIT:      11833  MISS:        174
cpu0_STLB RFO       ACCESS:       2016  HIT:       1974  MISS:         42
cpu0_STLB PREFETCH  ACCESS:          0  HIT:          0  MISS:          0
cpu0_STLB WRITEBACK ACCESS:          0  HIT:          0  MISS:          0
cpu0_L1D TOTAL     ACCESS:   12258204  HIT:   12130819  MISS:     127385
cpu0_L1D LOAD      ACCESS:    8015508  HIT:    7925292  MISS:      90216
cpu0_L1D RFO       ACCESS:    4242510  HIT:    4205405  MISS:      37105
cpu0_L1D PREFETCH  ACCESS:          0  HIT:          0  MISS:          0
cpu0_L1D WRITEBACK ACCESS:          0  HIT:          0  MISS:          0
cpu0_L2C TOTAL     ACCESS:     168370  HIT:      95380  MISS:      72990
cpu0_L2C LOAD      ACCESS:      93129  HIT:      54998  MISS:      38131
cpu0_L2C RFO       ACCESS:      37105  HIT:       2302  MISS:      34803
cpu0_L2C PREFETCH  ACCESS:          0  HIT:          0  MISS:          0
[...]

ChampSim completed all CPUs

Region of Interest Statistics

CPU 0 cumulative IPC: 1.60782 instructions: 1500000004 cycles: 932938178
cpu0_DTLB TOTAL     ACCESS:  334575393  HIT:  334108789  MISS:     466604
cpu0_DTLB LOAD      ACCESS:  270612178  HIT:  270201699  MISS:     410479
cpu0_DTLB RFO       ACCESS:   63963215  HIT:   63907090  MISS:      56125
cpu0_DTLB PREFETCH  ACCESS:          0  HIT:          0  MISS:          0
cpu0_DTLB WRITEBACK ACCESS:          0  HIT:          0  MISS:          0
cpu0_DTLB TRANSLATION ACCESS:          0  HIT:          0  MISS:          0
cpu0_DTLB PREFETCH  REQUESTED:          0  ISSUED:          0  USEFUL:          0  USELESS:          0
cpu0_DTLB AVERAGE MISS LATENCY: 9.42736 cycles
cpu0_ITLB TOTAL     ACCESS:  120580830  HIT:  120580614  MISS:        216
cpu0_ITLB LOAD      ACCESS:  120580830  HIT:  120580614  MISS:        216
cpu0_ITLB RFO       ACCESS:          0  HIT:          0  MISS:          0
cpu0_ITLB PREFETCH  ACCESS:          0  HIT:          0  MISS:          0
cpu0_ITLB WRITEBACK ACCESS:          0  HIT:          0  MISS:          0
cpu0_ITLB TRANSLATION ACCESS:          0  HIT:          0  MISS:          0
cpu0_ITLB PREFETCH  REQUESTED:          0  ISSUED:          0  USEFUL:          0  USELESS:          0
cpu0_ITLB AVERAGE MISS LATENCY: 15.3796 cycles
cpu0_L1I TOTAL     ACCESS:   52294713  HIT:   52191241  MISS:     103472
cpu0_L1I LOAD      ACCESS:   52294713  HIT:   52191241  MISS:     103472
cpu0_L1I RFO       ACCESS:          0  HIT:          0  MISS:          0
cpu0_L1I PREFETCH  ACCESS:          0  HIT:          0  MISS:          0
cpu0_L1I WRITEBACK ACCESS:          0  HIT:          0  MISS:          0
cpu0_L1I TRANSLATION ACCESS:          0  HIT:          0  MISS:          0
cpu0_L1I PREFETCH  REQUESTED:          0  ISSUED:          0  USEFUL:          0  USELESS:          0
cpu0_L1I AVERAGE MISS LATENCY: 23.5236 cycles
cpu0_STLB TOTAL     ACCESS:     466820  HIT:     462166  MISS:       4654
cpu0_STLB LOAD      ACCESS:     410695  HIT:     407223  MISS:       3472
cpu0_STLB RFO       ACCESS:      56125  HIT:      54943  MISS:       1182
cpu0_STLB PREFETCH  ACCESS:          0  HIT:          0  MISS:          0
cpu0_STLB WRITEBACK ACCESS:          0  HIT:          0  MISS:          0
cpu0_STLB TRANSLATION ACCESS:          0  HIT:          0  MISS:          0
cpu0_STLB PREFETCH  REQUESTED:          0  ISSUED:          0  USEFUL:          0  USELESS:          0
cpu0_STLB AVERAGE MISS LATENCY: 41.9633 cycles
cpu0_L1D TOTAL     ACCESS:  345117054  HIT:  341205991  MISS:    3911063
cpu0_L1D LOAD      ACCESS:  243689020  HIT:  240862333  MISS:    2826687
cpu0_L1D RFO       ACCESS:  101423649  HIT:  100341101  MISS:    1082548
cpu0_L1D PREFETCH  ACCESS:          0  HIT:          0  MISS:          0
cpu0_L1D WRITEBACK ACCESS:          0  HIT:          0  MISS:          0
cpu0_L1D TRANSLATION ACCESS:       4385  HIT:       2557  MISS:       1828
cpu0_L1D PREFETCH  REQUESTED:          0  ISSUED:          0  USEFUL:          0  USELESS:          0
cpu0_L1D AVERAGE MISS LATENCY: 26.6958 cycles
cpu0_L2C TOTAL     ACCESS:    5124034  HIT:    2838674  MISS:    2285360
cpu0_L2C LOAD      ACCESS:    2930156  HIT:    1652300  MISS:    1277856
cpu0_L2C RFO       ACCESS:    1082546  HIT:      77000  MISS:    1005546
cpu0_L2C PREFETCH  ACCESS:          0  HIT:          0  MISS:          0
cpu0_L2C WRITEBACK ACCESS:    1109504  HIT:    1107918  MISS:       1586
cpu0_L2C TRANSLATION ACCESS:       1828  HIT:       1456  MISS:        372
cpu0_L2C PREFETCH  REQUESTED:          0  ISSUED:          0  USEFUL:          0  USELESS:          0
cpu0_L2C AVERAGE MISS LATENCY: 27.3946 cycles
LLC TOTAL     ACCESS:    3312073  HIT:    3236482  MISS:      75591
LLC LOAD      ACCESS:    1277856  HIT:    1210769  MISS:      67087
LLC RFO       ACCESS:    1005546  HIT:     999333  MISS:       6213
LLC PREFETCH  ACCESS:          0  HIT:          0  MISS:          0
LLC WRITEBACK ACCESS:    1028299  HIT:    1026015  MISS:       2284
LLC TRANSLATION ACCESS:        372  HIT:        365  MISS:          7
LLC PREFETCH  REQUESTED:          0  ISSUED:          0  USEFUL:          0  USELESS:          0
LLC AVERAGE MISS LATENCY: 193.768 cycles
~~~~~~~~~~Reuse Distance Profiler output~~~~~~~~~~
0	60477232	21399072
1	32896784	22536096
2	28894416	21830768
3	26508016	21908272
4	20241136	16987856
5	15701504	12683744
6	12992384	10715824
7	11420400	9597344
8	11368672	10064208
9	7079824	5888224
10	6503728	5354240
11	6365296	5199184
12	6072656	5135552
13	4564528	3681008
14	3398096	2614080
15	3253344	2532256
16	3150992	2328096
17	3190000	2365152
18	3376368	2063312
19	2560144	1811504
20	2455040	1677184
21	2428528	1652960
22	2250512	1526160
23	2155296	1454256
24	1900192	1231200
25	1733968	1137920
26	1664272	1052288
27	1453904	930032
28	1243840	840960
29	1172912	862496
30	942608	728000
31	876848	659536
32	774112	623888
33	1345968	1235216
34	764464	675456
35	723264	635232
36	703520	599184
37	628416	533008
38	571408	463568
39	544880	454512
40	577808	486736
41	635920	527264
42	665792	561008
43	702176	588304
44	697504	585536
45	759008	635104
46	754944	664048
47	659264	591072
48	522416	464928
49	481696	434128
50	414368	367264
51	444944	386304
52	437344	372880
53	374208	315904
54	386880	337408
55	375424	314688
56	314416	275360
57	270176	234080
58	276560	246176
59	246160	221680
60	263568	227376
61	219904	197456
62	211952	187280
63	221840	200624
64	455680	418016
66	403248	353728
68	478512	388608
70	310656	260768
72	293440	253392
74	318144	269200
76	455408	348432
78	345904	277536
80	374016	304336
82	372176	275952
84	444128	318736
86	424384	295424
88	422384	331616
90	375888	287584
92	343056	272736
94	395264	321984
96	409152	307328
98	368592	290928
100	408848	291616
102	406000	311376
104	486688	339776
106	441856	272080
108	394192	253264
110	436592	222288
112	424320	282400
114	449056	305904
116	390048	279280
118	384080	296144
120	428240	306240
122	482128	357344
124	419264	311600
126	448560	344832
128	982832	788880
132	1150848	935024
136	1123200	926912
140	686880	562432
144	437488	354496
148	330464	274848
152	280384	236256
156	265200	235808
160	276560	230240
164	236800	197072
168	157520	128496
172	122576	105552
176	116000	102800
180	102832	95680
184	100160	92560
188	108512	84928
192	100640	75056
196	128496	107088
200	123696	101824
204	115456	79840
208	94480	79056
212	81264	74560
216	63440	55408
220	67744	57872
224	59440	51872
228	76240	55328
232	63280	51968
236	63888	48736
240	49936	44384
244	48976	44208
248	63520	50144
252	71072	55680
256	154768	137312
264	267424	252528
272	407552	397968
280	341312	333968
288	188160	179840
296	162256	150272
304	130816	119808
312	135760	126944
320	153248	144832
328	194048	175008
336	203600	186512
344	251952	212688
352	300432	234752
360	335904	245888
368	368720	263408
376	413792	283648
384	428704	291728
392	483200	338320
400	528336	374432
408	608224	432336
416	661824	458736
424	689184	445040
432	727488	452400
440	747856	448416
448	778192	423824
456	805968	409520
464	821616	382448
472	788928	340368
480	691024	287328
488	574464	246288
496	467504	207920
504	374160	171712
512	352128	201056
528	240256	199312
544	296352	261520
560	214624	178880
576	188208	138256
592	185216	137392
608	167312	125856
624	185280	148960
640	190736	148496
656	214096	158768
672	196768	154592
688	207648	170784
704	230576	199712
720	308464	254144
736	402128	340912
752	428304	346992
768	392960	312192
784	432272	333648
800	450944	343296
816	387216	310368
832	331248	268896
848	368912	313968
864	392000	369824
880	424096	409856
896	460464	447504
912	498016	482960
928	493088	482448
944	494528	484048
960	403904	395120
976	273248	265664
992	195600	187216
1008	146832	138624
1024	126560	111536
1056	131264	117936
1088	198880	186048
1120	151712	140816
1152	138288	127808
1184	117472	104240
1216	103808	90688
1248	77712	67600
1280	70448	59584
1312	67536	51360
1344	80768	65520
1376	91952	78048
1408	122624	105712
1440	86224	71712
1472	82624	70832
1504	113184	100032
1536	140592	126016
1568	173248	158256
1600	182288	168096
1632	140928	125696
1664	88448	75696
1696	57056	46928
1728	48448	38832
1760	48080	38192
1792	44992	37344
1824	52448	45936
1856	32352	26208
1888	33680	27680
1920	33280	28128
1952	38528	32880
1984	31856	26368
2016	33136	28400
2048	67776	60000
2112	48736	40400
2176	44384	37392
2240	37888	29184
2304	40912	33824
2368	64976	57296
2432	61136	54176
2496	48864	41968
2560	44320	36976
2624	40288	34752
2688	34800	31360
2752	28112	25056
2816	17712	13840
2880	16624	14016
2944	20336	17056
3008	18896	16032
3072	18224	15648
3136	23584	20224
3200	30272	27392
3264	35328	32576
3328	30960	28512
3392	32240	30016
3456	28800	25984
3520	24736	22560
3584	24896	21552
3648	22992	20640
3712	24320	21232
3776	24544	21888
3840	40640	38064
3904	38208	35520
3968	41088	38992
4032	49696	47504
4096	65472	59328
4224	50240	44784
4352	65120	61088
4480	75904	70960
4608	70256	64976
4736	69664	64464
4864	62496	56896
4992	81952	76976
5120	84448	80304
5248	73984	69936
5376	61488	57984
5504	54208	50064
5632	58064	54032
5760	66336	62304
5888	60512	56960
6016	52128	49232
6144	47232	44464
6272	50224	47344
6400	43728	40896
6528	44176	41600
6656	39328	36880
6784	43792	41696
6912	41984	39248
7040	40016	37808
7168	42944	41280
7296	45776	43424
7424	48480	47024
7552	29488	28304
7680	25760	24160
7808	24416	23296
7936	28880	27888
8064	25728	24512
8192	44288	42144
8448	63600	61440
8704	49088	47152
8960	42544	40224
9216	53072	49968
9472	39792	37280
9728	25376	22912
9984	30384	27936
10240	37520	34944
10496	40768	37264
10752	31792	29536
11008	25936	23984
11264	24512	22848
11520	22768	21664
11776	24448	23264
12032	26768	25520
12288	28192	26448
12544	24096	22864
12800	22832	21568
13056	20368	19152
13312	17776	16768
13568	15520	14240
13824	17424	16352
14080	15776	14288
14336	16464	15184
14592	16208	15168
14848	13680	12416
15104	14240	12992
15360	11888	10688
15616	12416	11136
15872	11392	10592
16128	14128	13280
16384	22512	21072
16896	23072	21488
17408	22240	20896
17920	22448	20864
18432	29024	26832
18944	30384	27504
19456	44240	40816
19968	38272	35824
20480	27840	26448
20992	18144	17168
21504	13840	12848
22016	13280	12416
22528	12768	11888
23040	15008	14352
23552	10160	9616
24064	9488	8784
24576	7264	6528
25088	7536	6784
25600	6240	5824
26112	5504	4912
26624	6240	5792
27136	5840	5456
27648	6896	6400
28160	5520	5024
28672	5552	4848
29184	6160	5648
29696	6112	5600
30208	6400	6048
30720	5904	5488
31232	6288	5584
31744	6928	5648
32256	7600	6512
32768	13872	11344
33792	15488	12560
34816	14048	12304
35840	10352	8528
36864	11792	10320
37888	11536	9904
38912	10208	8416
39936	8160	6704
40960	8896	7600
41984	10672	9232
43008	9024	7504
44032	7280	5952
45056	6848	5632
46080	7104	6304
47104	5104	4640
48128	3440	3120
49152	3552	3296
50176	2880	2576
51200	2816	2592
52224	3712	3376
53248	3760	2832
54272	4032	3184
55296	2576	2416
56320	2912	2640
57344	2672	2496
58368	2864	2640
59392	2640	2272
60416	2528	2320
61440	2128	1920
62464	2128	1904
63488	1872	1744
64512	2144	2000
65536	3328	3072
67584	3520	3152
69632	3488	3184
71680	3456	3264
73728	3920	3584
75776	3424	3264
77824	3744	3264
79872	4112	3776
81920	3696	3536
83968	4016	3760
86016	4016	3648
88064	3968	3856
90112	4688	4512
92160	4256	4160
94208	4816	4528
96256	5328	4832
98304	5792	5520
100352	6576	6048
102400	6720	6400
104448	7376	6880
106496	8304	7552
108544	9936	9120
110592	12752	11840
112640	13680	13008
114688	16912	15600
116736	17856	16736
118784	18592	17280
120832	18784	17712
122880	19072	17424
124928	17136	15952
126976	16496	15104
129024	15440	14064
131072	28976	26384
135168	24336	22240
139264	21776	19952
143360	19328	18096
147456	17280	16352
151552	17152	16304
155648	16512	15552
159744	15744	14768
163840	15328	14432
167936	15664	14688
172032	14000	13360
176128	14192	12992
180224	14448	13488
184320	15520	14672
188416	15152	14416
192512	14464	13696
196608	13760	13056
200704	11456	10720
204800	9440	9008
208896	8240	7872
212992	8752	8480
217088	8624	8320
221184	7616	7136
225280	6976	6528
229376	6496	6112
233472	5648	5296
237568	5520	5264
241664	6096	5456
245760	6240	5824
249856	6944	6272
253952	7184	6464
258048	6608	6096
262144	12800	11104
270336	14816	12496
278528	12736	10912
286720	14656	12208
294912	13184	11280
303104	12928	11216
311296	13888	11040
319488	12368	10128
327680	9344	8832
335872	8608	8096
344064	8512	7936
352256	10320	9680
360448	10688	10032
368640	9296	9136
376832	11024	10864
385024	13440	13136
393216	12144	11824
401408	10848	10384
409600	9600	9344
417792	9280	9088
425984	9680	9312
434176	8512	8096
442368	7248	6848
450560	6832	6576
458752	9008	8608
466944	8608	8240
475136	7024	6592
483328	7104	6880
491520	8352	7664
499712	10880	10192
507904	5696	4992
516096	4704	4272
524288	17632	16128
540672	16816	15712
557056	20464	19232
573440	14144	13504
589824	11408	10656
606208	6848	6368
622592	4912	4448
638976	4800	4464
655360	7904	7184
671744	6816	6528
688128	9280	8752
704512	7600	7056
720896	3952	3680
737280	2864	2752
753664	2960	2800
770048	2256	2192
786432	2208	2096
802816	2272	2160
819200	1616	1520
835584	2128	2064
851968	1968	1920
868352	2320	2256
884736	1936	1840
901120	1456	1408
917504	1648	1536
933888	2048	1904
950272	2416	2192
966656	1392	1344
983040	3328	3264
999424	2960	2752
1015808	1104	1072
1032192	576	544
1048576	2608	2336
1081344	3504	3232
1114112	3808	3552
1146880	5264	4976
1179648	3728	3584
1212416	4096	3936
1245184	4496	4368
1277952	4464	4144
1310720	5520	5312
1343488	5568	5360
1376256	5440	5280
1409024	5168	4864
1441792	4624	4336
1474560	5344	5056
1507328	4752	4448
1540096	5824	5408
1572864	4928	3936
1605632	4624	3808
1638400	6288	5680
1671168	7392	6352
1703936	6304	5472
1736704	5824	5072
1769472	5344	4528
1802240	6208	5520
1835008	6352	5600
1867776	5984	5136
1900544	6992	6064
1933312	5680	4832
1966080	6672	6048
1998848	6080	4896
2031616	6768	5904
2064384	4144	3616
2097152	11088	9104
2162688	11568	8352
2228224	14768	11120
2293760	11280	7856
2359296	17728	13136
2424832	14720	10304
2490368	15216	11088
2555904	17376	13392
2621440	14816	10624
2686976	14688	10544
2752512	13776	8592
2818048	17504	12544
2883584	18528	11920
2949120	22352	15584
3014656	15136	9008
3080192	22416	15504
3145728	18368	11920
3211264	15568	9392
3276800	17712	10576
3342336	21168	13360
3407872	16704	10528
3473408	23760	14160
3538944	20432	11680
3604480	21488	11632
3670016	24880	15648
3735552	20368	11120
3801088	18848	11008
3866624	20832	12656
3932160	22240	12288
3997696	23088	12944
4063232	24496	13568
4128768	21312	10544
4194304	48128	26704
4325376	42336	23472
4456448	45152	26320
4587520	49120	25664
4718592	46896	23024
4849664	40240	21056
4980736	44544	25024
5111808	48016	24704
5242880	49664	25680
5373952	42640	21056
5505024	42688	21776
5636096	44592	23040
5767168	47472	23472
5898240	41616	21392
6029312	41360	19712
6160384	39088	18224
6291456	45952	21792
6422528	37536	16736
6553600	35936	16784
6684672	35072	16160
6815744	35840	14832
6946816	34112	13392
7077888	31360	12976
7208960	28704	11024
7340032	27504	10176
7471104	28192	9376
7602176	24608	8144
7733248	23088	8096
7864320	21184	6080
7995392	20704	5568
8126464	18208	3968
8257536	15776	3952
8388608	30880	7376
8650752	27088	5536
8912896	23456	7504
9175040	21296	6624
9437184	22368	8592
9699328	26640	13216
9961472	28912	11664
10223616	24144	6864
10485760	9312	3440
10747904	3952	1712
11010048	7024	2128
11272192	3200	1104
11534336	2192	1168
11796480	1408	752
12058624	1024	608
12320768	512	208
12582912	672	448
12845056	224	112
13107200	112	80
13369344	544	64
13631488	112	64
13893632	160	144
14155776	368	256
14417920	176	144
14680064	192	96
14942208	80	16
15204352	208	48
15466496	64	32
15728640	80	80
15990784	64	64
16252928	80	80
16515072	128	128
16777216	416	400
17301504	432	432
17825792	672	624
18350080	560	528
18874368	432	320
19398656	560	288
19922944	400	288
20447232	288	176
20971520	144	128
21495808	96	96
22020096	80	32
22544384	16	16
23068672	16	16
23592960	0	0
24117248	0	0
24641536	0	0
25165824	0	0
25690112	0	0
26214400	0	0
26738688	0	0
27262976	32	32
27787264	32	32
28311552	48	48
28835840	112	48
29360128	128	0
29884416	32	32
30408704	112	0
30932992	16	16
31457280	0	0
31981568	0	0
32505856	64	0
33030144	0	0
33554432	16	16
34603008	16	16
35651584	16	16
36700160	0	0
37748736	0	0
38797312	80	64
39845888	80	16
40894464	96	0
41943040	0	0
42991616	0	0
44040192	0	0
45088768	0	0
46137344	0	0
47185920	0	0
48234496	16	16
49283072	160	48
50331648	0	0
51380224	0	0
52428800	48	0
53477376	0	0
54525952	0	0
55574528	0	0
56623104	16	16
57671680	16	16
58720256	32	16
59768832	32	32
60817408	0	0
61865984	0	0
62914560	0	0
63963136	0	0
65011712	16	16
66060288	0	0
67108864	16	16
69206016	2272	2240
71303168	1616	1472
73400320	112	112
75497472	96	96
77594624	48	48
79691776	688	672
81788928	576	576
83886080	0	0
85983232	224	224
88080384	1232	1216
90177536	800	800
92274688	192	144
94371840	336	336
96468992	432	432
98566144	1200	1200
100663296	1472	1280
102760448	720	592
104857600	1168	1168
106954752	912	864
109051904	1520	1504
111149056	864	832
113246208	64	64
115343360	64	64
117440512	48	48
119537664	208	208
121634816	16	16
123731968	0	0
125829120	0	0
127926272	0	0
130023424	0	0
132120576	0	0
134217728	0	0
138412032	0	0
142606336	0	0
146800640	0	0
150994944	0	0
155189248	0	0
159383552	0	0
163577856	0	0
167772160	0	0
171966464	0	0
176160768	0	0
180355072	0	0
184549376	0	0
188743680	0	0
192937984	0	0
197132288	0	0
201326592	0	0
205520896	0	0
209715200	0	0
213909504	0	0
218103808	0	0
222298112	16	16
226492416	0	0
230686720	0	0
234881024	0	0
239075328	0	0
243269632	0	0
247463936	0	0
251658240	0	0
255852544	0	0
260046848	0	0
264241152	0	0
268435456	0	0
276824064	0	0
285212672	0	0
293601280	0	0
301989888	0	0
310378496	0	0
318767104	0	0
327155712	0	0
335544320	0	0
343932928	0	0
352321536	0	0
360710144	0	0
369098752	0	0
377487360	0	0
385875968	0	0
394264576	0	0
402653184	0	0
411041792	0	0
419430400	0	0
427819008	0	0
436207616	0	0
444596224	0	0
452984832	0	0
461373440	0	0
469762048	0	0
478150656	0	0
486539264	0	0
494927872	0	0
503316480	0	0
511705088	0	0
520093696	0	0
528482304	0	0
536870912	0	0
553648128	0	0
570425344	0	0
587202560	0	0
603979776	0	0
620756992	0	0
637534208	0	0
654311424	0	0
671088640	0	0
687865856	0	0
704643072	0	0
721420288	0	0
738197504	0	0
754974720	0	0
771751936	0	0
788529152	0	0
805306368	0	0
822083584	0	0
838860800	0	0
855638016	0	0
872415232	0	0
889192448	0	0
905969664	0	0
922746880	0	0
939524096	0	0
956301312	0	0
973078528	0	0
989855744	0	0
1006632960	0	0
1023410176	0	0
1040187392	0	0
1056964608	0	0
1073741824	0	0
1107296256	0	0
1140850688	0	0
1174405120	0	0
1207959552	0	0
1241513984	0	0
1275068416	0	0
1308622848	0	0
1342177280	0	0
1375731712	0	0
1409286144	0	0
1442840576	0	0
1476395008	0	0
1509949440	0	0
1543503872	0	0
1577058304	0	0
1610612736	0	0
1644167168	0	0
1677721600	0	0
1711276032	0	0
1744830464	0	0
1778384896	0	0
1811939328	0	0
1845493760	0	0
1879048192	0	0
1912602624	0	0
1946157056	0	0
1979711488	0	0
2013265920	0	0
2046820352	0	0
2080374784	0	0
2113929216	0	0
2147483648	0	0
2214592512	0	0
2281701376	0	0
2348810240	0	0
2415919104	0	0
2483027968	0	0
2550136832	0	0
2617245696	0	0
2684354560	0	0
2751463424	0	0
2818572288	0	0
2885681152	0	0
2952790016	0	0
3019898880	0	0
3087007744	0	0
3154116608	0	0
3221225472	0	0
3288334336	0	0
3355443200	0	0
3422552064	0	0
3489660928	0	0
3556769792	0	0
3623878656	0	0
3690987520	0	0
3758096384	0	0
3825205248	0	0
3892314112	0	0
3959422976	0	0
4026531840	0	0
4093640704	0	0
4160749568	0	0
4227858432	0	0
~~~~~~~~~~Reuse Distance Profiler output end~~~~~~~~~~

Sampler size:5631

DRAM Statistics
 CHANNEL 0
 RQ ROW_BUFFER_HIT:       2642  ROW_BUFFER_MISS:      70664
 DBUS AVG_CONGESTED_CYCLE:    3.73844
 WQ ROW_BUFFER_HIT:       1014  ROW_BUFFER_MISS:       9087  FULL:          0


CPU 0 Branch Prediction Accuracy: 92.0014% MPKI: 7.78177 Average ROB Occupancy at Mispredict: 125.043
Branch type MPKI
BRANCH_DIRECT_JUMP: 2.6e-05
BRANCH_INDIRECT: 0.001128
BRANCH_CONDITIONAL: 7.69646
BRANCH_DIRECT_CALL: 0.082528
BRANCH_INDIRECT_CALL: 0.000115333
BRANCH_RETURN: 0.001514

