
*** ChampSim Multicore Out-of-Order Simulator ***

Warmup Instructions: 50000000
Simulation Instructions: 1500000000
Number of CPUs: 1
Off-chip DRAM Size: 4 GiB Channels: 1 Width: 64-bit Data Rate: 3200 MT/s

VirtualMemory physical capacity: 8588881920 num_ppages: 2096895
VirtualMemory page size: 4096 log2_page_size: 12

CPU 0 runs /s/traces/champsim_traces/471.omnetpp-188B.champsimtrace.xz
CPU 0 Bimodal branch predictor
Basic BTB sets: 1024 ways: 8 indirect buffer size: 4096 RAS size: 64
Initializing LRU.
Initializing LRU.
Initializing LRU.
Initializing LRU.
Initializing rdLRU.
Initializing LRU.
Heartbeat CPU 0 instructions: 2000001 cycles: 500346 heartbeat IPC: 3.99724 cumulative IPC: 3.99724 (Simulation time: 0 hr 0 min 49 sec) 
Heartbeat CPU 0 instructions: 4000001 cycles: 1000346 heartbeat IPC: 4 cumulative IPC: 3.99862 (Simulation time: 0 hr 1 min 41 sec) 
Heartbeat CPU 0 instructions: 6000001 cycles: 1500346 heartbeat IPC: 4 cumulative IPC: 3.99908 (Simulation time: 0 hr 2 min 35 sec) 
Heartbeat CPU 0 instructions: 8000001 cycles: 2000354 heartbeat IPC: 3.99994 cumulative IPC: 3.99929 (Simulation time: 0 hr 3 min 27 sec) 
Heartbeat CPU 0 instructions: 10000001 cycles: 2500346 heartbeat IPC: 4.00006 cumulative IPC: 3.99945 (Simulation time: 0 hr 4 min 24 sec) 
Heartbeat CPU 0 instructions: 12000001 cycles: 3000349 heartbeat IPC: 3.99998 cumulative IPC: 3.99954 (Simulation time: 0 hr 5 min 19 sec) 
Heartbeat CPU 0 instructions: 14000000 cycles: 3500361 heartbeat IPC: 3.9999 cumulative IPC: 3.99959 (Simulation time: 0 hr 6 min 14 sec) 
Heartbeat CPU 0 instructions: 16000001 cycles: 4000349 heartbeat IPC: 4.0001 cumulative IPC: 3.99965 (Simulation time: 0 hr 7 min 10 sec) 
Heartbeat CPU 0 instructions: 18000001 cycles: 4500349 heartbeat IPC: 4 cumulative IPC: 3.99969 (Simulation time: 0 hr 8 min 6 sec) 
Heartbeat CPU 0 instructions: 20000002 cycles: 5000352 heartbeat IPC: 3.99998 cumulative IPC: 3.99972 (Simulation time: 0 hr 8 min 58 sec) 
Heartbeat CPU 0 instructions: 22000002 cycles: 5500352 heartbeat IPC: 4 cumulative IPC: 3.99974 (Simulation time: 0 hr 9 min 51 sec) 
Heartbeat CPU 0 instructions: 24000002 cycles: 6000352 heartbeat IPC: 4 cumulative IPC: 3.99977 (Simulation time: 0 hr 10 min 43 sec) 
Heartbeat CPU 0 instructions: 26000003 cycles: 6500357 heartbeat IPC: 3.99996 cumulative IPC: 3.99978 (Simulation time: 0 hr 11 min 36 sec) 
Heartbeat CPU 0 instructions: 28000003 cycles: 7000357 heartbeat IPC: 4 cumulative IPC: 3.9998 (Simulation time: 0 hr 12 min 28 sec) 
Heartbeat CPU 0 instructions: 30000003 cycles: 7500357 heartbeat IPC: 4 cumulative IPC: 3.99981 (Simulation time: 0 hr 13 min 22 sec) 
Heartbeat CPU 0 instructions: 32000003 cycles: 8000357 heartbeat IPC: 4 cumulative IPC: 3.99982 (Simulation time: 0 hr 14 min 14 sec) 
Heartbeat CPU 0 instructions: 34000003 cycles: 8500357 heartbeat IPC: 4 cumulative IPC: 3.99983 (Simulation time: 0 hr 15 min 7 sec) 
Heartbeat CPU 0 instructions: 36000003 cycles: 9000357 heartbeat IPC: 4 cumulative IPC: 3.99984 (Simulation time: 0 hr 16 min 1 sec) 
Heartbeat CPU 0 instructions: 38000000 cycles: 9500363 heartbeat IPC: 3.99995 cumulative IPC: 3.99985 (Simulation time: 0 hr 16 min 51 sec) 
Heartbeat CPU 0 instructions: 40000003 cycles: 10000357 heartbeat IPC: 4.00005 cumulative IPC: 3.99986 (Simulation time: 0 hr 17 min 43 sec) 
Heartbeat CPU 0 instructions: 42000002 cycles: 10500445 heartbeat IPC: 3.99929 cumulative IPC: 3.99983 (Simulation time: 0 hr 18 min 38 sec) 
Heartbeat CPU 0 instructions: 44000003 cycles: 11000461 heartbeat IPC: 3.99987 cumulative IPC: 3.99983 (Simulation time: 0 hr 19 min 31 sec) 
Heartbeat CPU 0 instructions: 46000003 cycles: 11500461 heartbeat IPC: 4 cumulative IPC: 3.99984 (Simulation time: 0 hr 20 min 25 sec) 
Heartbeat CPU 0 instructions: 48000003 cycles: 12000461 heartbeat IPC: 4 cumulative IPC: 3.99985 (Simulation time: 0 hr 21 min 17 sec) 
Heartbeat CPU 0 instructions: 50000003 cycles: 12500461 heartbeat IPC: 4 cumulative IPC: 3.99985 (Simulation time: 0 hr 22 min 10 sec) 

Warmup complete CPU 0 instructions: 50000003 cycles: 12500461 (Simulation time: 0 hr 22 min 10 sec) 

Heartbeat CPU 0 instructions: 52000004 cycles: 18278227 heartbeat IPC: 0.346155 cumulative IPC: 0.346155 (Simulation time: 0 hr 24 min 24 sec) 

Region of Interest Statistics
cpu0_DTLB TOTAL     ACCESS:     494229  HIT:     454035  MISS:      40194
cpu0_DTLB LOAD      ACCESS:     305225  HIT:     271646  MISS:      33579
cpu0_DTLB RFO       ACCESS:     189004  HIT:     182389  MISS:       6615
cpu0_DTLB PREFETCH  ACCESS:          0  HIT:          0  MISS:          0
cpu0_DTLB WRITEBACK ACCESS:          0  HIT:          0  MISS:          0
cpu0_ITLB TOTAL     ACCESS:     225712  HIT:     225538  MISS:        174
cpu0_ITLB LOAD      ACCESS:     225712  HIT:     225538  MISS:        174
cpu0_ITLB RFO       ACCESS:          0  HIT:          0  MISS:          0
cpu0_ITLB PREFETCH  ACCESS:          0  HIT:          0  MISS:          0
cpu0_ITLB WRITEBACK ACCESS:          0  HIT:          0  MISS:          0
cpu0_L1I TOTAL     ACCESS:     178784  HIT:     178777  MISS:          7
cpu0_L1I LOAD      ACCESS:     178784  HIT:     178777  MISS:          7
cpu0_L1I RFO       ACCESS:          0  HIT:          0  MISS:          0
cpu0_L1I PREFETCH  ACCESS:          0  HIT:          0  MISS:          0
cpu0_L1I WRITEBACK ACCESS:          0  HIT:          0  MISS:          0
cpu0_STLB TOTAL     ACCESS:      40368  HIT:      30713  MISS:       9655
cpu0_STLB LOAD      ACCESS:      33753  HIT:      27248  MISS:       6505
cpu0_STLB RFO       ACCESS:       6615  HIT:       3465  MISS:       3150
cpu0_STLB PREFETCH  ACCESS:          0  HIT:          0  MISS:          0
cpu0_STLB WRITEBACK ACCESS:          0  HIT:          0  MISS:          0
cpu0_L1D TOTAL     ACCESS:     623226  HIT:     576072  MISS:      47154
cpu0_L1D LOAD      ACCESS:     320861  HIT:     279023  MISS:      41838
cpu0_L1D RFO       ACCESS:     293394  HIT:     288167  MISS:       5227
cpu0_L1D PREFETCH  ACCESS:          0  HIT:          0  MISS:          0
cpu0_L1D WRITEBACK ACCESS:          0  HIT:          0  MISS:          0
cpu0_L2C TOTAL     ACCESS:      68682  HIT:      25620  MISS:      43062
cpu0_L2C LOAD      ACCESS:      41845  HIT:       3784  MISS:      38061
cpu0_L2C RFO       ACCESS:       5227  HIT:        283  MISS:       4944
cpu0_L2C PREFETCH  ACCESS:          0  HIT:          0  MISS:          0
cpu0_L2C WRITEBACK ACCESS:      21521  HIT:      21485  MISS:         36
LLC TOTAL     ACCESS:      62902  HIT:      13710  MISS:      49192
LLC LOAD      ACCESS:      38061  HIT:       6221  MISS:      31840
LLC RFO       ACCESS:       4944  HIT:        505  MISS:       4439
LLC PREFETCH  ACCESS:          0  HIT:          0  MISS:          0
LLC WRITEBACK ACCESS:      19876  HIT:       6977  MISS:      12899
Heartbeat CPU 0 instructions: 54000000 cycles: 24830222 heartbeat IPC: 0.30525 cumulative IPC: 0.324418 (Simulation time: 0 hr 26 min 36 sec) 

Region of Interest Statistics
cpu0_DTLB TOTAL     ACCESS:     984371  HIT:     901037  MISS:      83334
cpu0_DTLB LOAD      ACCESS:     593168  HIT:     524226  MISS:      68942
cpu0_DTLB RFO       ACCESS:     391203  HIT:     376811  MISS:      14392
cpu0_DTLB PREFETCH  ACCESS:          0  HIT:          0  MISS:          0
cpu0_DTLB WRITEBACK ACCESS:          0  HIT:          0  MISS:          0
cpu0_ITLB TOTAL     ACCESS:     438049  HIT:     435529  MISS:       2520
cpu0_ITLB LOAD      ACCESS:     438049  HIT:     435529  MISS:       2520
cpu0_ITLB RFO       ACCESS:          0  HIT:          0  MISS:          0
cpu0_ITLB PREFETCH  ACCESS:          0  HIT:          0  MISS:          0
cpu0_ITLB WRITEBACK ACCESS:          0  HIT:          0  MISS:          0
cpu0_L1I TOTAL     ACCESS:     373515  HIT:     373482  MISS:         33
cpu0_L1I LOAD      ACCESS:     373515  HIT:     373482  MISS:         33
cpu0_L1I RFO       ACCESS:          0  HIT:          0  MISS:          0
cpu0_L1I PREFETCH  ACCESS:          0  HIT:          0  MISS:          0
cpu0_L1I WRITEBACK ACCESS:          0  HIT:          0  MISS:          0
cpu0_STLB TOTAL     ACCESS:      85854  HIT:      64854  MISS:      21000
cpu0_STLB LOAD      ACCESS:      71462  HIT:      57256  MISS:      14206
cpu0_STLB RFO       ACCESS:      14392  HIT:       7598  MISS:       6794
cpu0_STLB PREFETCH  ACCESS:          0  HIT:          0  MISS:          0
cpu0_STLB WRITEBACK ACCESS:          0  HIT:          0  MISS:          0
cpu0_L1D TOTAL     ACCESS:    1246723  HIT:    1143905  MISS:     102818
cpu0_L1D LOAD      ACCESS:     621970  HIT:     532211  MISS:      89759
cpu0_L1D RFO       ACCESS:     605155  HIT:     592278  MISS:      12877
cpu0_L1D PREFETCH  ACCESS:          0  HIT:          0  MISS:          0
cpu0_L1D WRITEBACK ACCESS:          0  HIT:          0  MISS:          0
cpu0_L2C TOTAL     ACCESS:     144937  HIT:      52042  MISS:      92895
cpu0_L2C LOAD      ACCESS:      89792  HIT:       9543  MISS:      80249
cpu0_L2C RFO       ACCESS:      12877  HIT:        365  MISS:      12512
cpu0_L2C PREFETCH  ACCESS:          0  HIT:          0  MISS:          0
cpu0_L2C WRITEBACK ACCESS:      42086  HIT:      42001  MISS:         85
LLC TOTAL     ACCESS:     131540  HIT:      31935  MISS:      99605
LLC LOAD      ACCESS:      80249  HIT:      14638  MISS:      65611
LLC RFO       ACCESS:      12512  HIT:       2337  MISS:      10175
LLC PREFETCH  ACCESS:          0  HIT:          0  MISS:          0
LLC WRITEBACK ACCESS:      38730  HIT:      14943  MISS:      23787
Heartbeat CPU 0 instructions: 56000000 cycles: 30794610 heartbeat IPC: 0.335324 cumulative IPC: 0.327974 (Simulation time: 0 hr 28 min 24 sec) 

Region of Interest Statistics
cpu0_DTLB TOTAL     ACCESS:    1475387  HIT:    1355734  MISS:     119653
cpu0_DTLB LOAD      ACCESS:     892510  HIT:     792318  MISS:     100192
cpu0_DTLB RFO       ACCESS:     582877  HIT:     563416  MISS:      19461
cpu0_DTLB PREFETCH  ACCESS:          0  HIT:          0  MISS:          0
cpu0_DTLB WRITEBACK ACCESS:          0  HIT:          0  MISS:          0
cpu0_ITLB TOTAL     ACCESS:     664451  HIT:     660992  MISS:       3459
cpu0_ITLB LOAD      ACCESS:     664451  HIT:     660992  MISS:       3459
cpu0_ITLB RFO       ACCESS:          0  HIT:          0  MISS:          0
cpu0_ITLB PREFETCH  ACCESS:          0  HIT:          0  MISS:          0
cpu0_ITLB WRITEBACK ACCESS:          0  HIT:          0  MISS:          0
cpu0_L1I TOTAL     ACCESS:     576831  HIT:     576761  MISS:         70
cpu0_L1I LOAD      ACCESS:     576831  HIT:     576761  MISS:         70
cpu0_L1I RFO       ACCESS:          0  HIT:          0  MISS:          0
cpu0_L1I PREFETCH  ACCESS:          0  HIT:          0  MISS:          0
cpu0_L1I WRITEBACK ACCESS:          0  HIT:          0  MISS:          0
cpu0_STLB TOTAL     ACCESS:     123112  HIT:      94191  MISS:      28921
cpu0_STLB LOAD      ACCESS:     103651  HIT:      83701  MISS:      19950
cpu0_STLB RFO       ACCESS:      19461  HIT:      10490  MISS:       8971
cpu0_STLB PREFETCH  ACCESS:          0  HIT:          0  MISS:          0
cpu0_STLB WRITEBACK ACCESS:          0  HIT:          0  MISS:          0
cpu0_L1D TOTAL     ACCESS:    1859523  HIT:    1715240  MISS:     144283
cpu0_L1D LOAD      ACCESS:     926542  HIT:     801658  MISS:     124884
cpu0_L1D RFO       ACCESS:     905784  HIT:     886654  MISS:      19130
cpu0_L1D PREFETCH  ACCESS:          0  HIT:          0  MISS:          0
cpu0_L1D WRITEBACK ACCESS:          0  HIT:          0  MISS:          0
cpu0_L2C TOTAL     ACCESS:     201904  HIT:      69975  MISS:     131929
cpu0_L2C LOAD      ACCESS:     124954  HIT:      11910  MISS:     113044
cpu0_L2C RFO       ACCESS:      19130  HIT:        434  MISS:      18696
cpu0_L2C PREFETCH  ACCESS:          0  HIT:          0  MISS:          0
cpu0_L2C WRITEBACK ACCESS:      57551  HIT:      57431  MISS:        120
LLC TOTAL     ACCESS:     185829  HIT:      44809  MISS:     141020
LLC LOAD      ACCESS:     113044  HIT:      19998  MISS:      93046
LLC RFO       ACCESS:      18696  HIT:       3038  MISS:      15658
LLC PREFETCH  ACCESS:          0  HIT:          0  MISS:          0
LLC WRITEBACK ACCESS:      54020  HIT:      21752  MISS:      32268
Heartbeat CPU 0 instructions: 58000004 cycles: 37217065 heartbeat IPC: 0.311408 cumulative IPC: 0.323669 (Simulation time: 0 hr 30 min 30 sec) 

Region of Interest Statistics
cpu0_DTLB TOTAL     ACCESS:    1974301  HIT:    1811226  MISS:     163075
cpu0_DTLB LOAD      ACCESS:    1193325  HIT:    1056338  MISS:     136987
cpu0_DTLB RFO       ACCESS:     780976  HIT:     754888  MISS:      26088
cpu0_DTLB PREFETCH  ACCESS:          0  HIT:          0  MISS:          0
cpu0_DTLB WRITEBACK ACCESS:          0  HIT:          0  MISS:          0
cpu0_ITLB TOTAL     ACCESS:     885987  HIT:     880747  MISS:       5240
cpu0_ITLB LOAD      ACCESS:     885987  HIT:     880747  MISS:       5240
cpu0_ITLB RFO       ACCESS:          0  HIT:          0  MISS:          0
cpu0_ITLB PREFETCH  ACCESS:          0  HIT:          0  MISS:          0
cpu0_ITLB WRITEBACK ACCESS:          0  HIT:          0  MISS:          0
cpu0_L1I TOTAL     ACCESS:     759474  HIT:     759357  MISS:        117
cpu0_L1I LOAD      ACCESS:     759474  HIT:     759357  MISS:        117
cpu0_L1I RFO       ACCESS:          0  HIT:          0  MISS:          0
cpu0_L1I PREFETCH  ACCESS:          0  HIT:          0  MISS:          0
cpu0_L1I WRITEBACK ACCESS:          0  HIT:          0  MISS:          0
cpu0_STLB TOTAL     ACCESS:     168315  HIT:     129653  MISS:      38662
cpu0_STLB LOAD      ACCESS:     142227  HIT:     115217  MISS:      27010
cpu0_STLB RFO       ACCESS:      26088  HIT:      14436  MISS:      11652
cpu0_STLB PREFETCH  ACCESS:          0  HIT:          0  MISS:          0
cpu0_STLB WRITEBACK ACCESS:          0  HIT:          0  MISS:          0
cpu0_L1D TOTAL     ACCESS:    2481574  HIT:    2285984  MISS:     195590
cpu0_L1D LOAD      ACCESS:    1238479  HIT:    1070079  MISS:     168400
cpu0_L1D RFO       ACCESS:    1206698  HIT:    1179886  MISS:      26812
cpu0_L1D PREFETCH  ACCESS:          0  HIT:          0  MISS:          0
cpu0_L1D WRITEBACK ACCESS:          0  HIT:          0  MISS:          0
cpu0_L2C TOTAL     ACCESS:     272395  HIT:      94725  MISS:     177670
cpu0_L2C LOAD      ACCESS:     168517  HIT:      17049  MISS:     151468
cpu0_L2C RFO       ACCESS:      26812  HIT:        883  MISS:      25929
cpu0_L2C PREFETCH  ACCESS:          0  HIT:          0  MISS:          0
cpu0_L2C WRITEBACK ACCESS:      76688  HIT:      76512  MISS:        176
LLC TOTAL     ACCESS:     247735  HIT:      59303  MISS:     188432
LLC LOAD      ACCESS:     151468  HIT:      26616  MISS:     124852
LLC RFO       ACCESS:      25929  HIT:       4214  MISS:      21715
LLC PREFETCH  ACCESS:          0  HIT:          0  MISS:          0
LLC WRITEBACK ACCESS:      70241  HIT:      28443  MISS:      41798
Heartbeat CPU 0 instructions: 60000001 cycles: 42416332 heartbeat IPC: 0.384669 cumulative IPC: 0.334271 (Simulation time: 0 hr 32 min 22 sec) 

Region of Interest Statistics
cpu0_DTLB TOTAL     ACCESS:    2459836  HIT:    2271484  MISS:     188352
cpu0_DTLB LOAD      ACCESS:    1490502  HIT:    1331696  MISS:     158806
cpu0_DTLB RFO       ACCESS:     969334  HIT:     939788  MISS:      29546
cpu0_DTLB PREFETCH  ACCESS:          0  HIT:          0  MISS:          0
cpu0_DTLB WRITEBACK ACCESS:          0  HIT:          0  MISS:          0
cpu0_ITLB TOTAL     ACCESS:    1106940  HIT:    1101127  MISS:       5813
cpu0_ITLB LOAD      ACCESS:    1106940  HIT:    1101127  MISS:       5813
cpu0_ITLB RFO       ACCESS:          0  HIT:          0  MISS:          0
cpu0_ITLB PREFETCH  ACCESS:          0  HIT:          0  MISS:          0
cpu0_ITLB WRITEBACK ACCESS:          0  HIT:          0  MISS:          0
cpu0_L1I TOTAL     ACCESS:     972672  HIT:     972532  MISS:        140
cpu0_L1I LOAD      ACCESS:     972672  HIT:     972532  MISS:        140
cpu0_L1I RFO       ACCESS:          0  HIT:          0  MISS:          0
cpu0_L1I PREFETCH  ACCESS:          0  HIT:          0  MISS:          0
cpu0_L1I WRITEBACK ACCESS:          0  HIT:          0  MISS:          0
cpu0_STLB TOTAL     ACCESS:     194165  HIT:     149205  MISS:      44960
cpu0_STLB LOAD      ACCESS:     164619  HIT:     132624  MISS:      31995
cpu0_STLB RFO       ACCESS:      29546  HIT:      16581  MISS:      12965
cpu0_STLB PREFETCH  ACCESS:          0  HIT:          0  MISS:          0
cpu0_STLB WRITEBACK ACCESS:          0  HIT:          0  MISS:          0
cpu0_L1D TOTAL     ACCESS:    3097101  HIT:    2864757  MISS:     232344
cpu0_L1D LOAD      ACCESS:    1538290  HIT:    1339461  MISS:     198829
cpu0_L1D RFO       ACCESS:    1516343  HIT:    1483287  MISS:      33056
cpu0_L1D PREFETCH  ACCESS:          0  HIT:          0  MISS:          0
cpu0_L1D WRITEBACK ACCESS:          0  HIT:          0  MISS:          0
cpu0_L2C TOTAL     ACCESS:     323784  HIT:     111992  MISS:     211792
cpu0_L2C LOAD      ACCESS:     198968  HIT:      19401  MISS:     179567
cpu0_L2C RFO       ACCESS:      33056  HIT:       1156  MISS:      31900
cpu0_L2C PREFETCH  ACCESS:          0  HIT:          0  MISS:          0
cpu0_L2C WRITEBACK ACCESS:      91301  HIT:      91089  MISS:        212
LLC TOTAL     ACCESS:     295469  HIT:      68354  MISS:     227115
LLC LOAD      ACCESS:     179567  HIT:      30516  MISS:     149051
LLC RFO       ACCESS:      31900  HIT:       4535  MISS:      27365
LLC PREFETCH  ACCESS:          0  HIT:          0  MISS:          0
LLC WRITEBACK ACCESS:      83889  HIT:      33266  MISS:      50623
Heartbeat CPU 0 instructions: 62000001 cycles: 48603762 heartbeat IPC: 0.323236 cumulative IPC: 0.33238 (Simulation time: 0 hr 34 min 18 sec) 

Region of Interest Statistics
cpu0_DTLB TOTAL     ACCESS:    2952768  HIT:    2732493  MISS:     220275
cpu0_DTLB LOAD      ACCESS:    1786650  HIT:    1599695  MISS:     186955
cpu0_DTLB RFO       ACCESS:    1166118  HIT:    1132798  MISS:      33320
cpu0_DTLB PREFETCH  ACCESS:          0  HIT:          0  MISS:          0
cpu0_DTLB WRITEBACK ACCESS:          0  HIT:          0  MISS:          0
cpu0_ITLB TOTAL     ACCESS:    1323750  HIT:    1315610  MISS:       8140
cpu0_ITLB LOAD      ACCESS:    1323750  HIT:    1315610  MISS:       8140
cpu0_ITLB RFO       ACCESS:          0  HIT:          0  MISS:          0
cpu0_ITLB PREFETCH  ACCESS:          0  HIT:          0  MISS:          0
cpu0_ITLB WRITEBACK ACCESS:          0  HIT:          0  MISS:          0
cpu0_L1I TOTAL     ACCESS:    1174712  HIT:    1174572  MISS:        140
cpu0_L1I LOAD      ACCESS:    1174712  HIT:    1174572  MISS:        140
cpu0_L1I RFO       ACCESS:          0  HIT:          0  MISS:          0
cpu0_L1I PREFETCH  ACCESS:          0  HIT:          0  MISS:          0
cpu0_L1I WRITEBACK ACCESS:          0  HIT:          0  MISS:          0
cpu0_STLB TOTAL     ACCESS:     228415  HIT:     175961  MISS:      52454
cpu0_STLB LOAD      ACCESS:     195095  HIT:     156937  MISS:      38158
cpu0_STLB RFO       ACCESS:      33320  HIT:      19024  MISS:      14296
cpu0_STLB PREFETCH  ACCESS:          0  HIT:          0  MISS:          0
cpu0_STLB WRITEBACK ACCESS:          0  HIT:          0  MISS:          0
cpu0_L1D TOTAL     ACCESS:    3720849  HIT:    3441823  MISS:     279026
cpu0_L1D LOAD      ACCESS:    1842530  HIT:    1605375  MISS:     237155
cpu0_L1D RFO       ACCESS:    1828755  HIT:    1787457  MISS:      41298
cpu0_L1D PREFETCH  ACCESS:          0  HIT:          0  MISS:          0
cpu0_L1D WRITEBACK ACCESS:          0  HIT:          0  MISS:          0
cpu0_L2C TOTAL     ACCESS:     385913  HIT:     128886  MISS:     257027
cpu0_L2C LOAD      ACCESS:     237294  HIT:      20756  MISS:     216538
cpu0_L2C RFO       ACCESS:      41298  HIT:       1212  MISS:      40086
cpu0_L2C PREFETCH  ACCESS:          0  HIT:          0  MISS:          0
cpu0_L2C WRITEBACK ACCESS:     106748  HIT:     106484  MISS:        264
LLC TOTAL     ACCESS:     355347  HIT:      81441  MISS:     273906
LLC LOAD      ACCESS:     216538  HIT:      36795  MISS:     179743
LLC RFO       ACCESS:      40086  HIT:       5087  MISS:      34999
LLC PREFETCH  ACCESS:          0  HIT:          0  MISS:          0
LLC WRITEBACK ACCESS:      98584  HIT:      39515  MISS:      59069
Heartbeat CPU 0 instructions: 64000001 cycles: 53849755 heartbeat IPC: 0.381243 cumulative IPC: 0.338579 (Simulation time: 0 hr 36 min 10 sec) 

Region of Interest Statistics
cpu0_DTLB TOTAL     ACCESS:    3454467  HIT:    3196896  MISS:     257571
cpu0_DTLB LOAD      ACCESS:    2096587  HIT:    1878490  MISS:     218097
cpu0_DTLB RFO       ACCESS:    1357880  HIT:    1318406  MISS:      39474
cpu0_DTLB PREFETCH  ACCESS:          0  HIT:          0  MISS:          0
cpu0_DTLB WRITEBACK ACCESS:          0  HIT:          0  MISS:          0
cpu0_ITLB TOTAL     ACCESS:    1553086  HIT:    1544176  MISS:       8910
cpu0_ITLB LOAD      ACCESS:    1553086  HIT:    1544176  MISS:       8910
cpu0_ITLB RFO       ACCESS:          0  HIT:          0  MISS:          0
cpu0_ITLB PREFETCH  ACCESS:          0  HIT:          0  MISS:          0
cpu0_ITLB WRITEBACK ACCESS:          0  HIT:          0  MISS:          0
cpu0_L1I TOTAL     ACCESS:    1337295  HIT:    1336967  MISS:        328
cpu0_L1I LOAD      ACCESS:    1337295  HIT:    1336967  MISS:        328
cpu0_L1I RFO       ACCESS:          0  HIT:          0  MISS:          0
cpu0_L1I PREFETCH  ACCESS:          0  HIT:          0  MISS:          0
cpu0_L1I WRITEBACK ACCESS:          0  HIT:          0  MISS:          0
cpu0_STLB TOTAL     ACCESS:     266481  HIT:     206752  MISS:      59729
cpu0_STLB LOAD      ACCESS:     227007  HIT:     182955  MISS:      44052
cpu0_STLB RFO       ACCESS:      39474  HIT:      23797  MISS:      15677
cpu0_STLB PREFETCH  ACCESS:          0  HIT:          0  MISS:          0
cpu0_STLB WRITEBACK ACCESS:          0  HIT:          0  MISS:          0
cpu0_L1D TOTAL     ACCESS:    4351065  HIT:    4025128  MISS:     325937
cpu0_L1D LOAD      ACCESS:    2165725  HIT:    1887515  MISS:     278210
cpu0_L1D RFO       ACCESS:    2129116  HIT:    2082093  MISS:      47023
cpu0_L1D PREFETCH  ACCESS:          0  HIT:          0  MISS:          0
cpu0_L1D WRITEBACK ACCESS:          0  HIT:          0  MISS:          0
cpu0_L2C TOTAL     ACCESS:     453040  HIT:     163241  MISS:     289799
cpu0_L2C LOAD      ACCESS:     278536  HIT:      33068  MISS:     245468
cpu0_L2C RFO       ACCESS:      47023  HIT:       3152  MISS:      43871
cpu0_L2C PREFETCH  ACCESS:          0  HIT:          0  MISS:          0
cpu0_L2C WRITEBACK ACCESS:     126777  HIT:     126477  MISS:        300
LLC TOTAL     ACCESS:     400906  HIT:      90110  MISS:     310796
LLC LOAD      ACCESS:     245468  HIT:      40309  MISS:     205159
LLC RFO       ACCESS:      43871  HIT:       5816  MISS:      38055
LLC PREFETCH  ACCESS:          0  HIT:          0  MISS:          0
LLC WRITEBACK ACCESS:     111407  HIT:      43934  MISS:      67473
Heartbeat CPU 0 instructions: 66000001 cycles: 59024437 heartbeat IPC: 0.386497 cumulative IPC: 0.343909 (Simulation time: 0 hr 37 min 56 sec) 

Region of Interest Statistics
cpu0_DTLB TOTAL     ACCESS:    3940352  HIT:    3652175  MISS:     288177
cpu0_DTLB LOAD      ACCESS:    2399633  HIT:    2156053  MISS:     243580
cpu0_DTLB RFO       ACCESS:    1540719  HIT:    1496122  MISS:      44597
cpu0_DTLB PREFETCH  ACCESS:          0  HIT:          0  MISS:          0
cpu0_DTLB WRITEBACK ACCESS:          0  HIT:          0  MISS:          0
cpu0_ITLB TOTAL     ACCESS:    1776216  HIT:    1767071  MISS:       9145
cpu0_ITLB LOAD      ACCESS:    1776216  HIT:    1767071  MISS:       9145
cpu0_ITLB RFO       ACCESS:          0  HIT:          0  MISS:          0
cpu0_ITLB PREFETCH  ACCESS:          0  HIT:          0  MISS:          0
cpu0_ITLB WRITEBACK ACCESS:          0  HIT:          0  MISS:          0
cpu0_L1I TOTAL     ACCESS:    1534500  HIT:    1534165  MISS:        335
cpu0_L1I LOAD      ACCESS:    1534500  HIT:    1534165  MISS:        335
cpu0_L1I RFO       ACCESS:          0  HIT:          0  MISS:          0
cpu0_L1I PREFETCH  ACCESS:          0  HIT:          0  MISS:          0
cpu0_L1I WRITEBACK ACCESS:          0  HIT:          0  MISS:          0
cpu0_STLB TOTAL     ACCESS:     297322  HIT:     230287  MISS:      67035
cpu0_STLB LOAD      ACCESS:     252725  HIT:     203200  MISS:      49525
cpu0_STLB RFO       ACCESS:      44597  HIT:      27087  MISS:      17510
cpu0_STLB PREFETCH  ACCESS:          0  HIT:          0  MISS:          0
cpu0_STLB WRITEBACK ACCESS:          0  HIT:          0  MISS:          0
cpu0_L1D TOTAL     ACCESS:    4974570  HIT:    4608123  MISS:     366447
cpu0_L1D LOAD      ACCESS:    2480740  HIT:    2167659  MISS:     313081
cpu0_L1D RFO       ACCESS:    2430723  HIT:    2378134  MISS:      52589
cpu0_L1D PREFETCH  ACCESS:          0  HIT:          0  MISS:          0
cpu0_L1D WRITEBACK ACCESS:          0  HIT:          0  MISS:          0
cpu0_L2C TOTAL     ACCESS:     510984  HIT:     187261  MISS:     323723
cpu0_L2C LOAD      ACCESS:     313414  HIT:      38713  MISS:     274701
cpu0_L2C RFO       ACCESS:      52589  HIT:       4083  MISS:      48506
cpu0_L2C PREFETCH  ACCESS:          0  HIT:          0  MISS:          0
cpu0_L2C WRITEBACK ACCESS:     144204  HIT:     143871  MISS:        333
LLC TOTAL     ACCESS:     449390  HIT:      99455  MISS:     349935
LLC LOAD      ACCESS:     274701  HIT:      44442  MISS:     230259
LLC RFO       ACCESS:      48506  HIT:       6514  MISS:      41992
LLC PREFETCH  ACCESS:          0  HIT:          0  MISS:          0
LLC WRITEBACK ACCESS:     126000  HIT:      48438  MISS:      77562
Heartbeat CPU 0 instructions: 68000001 cycles: 64446689 heartbeat IPC: 0.36885 cumulative IPC: 0.346512 (Simulation time: 0 hr 39 min 41 sec) 

Region of Interest Statistics
cpu0_DTLB TOTAL     ACCESS:    4434597  HIT:    4117624  MISS:     316973
cpu0_DTLB LOAD      ACCESS:    2700707  HIT:    2431929  MISS:     268778
cpu0_DTLB RFO       ACCESS:    1733890  HIT:    1685695  MISS:      48195
cpu0_DTLB PREFETCH  ACCESS:          0  HIT:          0  MISS:          0
cpu0_DTLB WRITEBACK ACCESS:          0  HIT:          0  MISS:          0
cpu0_ITLB TOTAL     ACCESS:    1996348  HIT:    1985553  MISS:      10795
cpu0_ITLB LOAD      ACCESS:    1996348  HIT:    1985553  MISS:      10795
cpu0_ITLB RFO       ACCESS:          0  HIT:          0  MISS:          0
cpu0_ITLB PREFETCH  ACCESS:          0  HIT:          0  MISS:          0
cpu0_ITLB WRITEBACK ACCESS:          0  HIT:          0  MISS:          0
cpu0_L1I TOTAL     ACCESS:    1730855  HIT:    1730300  MISS:        555
cpu0_L1I LOAD      ACCESS:    1730855  HIT:    1730300  MISS:        555
cpu0_L1I RFO       ACCESS:          0  HIT:          0  MISS:          0
cpu0_L1I PREFETCH  ACCESS:          0  HIT:          0  MISS:          0
cpu0_L1I WRITEBACK ACCESS:          0  HIT:          0  MISS:          0
cpu0_STLB TOTAL     ACCESS:     327769  HIT:     255410  MISS:      72359
cpu0_STLB LOAD      ACCESS:     279574  HIT:     225721  MISS:      53853
cpu0_STLB RFO       ACCESS:      48195  HIT:      29689  MISS:      18506
cpu0_STLB PREFETCH  ACCESS:          0  HIT:          0  MISS:          0
cpu0_STLB WRITEBACK ACCESS:          0  HIT:          0  MISS:          0
cpu0_L1D TOTAL     ACCESS:    5593308  HIT:    5183144  MISS:     410164
cpu0_L1D LOAD      ACCESS:    2785760  HIT:    2436344  MISS:     349416
cpu0_L1D RFO       ACCESS:    2739362  HIT:    2679485  MISS:      59877
cpu0_L1D PREFETCH  ACCESS:          0  HIT:          0  MISS:          0
cpu0_L1D WRITEBACK ACCESS:          0  HIT:          0  MISS:          0
cpu0_L2C TOTAL     ACCESS:     570393  HIT:     212665  MISS:     357728
cpu0_L2C LOAD      ACCESS:     349967  HIT:      47852  MISS:     302115
cpu0_L2C RFO       ACCESS:      59877  HIT:       4854  MISS:      55023
cpu0_L2C PREFETCH  ACCESS:          0  HIT:          0  MISS:          0
cpu0_L2C WRITEBACK ACCESS:     159678  HIT:     159295  MISS:        383
LLC TOTAL     ACCESS:     495349  HIT:     107930  MISS:     387419
LLC LOAD      ACCESS:     302115  HIT:      47800  MISS:     254315
LLC RFO       ACCESS:      55023  HIT:       7071  MISS:      47952
LLC PREFETCH  ACCESS:          0  HIT:          0  MISS:          0
LLC WRITEBACK ACCESS:     138004  HIT:      52989  MISS:      85015
Heartbeat CPU 0 instructions: 70000001 cycles: 70728879 heartbeat IPC: 0.31836 cumulative IPC: 0.343475 (Simulation time: 0 hr 42 min 2 sec) 

Region of Interest Statistics
cpu0_DTLB TOTAL     ACCESS:    4942042  HIT:    4573437  MISS:     368605
cpu0_DTLB LOAD      ACCESS:    3014520  HIT:    2702833  MISS:     311687
cpu0_DTLB RFO       ACCESS:    1927522  HIT:    1870604  MISS:      56918
cpu0_DTLB PREFETCH  ACCESS:          0  HIT:          0  MISS:          0
cpu0_DTLB WRITEBACK ACCESS:          0  HIT:          0  MISS:          0
cpu0_ITLB TOTAL     ACCESS:    2242451  HIT:    2231653  MISS:      10798
cpu0_ITLB LOAD      ACCESS:    2242451  HIT:    2231653  MISS:      10798
cpu0_ITLB RFO       ACCESS:          0  HIT:          0  MISS:          0
cpu0_ITLB PREFETCH  ACCESS:          0  HIT:          0  MISS:          0
cpu0_ITLB WRITEBACK ACCESS:          0  HIT:          0  MISS:          0
cpu0_L1I TOTAL     ACCESS:    1815770  HIT:    1815208  MISS:        562
cpu0_L1I LOAD      ACCESS:    1815770  HIT:    1815208  MISS:        562
cpu0_L1I RFO       ACCESS:          0  HIT:          0  MISS:          0
cpu0_L1I PREFETCH  ACCESS:          0  HIT:          0  MISS:          0
cpu0_L1I WRITEBACK ACCESS:          0  HIT:          0  MISS:          0
cpu0_STLB TOTAL     ACCESS:     379403  HIT:     295726  MISS:      83677
cpu0_STLB LOAD      ACCESS:     322485  HIT:     259510  MISS:      62975
cpu0_STLB RFO       ACCESS:      56918  HIT:      36216  MISS:      20702
cpu0_STLB PREFETCH  ACCESS:          0  HIT:          0  MISS:          0
cpu0_STLB WRITEBACK ACCESS:          0  HIT:          0  MISS:          0
cpu0_L1D TOTAL     ACCESS:    6254358  HIT:    5792022  MISS:     462336
cpu0_L1D LOAD      ACCESS:    3146914  HIT:    2749296  MISS:     397618
cpu0_L1D RFO       ACCESS:    3029477  HIT:    2965742  MISS:      63735
cpu0_L1D PREFETCH  ACCESS:          0  HIT:          0  MISS:          0
cpu0_L1D WRITEBACK ACCESS:          0  HIT:          0  MISS:          0
cpu0_L2C TOTAL     ACCESS:     651757  HIT:     249148  MISS:     402609
cpu0_L2C LOAD      ACCESS:     398175  HIT:      55006  MISS:     343169
cpu0_L2C RFO       ACCESS:      63735  HIT:       4928  MISS:      58807
cpu0_L2C PREFETCH  ACCESS:          0  HIT:          0  MISS:          0
cpu0_L2C WRITEBACK ACCESS:     188864  HIT:     188456  MISS:        408
LLC TOTAL     ACCESS:     564816  HIT:     114793  MISS:     450023
LLC LOAD      ACCESS:     343169  HIT:      49801  MISS:     293368
LLC RFO       ACCESS:      58807  HIT:       7233  MISS:      51574
LLC PREFETCH  ACCESS:          0  HIT:          0  MISS:          0
LLC WRITEBACK ACCESS:     162615  HIT:      57683  MISS:     104932
Heartbeat CPU 0 instructions: 72000000 cycles: 76663975 heartbeat IPC: 0.336978 cumulative IPC: 0.342874 (Simulation time: 0 hr 44 min 13 sec) 

Region of Interest Statistics
cpu0_DTLB TOTAL     ACCESS:    5427984  HIT:    5022969  MISS:     405015
cpu0_DTLB LOAD      ACCESS:    3307539  HIT:    2967104  MISS:     340435
cpu0_DTLB RFO       ACCESS:    2120445  HIT:    2055865  MISS:      64580
cpu0_DTLB PREFETCH  ACCESS:          0  HIT:          0  MISS:          0
cpu0_DTLB WRITEBACK ACCESS:          0  HIT:          0  MISS:          0
cpu0_ITLB TOTAL     ACCESS:    2462976  HIT:    2452026  MISS:      10950
cpu0_ITLB LOAD      ACCESS:    2462976  HIT:    2452026  MISS:      10950
cpu0_ITLB RFO       ACCESS:          0  HIT:          0  MISS:          0
cpu0_ITLB PREFETCH  ACCESS:          0  HIT:          0  MISS:          0
cpu0_ITLB WRITEBACK ACCESS:          0  HIT:          0  MISS:          0
cpu0_L1I TOTAL     ACCESS:    1995667  HIT:    1995086  MISS:        581
cpu0_L1I LOAD      ACCESS:    1995667  HIT:    1995086  MISS:        581
cpu0_L1I RFO       ACCESS:          0  HIT:          0  MISS:          0
cpu0_L1I PREFETCH  ACCESS:          0  HIT:          0  MISS:          0
cpu0_L1I WRITEBACK ACCESS:          0  HIT:          0  MISS:          0
cpu0_STLB TOTAL     ACCESS:     415965  HIT:     322947  MISS:      93018
cpu0_STLB LOAD      ACCESS:     351385  HIT:     282315  MISS:      69070
cpu0_STLB RFO       ACCESS:      64580  HIT:      40632  MISS:      23948
cpu0_STLB PREFETCH  ACCESS:          0  HIT:          0  MISS:          0
cpu0_STLB WRITEBACK ACCESS:          0  HIT:          0  MISS:          0
cpu0_L1D TOTAL     ACCESS:    6876407  HIT:    6369428  MISS:     506979
cpu0_L1D LOAD      ACCESS:    3457009  HIT:    3020040  MISS:     436969
cpu0_L1D RFO       ACCESS:    3332745  HIT:    3263809  MISS:      68936
cpu0_L1D PREFETCH  ACCESS:          0  HIT:          0  MISS:          0
cpu0_L1D WRITEBACK ACCESS:          0  HIT:          0  MISS:          0
cpu0_L2C TOTAL     ACCESS:     718109  HIT:     276297  MISS:     441812
cpu0_L2C LOAD      ACCESS:     437544  HIT:      60332  MISS:     377212
cpu0_L2C RFO       ACCESS:      68936  HIT:       5037  MISS:      63899
cpu0_L2C PREFETCH  ACCESS:          0  HIT:          0  MISS:          0
cpu0_L2C WRITEBACK ACCESS:     210555  HIT:     210100  MISS:        455
LLC TOTAL     ACCESS:     624921  HIT:     123854  MISS:     501067
LLC LOAD      ACCESS:     377212  HIT:      53764  MISS:     323448
LLC RFO       ACCESS:      63899  HIT:       7595  MISS:      56304
LLC PREFETCH  ACCESS:          0  HIT:          0  MISS:          0
LLC WRITEBACK ACCESS:     183564  HIT:      62416  MISS:     121148
Heartbeat CPU 0 instructions: 74000001 cycles: 82848224 heartbeat IPC: 0.323402 cumulative IPC: 0.341162 (Simulation time: 0 hr 46 min 17 sec) 

Region of Interest Statistics
cpu0_DTLB TOTAL     ACCESS:    5920702  HIT:    5476091  MISS:     444611
cpu0_DTLB LOAD      ACCESS:    3605162  HIT:    3230305  MISS:     374857
cpu0_DTLB RFO       ACCESS:    2315540  HIT:    2245786  MISS:      69754
cpu0_DTLB PREFETCH  ACCESS:          0  HIT:          0  MISS:          0
cpu0_DTLB WRITEBACK ACCESS:          0  HIT:          0  MISS:          0
cpu0_ITLB TOTAL     ACCESS:    2679004  HIT:    2665718  MISS:      13286
cpu0_ITLB LOAD      ACCESS:    2679004  HIT:    2665718  MISS:      13286
cpu0_ITLB RFO       ACCESS:          0  HIT:          0  MISS:          0
cpu0_ITLB PREFETCH  ACCESS:          0  HIT:          0  MISS:          0
cpu0_ITLB WRITEBACK ACCESS:          0  HIT:          0  MISS:          0
cpu0_L1I TOTAL     ACCESS:    2198910  HIT:    2198327  MISS:        583
cpu0_L1I LOAD      ACCESS:    2198910  HIT:    2198327  MISS:        583
cpu0_L1I RFO       ACCESS:          0  HIT:          0  MISS:          0
cpu0_L1I PREFETCH  ACCESS:          0  HIT:          0  MISS:          0
cpu0_L1I WRITEBACK ACCESS:          0  HIT:          0  MISS:          0
cpu0_STLB TOTAL     ACCESS:     457897  HIT:     356827  MISS:     101070
cpu0_STLB LOAD      ACCESS:     388143  HIT:     312839  MISS:      75304
cpu0_STLB RFO       ACCESS:      69754  HIT:      43988  MISS:      25766
cpu0_STLB PREFETCH  ACCESS:          0  HIT:          0  MISS:          0
cpu0_STLB WRITEBACK ACCESS:          0  HIT:          0  MISS:          0
cpu0_L1D TOTAL     ACCESS:    7497112  HIT:    6943086  MISS:     554026
cpu0_L1D LOAD      ACCESS:    3764251  HIT:    3287390  MISS:     476861
cpu0_L1D RFO       ACCESS:    3638594  HIT:    3562567  MISS:      76027
cpu0_L1D PREFETCH  ACCESS:          0  HIT:          0  MISS:          0
cpu0_L1D WRITEBACK ACCESS:          0  HIT:          0  MISS:          0
cpu0_L2C TOTAL     ACCESS:     781417  HIT:     294255  MISS:     487162
cpu0_L2C LOAD      ACCESS:     477438  HIT:      61971  MISS:     415467
cpu0_L2C RFO       ACCESS:      76027  HIT:       5089  MISS:      70938
cpu0_L2C PREFETCH  ACCESS:          0  HIT:          0  MISS:          0
cpu0_L2C WRITEBACK ACCESS:     226814  HIT:     226320  MISS:        494
LLC TOTAL     ACCESS:     685810  HIT:     137208  MISS:     548602
LLC LOAD      ACCESS:     415467  HIT:      60312  MISS:     355155
LLC RFO       ACCESS:      70938  HIT:       8393  MISS:      62545
LLC PREFETCH  ACCESS:          0  HIT:          0  MISS:          0
LLC WRITEBACK ACCESS:     199142  HIT:      68418  MISS:     130724
Heartbeat CPU 0 instructions: 76000002 cycles: 88866517 heartbeat IPC: 0.33232 cumulative IPC: 0.340465 (Simulation time: 0 hr 48 min 29 sec) 

Region of Interest Statistics
cpu0_DTLB TOTAL     ACCESS:    6427196  HIT:    5938467  MISS:     488729
cpu0_DTLB LOAD      ACCESS:    3921842  HIT:    3509892  MISS:     411950
cpu0_DTLB RFO       ACCESS:    2505354  HIT:    2428575  MISS:      76779
cpu0_DTLB PREFETCH  ACCESS:          0  HIT:          0  MISS:          0
cpu0_DTLB WRITEBACK ACCESS:          0  HIT:          0  MISS:          0
cpu0_ITLB TOTAL     ACCESS:    2918351  HIT:    2904986  MISS:      13365
cpu0_ITLB LOAD      ACCESS:    2918351  HIT:    2904986  MISS:      13365
cpu0_ITLB RFO       ACCESS:          0  HIT:          0  MISS:          0
cpu0_ITLB PREFETCH  ACCESS:          0  HIT:          0  MISS:          0
cpu0_ITLB WRITEBACK ACCESS:          0  HIT:          0  MISS:          0
cpu0_L1I TOTAL     ACCESS:    2315809  HIT:    2315220  MISS:        589
cpu0_L1I LOAD      ACCESS:    2315809  HIT:    2315220  MISS:        589
cpu0_L1I RFO       ACCESS:          0  HIT:          0  MISS:          0
cpu0_L1I PREFETCH  ACCESS:          0  HIT:          0  MISS:          0
cpu0_L1I WRITEBACK ACCESS:          0  HIT:          0  MISS:          0
cpu0_STLB TOTAL     ACCESS:     502094  HIT:     390529  MISS:     111565
cpu0_STLB LOAD      ACCESS:     425315  HIT:     342079  MISS:      83236
cpu0_STLB RFO       ACCESS:      76779  HIT:      48450  MISS:      28329
cpu0_STLB PREFETCH  ACCESS:          0  HIT:          0  MISS:          0
cpu0_STLB WRITEBACK ACCESS:          0  HIT:          0  MISS:          0
cpu0_L1D TOTAL     ACCESS:    8141180  HIT:    7534510  MISS:     606670
cpu0_L1D LOAD      ACCESS:    4114353  HIT:    3590489  MISS:     523864
cpu0_L1D RFO       ACCESS:    3923119  HIT:    3841547  MISS:      81572
cpu0_L1D PREFETCH  ACCESS:          0  HIT:          0  MISS:          0
cpu0_L1D WRITEBACK ACCESS:          0  HIT:          0  MISS:          0
cpu0_L2C TOTAL     ACCESS:     860705  HIT:     326048  MISS:     534657
cpu0_L2C LOAD      ACCESS:     524446  HIT:      66999  MISS:     457447
cpu0_L2C RFO       ACCESS:      81572  HIT:       5182  MISS:      76390
cpu0_L2C PREFETCH  ACCESS:          0  HIT:          0  MISS:          0
cpu0_L2C WRITEBACK ACCESS:     253453  HIT:     252921  MISS:        532
LLC TOTAL     ACCESS:     756839  HIT:     150064  MISS:     606775
LLC LOAD      ACCESS:     457447  HIT:      65467  MISS:     391980
LLC RFO       ACCESS:      76390  HIT:       8947  MISS:      67443
LLC PREFETCH  ACCESS:          0  HIT:          0  MISS:          0
LLC WRITEBACK ACCESS:     222714  HIT:      75556  MISS:     147158
Heartbeat CPU 0 instructions: 78000000 cycles: 94739399 heartbeat IPC: 0.340548 cumulative IPC: 0.340471 (Simulation time: 0 hr 50 min 42 sec) 

Region of Interest Statistics
cpu0_DTLB TOTAL     ACCESS:    6910762  HIT:    6384977  MISS:     525785
cpu0_DTLB LOAD      ACCESS:    4209323  HIT:    3768246  MISS:     441077
cpu0_DTLB RFO       ACCESS:    2701439  HIT:    2616731  MISS:      84708
cpu0_DTLB PREFETCH  ACCESS:          0  HIT:          0  MISS:          0
cpu0_DTLB WRITEBACK ACCESS:          0  HIT:          0  MISS:          0
cpu0_ITLB TOTAL     ACCESS:    3146161  HIT:    3132544  MISS:      13617
cpu0_ITLB LOAD      ACCESS:    3146161  HIT:    3132544  MISS:      13617
cpu0_ITLB RFO       ACCESS:          0  HIT:          0  MISS:          0
cpu0_ITLB PREFETCH  ACCESS:          0  HIT:          0  MISS:          0
cpu0_ITLB WRITEBACK ACCESS:          0  HIT:          0  MISS:          0
cpu0_L1I TOTAL     ACCESS:    2466388  HIT:    2465768  MISS:        620
cpu0_L1I LOAD      ACCESS:    2466388  HIT:    2465768  MISS:        620
cpu0_L1I RFO       ACCESS:          0  HIT:          0  MISS:          0
cpu0_L1I PREFETCH  ACCESS:          0  HIT:          0  MISS:          0
cpu0_L1I WRITEBACK ACCESS:          0  HIT:          0  MISS:          0
cpu0_STLB TOTAL     ACCESS:     539402  HIT:     416943  MISS:     122459
cpu0_STLB LOAD      ACCESS:     454694  HIT:     364788  MISS:      89906
cpu0_STLB RFO       ACCESS:      84708  HIT:      52155  MISS:      32553
cpu0_STLB PREFETCH  ACCESS:          0  HIT:          0  MISS:          0
cpu0_STLB WRITEBACK ACCESS:          0  HIT:          0  MISS:          0
cpu0_L1D TOTAL     ACCESS:    8760668  HIT:    8111035  MISS:     649633
cpu0_L1D LOAD      ACCESS:    4421751  HIT:    3860218  MISS:     561533
cpu0_L1D RFO       ACCESS:    4224815  HIT:    4138026  MISS:      86789
cpu0_L1D PREFETCH  ACCESS:          0  HIT:          0  MISS:          0
cpu0_L1D WRITEBACK ACCESS:          0  HIT:          0  MISS:          0
cpu0_L2C TOTAL     ACCESS:     924955  HIT:     350632  MISS:     574323
cpu0_L2C LOAD      ACCESS:     562146  HIT:      69985  MISS:     492161
cpu0_L2C RFO       ACCESS:      86789  HIT:       5515  MISS:      81274
cpu0_L2C PREFETCH  ACCESS:          0  HIT:          0  MISS:          0
cpu0_L2C WRITEBACK ACCESS:     274709  HIT:     274135  MISS:        574
LLC TOTAL     ACCESS:     817092  HIT:     161291  MISS:     655801
LLC LOAD      ACCESS:     492161  HIT:      70190  MISS:     421971
LLC RFO       ACCESS:      81274  HIT:       9646  MISS:      71628
LLC PREFETCH  ACCESS:          0  HIT:          0  MISS:          0
LLC WRITEBACK ACCESS:     243343  HIT:      81353  MISS:     161990
Heartbeat CPU 0 instructions: 80000002 cycles: 101011585 heartbeat IPC: 0.318868 cumulative IPC: 0.33894 (Simulation time: 0 hr 52 min 58 sec) 

Region of Interest Statistics
cpu0_DTLB TOTAL     ACCESS:    7406226  HIT:    6834851  MISS:     571375
cpu0_DTLB LOAD      ACCESS:    4508322  HIT:    4029150  MISS:     479172
cpu0_DTLB RFO       ACCESS:    2897904  HIT:    2805701  MISS:      92203
cpu0_DTLB PREFETCH  ACCESS:          0  HIT:          0  MISS:          0
cpu0_DTLB WRITEBACK ACCESS:          0  HIT:          0  MISS:          0
cpu0_ITLB TOTAL     ACCESS:    3366137  HIT:    3350737  MISS:      15400
cpu0_ITLB LOAD      ACCESS:    3366137  HIT:    3350737  MISS:      15400
cpu0_ITLB RFO       ACCESS:          0  HIT:          0  MISS:          0
cpu0_ITLB PREFETCH  ACCESS:          0  HIT:          0  MISS:          0
cpu0_ITLB WRITEBACK ACCESS:          0  HIT:          0  MISS:          0
cpu0_L1I TOTAL     ACCESS:    2642741  HIT:    2642119  MISS:        622
cpu0_L1I LOAD      ACCESS:    2642741  HIT:    2642119  MISS:        622
cpu0_L1I RFO       ACCESS:          0  HIT:          0  MISS:          0
cpu0_L1I PREFETCH  ACCESS:          0  HIT:          0  MISS:          0
cpu0_L1I WRITEBACK ACCESS:          0  HIT:          0  MISS:          0
cpu0_STLB TOTAL     ACCESS:     586775  HIT:     453416  MISS:     133359
cpu0_STLB LOAD      ACCESS:     494572  HIT:     396943  MISS:      97629
cpu0_STLB RFO       ACCESS:      92203  HIT:      56473  MISS:      35730
cpu0_STLB PREFETCH  ACCESS:          0  HIT:          0  MISS:          0
cpu0_STLB WRITEBACK ACCESS:          0  HIT:          0  MISS:          0
cpu0_L1D TOTAL     ACCESS:    9397656  HIT:    8693819  MISS:     703837
cpu0_L1D LOAD      ACCESS:    4744403  HIT:    4134573  MISS:     609830
cpu0_L1D RFO       ACCESS:    4529088  HIT:    4436482  MISS:      92606
cpu0_L1D PREFETCH  ACCESS:          0  HIT:          0  MISS:          0
cpu0_L1D WRITEBACK ACCESS:          0  HIT:          0  MISS:          0
cpu0_L2C TOTAL     ACCESS:    1002398  HIT:     379448  MISS:     622950
cpu0_L2C LOAD      ACCESS:     610445  HIT:      75454  MISS:     534991
cpu0_L2C RFO       ACCESS:      92606  HIT:       5600  MISS:      87006
cpu0_L2C PREFETCH  ACCESS:          0  HIT:          0  MISS:          0
cpu0_L2C WRITEBACK ACCESS:     297946  HIT:     297323  MISS:        623
LLC TOTAL     ACCESS:     887251  HIT:     176142  MISS:     711109
LLC LOAD      ACCESS:     534991  HIT:      76923  MISS:     458068
LLC RFO       ACCESS:      87006  HIT:      10539  MISS:      76467
LLC PREFETCH  ACCESS:          0  HIT:          0  MISS:          0
LLC WRITEBACK ACCESS:     264924  HIT:      88571  MISS:     176353
Heartbeat CPU 0 instructions: 82000000 cycles: 106769844 heartbeat IPC: 0.347327 cumulative IPC: 0.339453 (Simulation time: 0 hr 54 min 50 sec) 

Region of Interest Statistics
cpu0_DTLB TOTAL     ACCESS:    7914505  HIT:    7299774  MISS:     614731
cpu0_DTLB LOAD      ACCESS:    4819514  HIT:    4304589  MISS:     514925
cpu0_DTLB RFO       ACCESS:    3094991  HIT:    2995185  MISS:      99806
cpu0_DTLB PREFETCH  ACCESS:          0  HIT:          0  MISS:          0
cpu0_DTLB WRITEBACK ACCESS:          0  HIT:          0  MISS:          0
cpu0_ITLB TOTAL     ACCESS:    3597800  HIT:    3581712  MISS:      16088
cpu0_ITLB LOAD      ACCESS:    3597800  HIT:    3581712  MISS:      16088
cpu0_ITLB RFO       ACCESS:          0  HIT:          0  MISS:          0
cpu0_ITLB PREFETCH  ACCESS:          0  HIT:          0  MISS:          0
cpu0_ITLB WRITEBACK ACCESS:          0  HIT:          0  MISS:          0
cpu0_L1I TOTAL     ACCESS:    2795154  HIT:    2794398  MISS:        756
cpu0_L1I LOAD      ACCESS:    2795154  HIT:    2794398  MISS:        756
cpu0_L1I RFO       ACCESS:          0  HIT:          0  MISS:          0
cpu0_L1I PREFETCH  ACCESS:          0  HIT:          0  MISS:          0
cpu0_L1I WRITEBACK ACCESS:          0  HIT:          0  MISS:          0
cpu0_STLB TOTAL     ACCESS:     630819  HIT:     488932  MISS:     141887
cpu0_STLB LOAD      ACCESS:     531013  HIT:     427466  MISS:     103547
cpu0_STLB RFO       ACCESS:      99806  HIT:      61466  MISS:      38340
cpu0_STLB PREFETCH  ACCESS:          0  HIT:          0  MISS:          0
cpu0_STLB WRITEBACK ACCESS:          0  HIT:          0  MISS:          0
cpu0_L1D TOTAL     ACCESS:   10025167  HIT:    9273528  MISS:     751639
cpu0_L1D LOAD      ACCESS:    5075370  HIT:    4425706  MISS:     649664
cpu0_L1D RFO       ACCESS:    4817723  HIT:    4717245  MISS:     100478
cpu0_L1D PREFETCH  ACCESS:          0  HIT:          0  MISS:          0
cpu0_L1D WRITEBACK ACCESS:          0  HIT:          0  MISS:          0
cpu0_L2C TOTAL     ACCESS:    1071441  HIT:     406636  MISS:     664805
cpu0_L2C LOAD      ACCESS:     650413  HIT:      81016  MISS:     569397
cpu0_L2C RFO       ACCESS:     100478  HIT:       6100  MISS:      94378
cpu0_L2C PREFETCH  ACCESS:          0  HIT:          0  MISS:          0
cpu0_L2C WRITEBACK ACCESS:     319053  HIT:     318378  MISS:        675
LLC TOTAL     ACCESS:     945634  HIT:     188840  MISS:     756794
LLC LOAD      ACCESS:     569397  HIT:      82022  MISS:     487375
LLC RFO       ACCESS:      94378  HIT:      11526  MISS:      82852
LLC PREFETCH  ACCESS:          0  HIT:          0  MISS:          0
LLC WRITEBACK ACCESS:     281504  HIT:      95175  MISS:     186329
Heartbeat CPU 0 instructions: 84000003 cycles: 113510133 heartbeat IPC: 0.296724 cumulative IPC: 0.336601 (Simulation time: 0 hr 56 min 57 sec) 

Region of Interest Statistics
cpu0_DTLB TOTAL     ACCESS:    8417766  HIT:    7756786  MISS:     660980
cpu0_DTLB LOAD      ACCESS:    5125176  HIT:    4571358  MISS:     553818
cpu0_DTLB RFO       ACCESS:    3292590  HIT:    3185428  MISS:     107162
cpu0_DTLB PREFETCH  ACCESS:          0  HIT:          0  MISS:          0
cpu0_DTLB WRITEBACK ACCESS:          0  HIT:          0  MISS:          0
cpu0_ITLB TOTAL     ACCESS:    3822958  HIT:    3805297  MISS:      17661
cpu0_ITLB LOAD      ACCESS:    3822958  HIT:    3805297  MISS:      17661
cpu0_ITLB RFO       ACCESS:          0  HIT:          0  MISS:          0
cpu0_ITLB PREFETCH  ACCESS:          0  HIT:          0  MISS:          0
cpu0_ITLB WRITEBACK ACCESS:          0  HIT:          0  MISS:          0
cpu0_L1I TOTAL     ACCESS:    2962143  HIT:    2961379  MISS:        764
cpu0_L1I LOAD      ACCESS:    2962143  HIT:    2961379  MISS:        764
cpu0_L1I RFO       ACCESS:          0  HIT:          0  MISS:          0
cpu0_L1I PREFETCH  ACCESS:          0  HIT:          0  MISS:          0
cpu0_L1I WRITEBACK ACCESS:          0  HIT:          0  MISS:          0
cpu0_STLB TOTAL     ACCESS:     678641  HIT:     525757  MISS:     152884
cpu0_STLB LOAD      ACCESS:     571479  HIT:     459609  MISS:     111870
cpu0_STLB RFO       ACCESS:     107162  HIT:      66148  MISS:      41014
cpu0_STLB PREFETCH  ACCESS:          0  HIT:          0  MISS:          0
cpu0_STLB WRITEBACK ACCESS:          0  HIT:          0  MISS:          0
cpu0_L1D TOTAL     ACCESS:   10677180  HIT:    9868541  MISS:     808639
cpu0_L1D LOAD      ACCESS:    5412724  HIT:    4711937  MISS:     700787
cpu0_L1D RFO       ACCESS:    5122632  HIT:    5016377  MISS:     106255
cpu0_L1D PREFETCH  ACCESS:          0  HIT:          0  MISS:          0
cpu0_L1D WRITEBACK ACCESS:          0  HIT:          0  MISS:          0
cpu0_L2C TOTAL     ACCESS:    1153651  HIT:     439944  MISS:     713707
cpu0_L2C LOAD      ACCESS:     701543  HIT:      89020  MISS:     612523
cpu0_L2C RFO       ACCESS:     106255  HIT:       6177  MISS:     100078
cpu0_L2C PREFETCH  ACCESS:          0  HIT:          0  MISS:          0
cpu0_L2C WRITEBACK ACCESS:     344256  HIT:     343527  MISS:        729
LLC TOTAL     ACCESS:    1018838  HIT:     200228  MISS:     818610
LLC LOAD      ACCESS:     612523  HIT:      86662  MISS:     525861
LLC RFO       ACCESS:     100078  HIT:      12186  MISS:      87892
LLC PREFETCH  ACCESS:          0  HIT:          0  MISS:          0
LLC WRITEBACK ACCESS:     305860  HIT:     101255  MISS:     204605
Heartbeat CPU 0 instructions: 86000001 cycles: 119459068 heartbeat IPC: 0.336194 cumulative IPC: 0.336579 (Simulation time: 0 hr 58 min 53 sec) 

Region of Interest Statistics
cpu0_DTLB TOTAL     ACCESS:    8911884  HIT:    8212303  MISS:     699581
cpu0_DTLB LOAD      ACCESS:    5425087  HIT:    4838911  MISS:     586176
cpu0_DTLB RFO       ACCESS:    3486797  HIT:    3373392  MISS:     113405
cpu0_DTLB PREFETCH  ACCESS:          0  HIT:          0  MISS:          0
cpu0_DTLB WRITEBACK ACCESS:          0  HIT:          0  MISS:          0
cpu0_ITLB TOTAL     ACCESS:    4046359  HIT:    4027737  MISS:      18622
cpu0_ITLB LOAD      ACCESS:    4046359  HIT:    4027737  MISS:      18622
cpu0_ITLB RFO       ACCESS:          0  HIT:          0  MISS:          0
cpu0_ITLB PREFETCH  ACCESS:          0  HIT:          0  MISS:          0
cpu0_ITLB WRITEBACK ACCESS:          0  HIT:          0  MISS:          0
cpu0_L1I TOTAL     ACCESS:    3156622  HIT:    3155804  MISS:        818
cpu0_L1I LOAD      ACCESS:    3156622  HIT:    3155804  MISS:        818
cpu0_L1I RFO       ACCESS:          0  HIT:          0  MISS:          0
cpu0_L1I PREFETCH  ACCESS:          0  HIT:          0  MISS:          0
cpu0_L1I WRITEBACK ACCESS:          0  HIT:          0  MISS:          0
cpu0_STLB TOTAL     ACCESS:     718203  HIT:     556653  MISS:     161550
cpu0_STLB LOAD      ACCESS:     604798  HIT:     486879  MISS:     117919
cpu0_STLB RFO       ACCESS:     113405  HIT:      69774  MISS:      43631
cpu0_STLB PREFETCH  ACCESS:          0  HIT:          0  MISS:          0
cpu0_STLB WRITEBACK ACCESS:          0  HIT:          0  MISS:          0
cpu0_L1D TOTAL     ACCESS:   11292727  HIT:   10439007  MISS:     853720
cpu0_L1D LOAD      ACCESS:    5721329  HIT:    4982725  MISS:     738604
cpu0_L1D RFO       ACCESS:    5421329  HIT:    5307901  MISS:     113428
cpu0_L1D PREFETCH  ACCESS:          0  HIT:          0  MISS:          0
cpu0_L1D WRITEBACK ACCESS:          0  HIT:          0  MISS:          0
cpu0_L2C TOTAL     ACCESS:    1215727  HIT:     460546  MISS:     755181
cpu0_L2C LOAD      ACCESS:     739414  HIT:      92451  MISS:     646963
cpu0_L2C RFO       ACCESS:     113428  HIT:       6396  MISS:     107032
cpu0_L2C PREFETCH  ACCESS:          0  HIT:          0  MISS:          0
cpu0_L2C WRITEBACK ACCESS:     361197  HIT:     360414  MISS:        783
LLC TOTAL     ACCESS:    1074956  HIT:     212317  MISS:     862639
LLC LOAD      ACCESS:     646963  HIT:      92214  MISS:     554749
LLC RFO       ACCESS:     107032  HIT:      13053  MISS:      93979
LLC PREFETCH  ACCESS:          0  HIT:          0  MISS:          0
LLC WRITEBACK ACCESS:     320558  HIT:     106918  MISS:     213640
Heartbeat CPU 0 instructions: 88000001 cycles: 124683214 heartbeat IPC: 0.382838 cumulative IPC: 0.338733 (Simulation time: 1 hr 0 min 29 sec) 

Region of Interest Statistics
cpu0_DTLB TOTAL     ACCESS:    9392591  HIT:    8662600  MISS:     729991
cpu0_DTLB LOAD      ACCESS:    5715995  HIT:    5103800  MISS:     612195
cpu0_DTLB RFO       ACCESS:    3676596  HIT:    3558800  MISS:     117796
cpu0_DTLB PREFETCH  ACCESS:          0  HIT:          0  MISS:          0
cpu0_DTLB WRITEBACK ACCESS:          0  HIT:          0  MISS:          0
cpu0_ITLB TOTAL     ACCESS:    4270755  HIT:    4251841  MISS:      18914
cpu0_ITLB LOAD      ACCESS:    4270755  HIT:    4251841  MISS:      18914
cpu0_ITLB RFO       ACCESS:          0  HIT:          0  MISS:          0
cpu0_ITLB PREFETCH  ACCESS:          0  HIT:          0  MISS:          0
cpu0_ITLB WRITEBACK ACCESS:          0  HIT:          0  MISS:          0
cpu0_L1I TOTAL     ACCESS:    3380372  HIT:    3379550  MISS:        822
cpu0_L1I LOAD      ACCESS:    3380372  HIT:    3379550  MISS:        822
cpu0_L1I RFO       ACCESS:          0  HIT:          0  MISS:          0
cpu0_L1I PREFETCH  ACCESS:          0  HIT:          0  MISS:          0
cpu0_L1I WRITEBACK ACCESS:          0  HIT:          0  MISS:          0
cpu0_STLB TOTAL     ACCESS:     748905  HIT:     580624  MISS:     168281
cpu0_STLB LOAD      ACCESS:     631109  HIT:     508120  MISS:     122989
cpu0_STLB RFO       ACCESS:     117796  HIT:      72504  MISS:      45292
cpu0_STLB PREFETCH  ACCESS:          0  HIT:          0  MISS:          0
cpu0_STLB WRITEBACK ACCESS:          0  HIT:          0  MISS:          0
cpu0_L1D TOTAL     ACCESS:   11899807  HIT:   11010716  MISS:     889091
cpu0_L1D LOAD      ACCESS:    6009176  HIT:    5241570  MISS:     767606
cpu0_L1D RFO       ACCESS:    5734071  HIT:    5614324  MISS:     119747
cpu0_L1D PREFETCH  ACCESS:          0  HIT:          0  MISS:          0
cpu0_L1D WRITEBACK ACCESS:          0  HIT:          0  MISS:          0
cpu0_L2C TOTAL     ACCESS:    1265075  HIT:     476310  MISS:     788765
cpu0_L2C LOAD      ACCESS:     768420  HIT:      94210  MISS:     674210
cpu0_L2C RFO       ACCESS:     119747  HIT:       6419  MISS:     113328
cpu0_L2C PREFETCH  ACCESS:          0  HIT:          0  MISS:          0
cpu0_L2C WRITEBACK ACCESS:     375170  HIT:     374359  MISS:        811
LLC TOTAL     ACCESS:    1121573  HIT:     221865  MISS:     899708
LLC LOAD      ACCESS:     674210  HIT:      96070  MISS:     578140
LLC RFO       ACCESS:     113328  HIT:      13417  MISS:      99911
LLC PREFETCH  ACCESS:          0  HIT:          0  MISS:          0
LLC WRITEBACK ACCESS:     333619  HIT:     112243  MISS:     221376
Heartbeat CPU 0 instructions: 90000001 cycles: 130852414 heartbeat IPC: 0.324191 cumulative IPC: 0.337975 (Simulation time: 1 hr 2 min 28 sec) 

Region of Interest Statistics
cpu0_DTLB TOTAL     ACCESS:    9882773  HIT:    9112121  MISS:     770652
cpu0_DTLB LOAD      ACCESS:    6013128  HIT:    5364836  MISS:     648292
cpu0_DTLB RFO       ACCESS:    3869645  HIT:    3747285  MISS:     122360
cpu0_DTLB PREFETCH  ACCESS:          0  HIT:          0  MISS:          0
cpu0_DTLB WRITEBACK ACCESS:          0  HIT:          0  MISS:          0
cpu0_ITLB TOTAL     ACCESS:    4489262  HIT:    4467770  MISS:      21492
cpu0_ITLB LOAD      ACCESS:    4489262  HIT:    4467770  MISS:      21492
cpu0_ITLB RFO       ACCESS:          0  HIT:          0  MISS:          0
cpu0_ITLB PREFETCH  ACCESS:          0  HIT:          0  MISS:          0
cpu0_ITLB WRITEBACK ACCESS:          0  HIT:          0  MISS:          0
cpu0_L1I TOTAL     ACCESS:    3585025  HIT:    3584188  MISS:        837
cpu0_L1I LOAD      ACCESS:    3585025  HIT:    3584188  MISS:        837
cpu0_L1I RFO       ACCESS:          0  HIT:          0  MISS:          0
cpu0_L1I PREFETCH  ACCESS:          0  HIT:          0  MISS:          0
cpu0_L1I WRITEBACK ACCESS:          0  HIT:          0  MISS:          0
cpu0_STLB TOTAL     ACCESS:     792144  HIT:     616195  MISS:     175949
cpu0_STLB LOAD      ACCESS:     669784  HIT:     540341  MISS:     129443
cpu0_STLB RFO       ACCESS:     122360  HIT:      75854  MISS:      46506
cpu0_STLB PREFETCH  ACCESS:          0  HIT:          0  MISS:          0
cpu0_STLB WRITEBACK ACCESS:          0  HIT:          0  MISS:          0
cpu0_L1D TOTAL     ACCESS:   12524305  HIT:   11589618  MISS:     934687
cpu0_L1D LOAD      ACCESS:    6316378  HIT:    5510319  MISS:     806059
cpu0_L1D RFO       ACCESS:    6044056  HIT:    5917221  MISS:     126835
cpu0_L1D PREFETCH  ACCESS:          0  HIT:          0  MISS:          0
cpu0_L1D WRITEBACK ACCESS:          0  HIT:          0  MISS:          0
cpu0_L2C TOTAL     ACCESS:    1326033  HIT:     492955  MISS:     833078
cpu0_L2C LOAD      ACCESS:     806888  HIT:      95447  MISS:     711441
cpu0_L2C RFO       ACCESS:     126835  HIT:       6476  MISS:     120359
cpu0_L2C PREFETCH  ACCESS:          0  HIT:          0  MISS:          0
cpu0_L2C WRITEBACK ACCESS:     390517  HIT:     389672  MISS:        845
LLC TOTAL     ACCESS:    1181612  HIT:     233491  MISS:     948121
LLC LOAD      ACCESS:     711441  HIT:     101640  MISS:     609801
LLC RFO       ACCESS:     120359  HIT:      13640  MISS:     106719
LLC PREFETCH  ACCESS:          0  HIT:          0  MISS:          0
LLC WRITEBACK ACCESS:     349379  HIT:     118068  MISS:     231311
Heartbeat CPU 0 instructions: 92000000 cycles: 137042448 heartbeat IPC: 0.3231 cumulative IPC: 0.337236 (Simulation time: 1 hr 4 min 30 sec) 

Region of Interest Statistics
cpu0_DTLB TOTAL     ACCESS:   10375714  HIT:    9573261  MISS:     802453
cpu0_DTLB LOAD      ACCESS:    6310143  HIT:    5634655  MISS:     675488
cpu0_DTLB RFO       ACCESS:    4065571  HIT:    3938606  MISS:     126965
cpu0_DTLB PREFETCH  ACCESS:          0  HIT:          0  MISS:          0
cpu0_DTLB WRITEBACK ACCESS:          0  HIT:          0  MISS:          0
cpu0_ITLB TOTAL     ACCESS:    4707839  HIT:    4684462  MISS:      23377
cpu0_ITLB LOAD      ACCESS:    4707839  HIT:    4684462  MISS:      23377
cpu0_ITLB RFO       ACCESS:          0  HIT:          0  MISS:          0
cpu0_ITLB PREFETCH  ACCESS:          0  HIT:          0  MISS:          0
cpu0_ITLB WRITEBACK ACCESS:          0  HIT:          0  MISS:          0
cpu0_L1I TOTAL     ACCESS:    3779311  HIT:    3778472  MISS:        839
cpu0_L1I LOAD      ACCESS:    3779311  HIT:    3778472  MISS:        839
cpu0_L1I RFO       ACCESS:          0  HIT:          0  MISS:          0
cpu0_L1I PREFETCH  ACCESS:          0  HIT:          0  MISS:          0
cpu0_L1I WRITEBACK ACCESS:          0  HIT:          0  MISS:          0
cpu0_STLB TOTAL     ACCESS:     825830  HIT:     641640  MISS:     184190
cpu0_STLB LOAD      ACCESS:     698865  HIT:     563282  MISS:     135583
cpu0_STLB RFO       ACCESS:     126965  HIT:      78358  MISS:      48607
cpu0_STLB PREFETCH  ACCESS:          0  HIT:          0  MISS:          0
cpu0_STLB WRITEBACK ACCESS:          0  HIT:          0  MISS:          0
cpu0_L1D TOTAL     ACCESS:   13143443  HIT:   12161693  MISS:     981750
cpu0_L1D LOAD      ACCESS:    6622041  HIT:    5777581  MISS:     844460
cpu0_L1D RFO       ACCESS:    6349722  HIT:    6214295  MISS:     135427
cpu0_L1D PREFETCH  ACCESS:          0  HIT:          0  MISS:          0
cpu0_L1D WRITEBACK ACCESS:          0  HIT:          0  MISS:          0
cpu0_L2C TOTAL     ACCESS:    1389762  HIT:     510938  MISS:     878824
cpu0_L2C LOAD      ACCESS:     845291  HIT:      96724  MISS:     748567
cpu0_L2C RFO       ACCESS:     135427  HIT:       6520  MISS:     128907
cpu0_L2C PREFETCH  ACCESS:          0  HIT:          0  MISS:          0
cpu0_L2C WRITEBACK ACCESS:     407181  HIT:     406290  MISS:        891
LLC TOTAL     ACCESS:    1242615  HIT:     246780  MISS:     995835
LLC LOAD      ACCESS:     748567  HIT:     108150  MISS:     640417
LLC RFO       ACCESS:     128907  HIT:      14115  MISS:     114792
LLC PREFETCH  ACCESS:          0  HIT:          0  MISS:          0
LLC WRITEBACK ACCESS:     364682  HIT:     124361  MISS:     240321
Heartbeat CPU 0 instructions: 94000001 cycles: 142330963 heartbeat IPC: 0.378178 cumulative IPC: 0.338903 (Simulation time: 1 hr 6 min 9 sec) 

Region of Interest Statistics
cpu0_DTLB TOTAL     ACCESS:   10880131  HIT:   10044107  MISS:     836024
cpu0_DTLB LOAD      ACCESS:    6623135  HIT:    5919510  MISS:     703625
cpu0_DTLB RFO       ACCESS:    4256996  HIT:    4124597  MISS:     132399
cpu0_DTLB PREFETCH  ACCESS:          0  HIT:          0  MISS:          0
cpu0_DTLB WRITEBACK ACCESS:          0  HIT:          0  MISS:          0
cpu0_ITLB TOTAL     ACCESS:    4932954  HIT:    4908836  MISS:      24118
cpu0_ITLB LOAD      ACCESS:    4932954  HIT:    4908836  MISS:      24118
cpu0_ITLB RFO       ACCESS:          0  HIT:          0  MISS:          0
cpu0_ITLB PREFETCH  ACCESS:          0  HIT:          0  MISS:          0
cpu0_ITLB WRITEBACK ACCESS:          0  HIT:          0  MISS:          0
cpu0_L1I TOTAL     ACCESS:    3947086  HIT:    3945883  MISS:       1203
cpu0_L1I LOAD      ACCESS:    3947086  HIT:    3945883  MISS:       1203
cpu0_L1I RFO       ACCESS:          0  HIT:          0  MISS:          0
cpu0_L1I PREFETCH  ACCESS:          0  HIT:          0  MISS:          0
cpu0_L1I WRITEBACK ACCESS:          0  HIT:          0  MISS:          0
cpu0_STLB TOTAL     ACCESS:     860142  HIT:     669091  MISS:     191051
cpu0_STLB LOAD      ACCESS:     727743  HIT:     586781  MISS:     140962
cpu0_STLB RFO       ACCESS:     132399  HIT:      82310  MISS:      50089
cpu0_STLB PREFETCH  ACCESS:          0  HIT:          0  MISS:          0
cpu0_STLB WRITEBACK ACCESS:          0  HIT:          0  MISS:          0
cpu0_L1D TOTAL     ACCESS:   13766055  HIT:   12739388  MISS:    1026667
cpu0_L1D LOAD      ACCESS:    6945361  HIT:    6062658  MISS:     882703
cpu0_L1D RFO       ACCESS:    6642741  HIT:    6500790  MISS:     141951
cpu0_L1D PREFETCH  ACCESS:          0  HIT:          0  MISS:          0
cpu0_L1D WRITEBACK ACCESS:          0  HIT:          0  MISS:          0
cpu0_L2C TOTAL     ACCESS:    1453460  HIT:     540242  MISS:     913218
cpu0_L2C LOAD      ACCESS:     883898  HIT:     106195  MISS:     777703
cpu0_L2C RFO       ACCESS:     141951  HIT:       7849  MISS:     134102
cpu0_L2C PREFETCH  ACCESS:          0  HIT:          0  MISS:          0
cpu0_L2C WRITEBACK ACCESS:     425598  HIT:     424673  MISS:        925
LLC TOTAL     ACCESS:    1290306  HIT:     255694  MISS:    1034612
LLC LOAD      ACCESS:     777703  HIT:     112116  MISS:     665587
LLC RFO       ACCESS:     134103  HIT:      14426  MISS:     119677
LLC PREFETCH  ACCESS:          0  HIT:          0  MISS:          0
LLC WRITEBACK ACCESS:     378012  HIT:     128995  MISS:     249017
Heartbeat CPU 0 instructions: 96000000 cycles: 147976437 heartbeat IPC: 0.354266 cumulative IPC: 0.339544 (Simulation time: 1 hr 8 min 6 sec) 

Region of Interest Statistics
cpu0_DTLB TOTAL     ACCESS:   11367537  HIT:   10494902  MISS:     872635
cpu0_DTLB LOAD      ACCESS:    6914028  HIT:    6180487  MISS:     733541
cpu0_DTLB RFO       ACCESS:    4453509  HIT:    4314415  MISS:     139094
cpu0_DTLB PREFETCH  ACCESS:          0  HIT:          0  MISS:          0
cpu0_DTLB WRITEBACK ACCESS:          0  HIT:          0  MISS:          0
cpu0_ITLB TOTAL     ACCESS:    5168326  HIT:    5144067  MISS:      24259
cpu0_ITLB LOAD      ACCESS:    5168326  HIT:    5144067  MISS:      24259
cpu0_ITLB RFO       ACCESS:          0  HIT:          0  MISS:          0
cpu0_ITLB PREFETCH  ACCESS:          0  HIT:          0  MISS:          0
cpu0_ITLB WRITEBACK ACCESS:          0  HIT:          0  MISS:          0
cpu0_L1I TOTAL     ACCESS:    4106001  HIT:    4104778  MISS:       1223
cpu0_L1I LOAD      ACCESS:    4106001  HIT:    4104778  MISS:       1223
cpu0_L1I RFO       ACCESS:          0  HIT:          0  MISS:          0
cpu0_L1I PREFETCH  ACCESS:          0  HIT:          0  MISS:          0
cpu0_L1I WRITEBACK ACCESS:          0  HIT:          0  MISS:          0
cpu0_STLB TOTAL     ACCESS:     896894  HIT:     696002  MISS:     200892
cpu0_STLB LOAD      ACCESS:     757800  HIT:     609605  MISS:     148195
cpu0_STLB RFO       ACCESS:     139094  HIT:      86397  MISS:      52697
cpu0_STLB PREFETCH  ACCESS:          0  HIT:          0  MISS:          0
cpu0_STLB WRITEBACK ACCESS:          0  HIT:          0  MISS:          0
cpu0_L1D TOTAL     ACCESS:   14394797  HIT:   13323857  MISS:    1070940
cpu0_L1D LOAD      ACCESS:    7256650  HIT:    6335118  MISS:     921532
cpu0_L1D RFO       ACCESS:    6951339  HIT:    6804008  MISS:     147331
cpu0_L1D PREFETCH  ACCESS:          0  HIT:          0  MISS:          0
cpu0_L1D WRITEBACK ACCESS:          0  HIT:          0  MISS:          0
cpu0_L2C TOTAL     ACCESS:    1520408  HIT:     569091  MISS:     951317
cpu0_L2C LOAD      ACCESS:     922747  HIT:     112100  MISS:     810647
cpu0_L2C RFO       ACCESS:     147331  HIT:       8134  MISS:     139197
cpu0_L2C PREFETCH  ACCESS:          0  HIT:          0  MISS:          0
cpu0_L2C WRITEBACK ACCESS:     448253  HIT:     447286  MISS:        967
LLC TOTAL     ACCESS:    1348719  HIT:     264571  MISS:    1084148
LLC LOAD      ACCESS:     810647  HIT:     115676  MISS:     694971
LLC RFO       ACCESS:     139197  HIT:      15028  MISS:     124169
LLC PREFETCH  ACCESS:          0  HIT:          0  MISS:          0
LLC WRITEBACK ACCESS:     398369  HIT:     133708  MISS:     264661
Heartbeat CPU 0 instructions: 98000001 cycles: 154145169 heartbeat IPC: 0.324216 cumulative IPC: 0.338876 (Simulation time: 1 hr 10 min 27 sec) 

Region of Interest Statistics
cpu0_DTLB TOTAL     ACCESS:   11867890  HIT:   10951471  MISS:     916419
cpu0_DTLB LOAD      ACCESS:    7225049  HIT:    6455002  MISS:     770047
cpu0_DTLB RFO       ACCESS:    4642841  HIT:    4496469  MISS:     146372
cpu0_DTLB PREFETCH  ACCESS:          0  HIT:          0  MISS:          0
cpu0_DTLB WRITEBACK ACCESS:          0  HIT:          0  MISS:          0
cpu0_ITLB TOTAL     ACCESS:    5393634  HIT:    5368600  MISS:      25034
cpu0_ITLB LOAD      ACCESS:    5393634  HIT:    5368600  MISS:      25034
cpu0_ITLB RFO       ACCESS:          0  HIT:          0  MISS:          0
cpu0_ITLB PREFETCH  ACCESS:          0  HIT:          0  MISS:          0
cpu0_ITLB WRITEBACK ACCESS:          0  HIT:          0  MISS:          0
cpu0_L1I TOTAL     ACCESS:    4264988  HIT:    4263753  MISS:       1235
cpu0_L1I LOAD      ACCESS:    4264988  HIT:    4263753  MISS:       1235
cpu0_L1I RFO       ACCESS:          0  HIT:          0  MISS:          0
cpu0_L1I PREFETCH  ACCESS:          0  HIT:          0  MISS:          0
cpu0_L1I WRITEBACK ACCESS:          0  HIT:          0  MISS:          0
cpu0_STLB TOTAL     ACCESS:     941453  HIT:     730425  MISS:     211028
cpu0_STLB LOAD      ACCESS:     795081  HIT:     639835  MISS:     155246
cpu0_STLB RFO       ACCESS:     146372  HIT:      90590  MISS:      55782
cpu0_STLB PREFETCH  ACCESS:          0  HIT:          0  MISS:          0
cpu0_STLB WRITEBACK ACCESS:          0  HIT:          0  MISS:          0
cpu0_L1D TOTAL     ACCESS:   15030267  HIT:   13908145  MISS:    1122122
cpu0_L1D LOAD      ACCESS:    7593948  HIT:    6626711  MISS:     967237
cpu0_L1D RFO       ACCESS:    7240164  HIT:    7087451  MISS:     152713
cpu0_L1D PREFETCH  ACCESS:          0  HIT:          0  MISS:          0
cpu0_L1D WRITEBACK ACCESS:          0  HIT:          0  MISS:          0
cpu0_L2C TOTAL     ACCESS:    1595203  HIT:     596997  MISS:     998206
cpu0_L2C LOAD      ACCESS:     968462  HIT:     116192  MISS:     852270
cpu0_L2C RFO       ACCESS:     152713  HIT:       8327  MISS:     144386
cpu0_L2C PREFETCH  ACCESS:          0  HIT:          0  MISS:          0
cpu0_L2C WRITEBACK ACCESS:     471856  HIT:     470833  MISS:       1023
LLC TOTAL     ACCESS:    1417757  HIT:     277093  MISS:    1140664
LLC LOAD      ACCESS:     852270  HIT:     121570  MISS:     730700
LLC RFO       ACCESS:     144386  HIT:      15466  MISS:     128920
LLC PREFETCH  ACCESS:          0  HIT:          0  MISS:          0
LLC WRITEBACK ACCESS:     420574  HIT:     139890  MISS:     280684
Heartbeat CPU 0 instructions: 100000000 cycles: 160564812 heartbeat IPC: 0.311544 cumulative IPC: 0.337691 (Simulation time: 1 hr 12 min 30 sec) 

Region of Interest Statistics
cpu0_DTLB TOTAL     ACCESS:   12363153  HIT:   11407926  MISS:     955227
cpu0_DTLB LOAD      ACCESS:    7519635  HIT:    6716204  MISS:     803431
cpu0_DTLB RFO       ACCESS:    4843518  HIT:    4691722  MISS:     151796
cpu0_DTLB PREFETCH  ACCESS:          0  HIT:          0  MISS:          0
cpu0_DTLB WRITEBACK ACCESS:          0  HIT:          0  MISS:          0
cpu0_ITLB TOTAL     ACCESS:    5613220  HIT:    5585626  MISS:      27594
cpu0_ITLB LOAD      ACCESS:    5613220  HIT:    5585626  MISS:      27594
cpu0_ITLB RFO       ACCESS:          0  HIT:          0  MISS:          0
cpu0_ITLB PREFETCH  ACCESS:          0  HIT:          0  MISS:          0
cpu0_ITLB WRITEBACK ACCESS:          0  HIT:          0  MISS:          0
cpu0_L1I TOTAL     ACCESS:    4465595  HIT:    4464356  MISS:       1239
cpu0_L1I LOAD      ACCESS:    4465595  HIT:    4464356  MISS:       1239
cpu0_L1I RFO       ACCESS:          0  HIT:          0  MISS:          0
cpu0_L1I PREFETCH  ACCESS:          0  HIT:          0  MISS:          0
cpu0_L1I WRITEBACK ACCESS:          0  HIT:          0  MISS:          0
cpu0_STLB TOTAL     ACCESS:     982821  HIT:     762453  MISS:     220368
cpu0_STLB LOAD      ACCESS:     831025  HIT:     668547  MISS:     162478
cpu0_STLB RFO       ACCESS:     151796  HIT:      93906  MISS:      57890
cpu0_STLB PREFETCH  ACCESS:          0  HIT:          0  MISS:          0
cpu0_STLB WRITEBACK ACCESS:          0  HIT:          0  MISS:          0
cpu0_L1D TOTAL     ACCESS:   15656423  HIT:   14481733  MISS:    1174690
cpu0_L1D LOAD      ACCESS:    7897110  HIT:    6885479  MISS:    1011631
cpu0_L1D RFO       ACCESS:    7554379  HIT:    7393573  MISS:     160806
cpu0_L1D PREFETCH  ACCESS:          0  HIT:          0  MISS:          0
cpu0_L1D WRITEBACK ACCESS:          0  HIT:          0  MISS:          0
cpu0_L2C TOTAL     ACCESS:    1665307  HIT:     619939  MISS:    1045368
cpu0_L2C LOAD      ACCESS:    1012859  HIT:     121391  MISS:     891468
cpu0_L2C RFO       ACCESS:     160806  HIT:       8535  MISS:     152271
cpu0_L2C PREFETCH  ACCESS:          0  HIT:          0  MISS:          0
cpu0_L2C WRITEBACK ACCESS:     489389  HIT:     488310  MISS:       1079
LLC TOTAL     ACCESS:    1479787  HIT:     292008  MISS:    1187779
LLC LOAD      ACCESS:     891468  HIT:     128127  MISS:     763341
LLC RFO       ACCESS:     152271  HIT:      16784  MISS:     135487
LLC PREFETCH  ACCESS:          0  HIT:          0  MISS:          0
LLC WRITEBACK ACCESS:     435498  HIT:     146923  MISS:     288575
Heartbeat CPU 0 instructions: 102000004 cycles: 165690126 heartbeat IPC: 0.390221 cumulative IPC: 0.339448 (Simulation time: 1 hr 14 min 11 sec) 

Region of Interest Statistics
cpu0_DTLB TOTAL     ACCESS:   12856455  HIT:   11875371  MISS:     981084
cpu0_DTLB LOAD      ACCESS:    7819358  HIT:    6993934  MISS:     825424
cpu0_DTLB RFO       ACCESS:    5037097  HIT:    4881437  MISS:     155660
cpu0_DTLB PREFETCH  ACCESS:          0  HIT:          0  MISS:          0
cpu0_DTLB WRITEBACK ACCESS:          0  HIT:          0  MISS:          0
cpu0_ITLB TOTAL     ACCESS:    5840739  HIT:    5812788  MISS:      27951
cpu0_ITLB LOAD      ACCESS:    5840739  HIT:    5812788  MISS:      27951
cpu0_ITLB RFO       ACCESS:          0  HIT:          0  MISS:          0
cpu0_ITLB PREFETCH  ACCESS:          0  HIT:          0  MISS:          0
cpu0_ITLB WRITEBACK ACCESS:          0  HIT:          0  MISS:          0
cpu0_L1I TOTAL     ACCESS:    4649775  HIT:    4648507  MISS:       1268
cpu0_L1I LOAD      ACCESS:    4649775  HIT:    4648507  MISS:       1268
cpu0_L1I RFO       ACCESS:          0  HIT:          0  MISS:          0
cpu0_L1I PREFETCH  ACCESS:          0  HIT:          0  MISS:          0
cpu0_L1I WRITEBACK ACCESS:          0  HIT:          0  MISS:          0
cpu0_STLB TOTAL     ACCESS:    1009035  HIT:     781634  MISS:     227401
cpu0_STLB LOAD      ACCESS:     853375  HIT:     685175  MISS:     168200
cpu0_STLB RFO       ACCESS:     155660  HIT:      96459  MISS:      59201
cpu0_STLB PREFETCH  ACCESS:          0  HIT:          0  MISS:          0
cpu0_STLB WRITEBACK ACCESS:          0  HIT:          0  MISS:          0
cpu0_L1D TOTAL     ACCESS:   16282841  HIT:   15069105  MISS:    1213736
cpu0_L1D LOAD      ACCESS:    8206185  HIT:    7161828  MISS:    1044357
cpu0_L1D RFO       ACCESS:    7865278  HIT:    7698231  MISS:     167047
cpu0_L1D PREFETCH  ACCESS:          0  HIT:          0  MISS:          0
cpu0_L1D WRITEBACK ACCESS:          0  HIT:          0  MISS:          0
cpu0_L2C TOTAL     ACCESS:    1721306  HIT:     641512  MISS:    1079794
cpu0_L2C LOAD      ACCESS:    1045614  HIT:     125635  MISS:     919979
cpu0_L2C RFO       ACCESS:     167047  HIT:       8918  MISS:     158129
cpu0_L2C PREFETCH  ACCESS:          0  HIT:          0  MISS:          0
cpu0_L2C WRITEBACK ACCESS:     506313  HIT:     505199  MISS:       1114
LLC TOTAL     ACCESS:    1529178  HIT:     302686  MISS:    1226492
LLC LOAD      ACCESS:     919979  HIT:     132466  MISS:     787513
LLC RFO       ACCESS:     158129  HIT:      17493  MISS:     140636
LLC PREFETCH  ACCESS:          0  HIT:          0  MISS:          0
LLC WRITEBACK ACCESS:     450498  HIT:     152546  MISS:     297952
Heartbeat CPU 0 instructions: 104000004 cycles: 171825955 heartbeat IPC: 0.325954 cumulative IPC: 0.338929 (Simulation time: 1 hr 16 min 21 sec) 

Region of Interest Statistics
cpu0_DTLB TOTAL     ACCESS:   13361228  HIT:   12338113  MISS:    1023115
cpu0_DTLB LOAD      ACCESS:    8138882  HIT:    7278388  MISS:     860494
cpu0_DTLB RFO       ACCESS:    5222346  HIT:    5059725  MISS:     162621
cpu0_DTLB PREFETCH  ACCESS:          0  HIT:          0  MISS:          0
cpu0_DTLB WRITEBACK ACCESS:          0  HIT:          0  MISS:          0
cpu0_ITLB TOTAL     ACCESS:    6078297  HIT:    6050205  MISS:      28092
cpu0_ITLB LOAD      ACCESS:    6078297  HIT:    6050205  MISS:      28092
cpu0_ITLB RFO       ACCESS:          0  HIT:          0  MISS:          0
cpu0_ITLB PREFETCH  ACCESS:          0  HIT:          0  MISS:          0
cpu0_ITLB WRITEBACK ACCESS:          0  HIT:          0  MISS:          0
cpu0_L1I TOTAL     ACCESS:    4772360  HIT:    4771075  MISS:       1285
cpu0_L1I LOAD      ACCESS:    4772360  HIT:    4771075  MISS:       1285
cpu0_L1I RFO       ACCESS:          0  HIT:          0  MISS:          0
cpu0_L1I PREFETCH  ACCESS:          0  HIT:          0  MISS:          0
cpu0_L1I WRITEBACK ACCESS:          0  HIT:          0  MISS:          0
cpu0_STLB TOTAL     ACCESS:    1051207  HIT:     812168  MISS:     239039
cpu0_STLB LOAD      ACCESS:     888586  HIT:     711258  MISS:     177328
cpu0_STLB RFO       ACCESS:     162621  HIT:     100910  MISS:      61711
cpu0_STLB PREFETCH  ACCESS:          0  HIT:          0  MISS:          0
cpu0_STLB WRITEBACK ACCESS:          0  HIT:          0  MISS:          0
cpu0_L1D TOTAL     ACCESS:   16933290  HIT:   15665500  MISS:    1267790
cpu0_L1D LOAD      ACCESS:    8561517  HIT:    7467660  MISS:    1093857
cpu0_L1D RFO       ACCESS:    8150119  HIT:    7978597  MISS:     171522
cpu0_L1D PREFETCH  ACCESS:          0  HIT:          0  MISS:          0
cpu0_L1D WRITEBACK ACCESS:          0  HIT:          0  MISS:          0
cpu0_L2C TOTAL     ACCESS:    1801903  HIT:     676885  MISS:    1125018
cpu0_L2C LOAD      ACCESS:    1095131  HIT:     134145  MISS:     960986
cpu0_L2C RFO       ACCESS:     171522  HIT:       9232  MISS:     162290
cpu0_L2C PREFETCH  ACCESS:          0  HIT:          0  MISS:          0
cpu0_L2C WRITEBACK ACCESS:     532839  HIT:     531690  MISS:       1149
LLC TOTAL     ACCESS:    1595763  HIT:     314535  MISS:    1281228
LLC LOAD      ACCESS:     960986  HIT:     137424  MISS:     823562
LLC RFO       ACCESS:     162290  HIT:      17973  MISS:     144317
LLC PREFETCH  ACCESS:          0  HIT:          0  MISS:          0
LLC WRITEBACK ACCESS:     471894  HIT:     158949  MISS:     312945
Heartbeat CPU 0 instructions: 106000003 cycles: 177434319 heartbeat IPC: 0.35661 cumulative IPC: 0.33953 (Simulation time: 1 hr 18 min 16 sec) 

Region of Interest Statistics
cpu0_DTLB TOTAL     ACCESS:   13845812  HIT:   12790424  MISS:    1055388
cpu0_DTLB LOAD      ACCESS:    8437001  HIT:    7549518  MISS:     887483
cpu0_DTLB RFO       ACCESS:    5408811  HIT:    5240906  MISS:     167905
cpu0_DTLB PREFETCH  ACCESS:          0  HIT:          0  MISS:          0
cpu0_DTLB WRITEBACK ACCESS:          0  HIT:          0  MISS:          0
cpu0_ITLB TOTAL     ACCESS:    6298693  HIT:    6270370  MISS:      28323
cpu0_ITLB LOAD      ACCESS:    6298693  HIT:    6270370  MISS:      28323
cpu0_ITLB RFO       ACCESS:          0  HIT:          0  MISS:          0
cpu0_ITLB PREFETCH  ACCESS:          0  HIT:          0  MISS:          0
cpu0_ITLB WRITEBACK ACCESS:          0  HIT:          0  MISS:          0
cpu0_L1I TOTAL     ACCESS:    4966143  HIT:    4964847  MISS:       1296
cpu0_L1I LOAD      ACCESS:    4966143  HIT:    4964847  MISS:       1296
cpu0_L1I RFO       ACCESS:          0  HIT:          0  MISS:          0
cpu0_L1I PREFETCH  ACCESS:          0  HIT:          0  MISS:          0
cpu0_L1I WRITEBACK ACCESS:          0  HIT:          0  MISS:          0
cpu0_STLB TOTAL     ACCESS:    1083711  HIT:     836379  MISS:     247332
cpu0_STLB LOAD      ACCESS:     915806  HIT:     732816  MISS:     182990
cpu0_STLB RFO       ACCESS:     167905  HIT:     103563  MISS:      64342
cpu0_STLB PREFETCH  ACCESS:          0  HIT:          0  MISS:          0
cpu0_STLB WRITEBACK ACCESS:          0  HIT:          0  MISS:          0
cpu0_L1D TOTAL     ACCESS:   17547047  HIT:   16237598  MISS:    1309449
cpu0_L1D LOAD      ACCESS:    8869155  HIT:    7739158  MISS:    1129997
cpu0_L1D RFO       ACCESS:    8448309  HIT:    8271342  MISS:     176967
cpu0_L1D PREFETCH  ACCESS:          0  HIT:          0  MISS:          0
cpu0_L1D WRITEBACK ACCESS:          0  HIT:          0  MISS:          0
cpu0_L2C TOTAL     ACCESS:    1861404  HIT:     698627  MISS:    1162777
cpu0_L2C LOAD      ACCESS:    1131282  HIT:     137923  MISS:     993359
cpu0_L2C RFO       ACCESS:     176967  HIT:       9361  MISS:     167606
cpu0_L2C PREFETCH  ACCESS:          0  HIT:          0  MISS:          0
cpu0_L2C WRITEBACK ACCESS:     550670  HIT:     549473  MISS:       1197
[...]
cpu0_L1I TOTAL     ACCESS:  129478939  HIT:  129426520  MISS:      52419
cpu0_L1I LOAD      ACCESS:  129478939  HIT:  129426520  MISS:      52419
cpu0_L1I RFO       ACCESS:          0  HIT:          0  MISS:          0
cpu0_L1I PREFETCH  ACCESS:          0  HIT:          0  MISS:          0
cpu0_L1I WRITEBACK ACCESS:          0  HIT:          0  MISS:          0
cpu0_L1I TRANSLATION ACCESS:          0  HIT:          0  MISS:          0
cpu0_L1I PREFETCH  REQUESTED:          0  ISSUED:          0  USEFUL:          0  USELESS:          0
cpu0_L1I AVERAGE MISS LATENCY: 136.97 cycles
cpu0_STLB TOTAL     ACCESS:   29747521  HIT:   22875560  MISS:    6871961
cpu0_STLB LOAD      ACCESS:   24968321  HIT:   19924133  MISS:    5044188
cpu0_STLB RFO       ACCESS:    4779200  HIT:    2951427  MISS:    1827773
cpu0_STLB PREFETCH  ACCESS:          0  HIT:          0  MISS:          0
cpu0_STLB WRITEBACK ACCESS:          0  HIT:          0  MISS:          0
cpu0_STLB TRANSLATION ACCESS:          0  HIT:          0  MISS:          0
cpu0_STLB PREFETCH  REQUESTED:          0  ISSUED:          0  USEFUL:          0  USELESS:          0
cpu0_STLB AVERAGE MISS LATENCY: 8.65299 cycles
cpu0_L1D TOTAL     ACCESS:  470067877  HIT:  433929034  MISS:   36138843
cpu0_L1D LOAD      ACCESS:  238134127  HIT:  206686326  MISS:   31447801
cpu0_L1D RFO       ACCESS:  225558964  HIT:  220937978  MISS:    4620986
cpu0_L1D PREFETCH  ACCESS:          0  HIT:          0  MISS:          0
cpu0_L1D WRITEBACK ACCESS:          0  HIT:          0  MISS:          0
cpu0_L1D TRANSLATION ACCESS:    6374786  HIT:    6304730  MISS:      70056
cpu0_L1D PREFETCH  REQUESTED:          0  ISSUED:          0  USEFUL:          0  USELESS:          0
cpu0_L1D AVERAGE MISS LATENCY: 154.689 cycles
cpu0_L2C TOTAL     ACCESS:   51681558  HIT:   20478794  MISS:   31202764
cpu0_L2C LOAD      ACCESS:   31499766  HIT:    4673277  MISS:   26826489
cpu0_L2C RFO       ACCESS:    4620974  HIT:     291633  MISS:    4329341
cpu0_L2C PREFETCH  ACCESS:          0  HIT:          0  MISS:          0
cpu0_L2C WRITEBACK ACCESS:   15490762  HIT:   15459718  MISS:      31044
cpu0_L2C TRANSLATION ACCESS:      70056  HIT:      54166  MISS:      15890
cpu0_L2C PREFETCH  REQUESTED:          0  ISSUED:          0  USEFUL:          0  USELESS:          0
cpu0_L2C AVERAGE MISS LATENCY: 166.505 cycles
LLC TOTAL     ACCESS:   44594692  HIT:   10543212  MISS:   34051480
LLC LOAD      ACCESS:   26826467  HIT:    4579076  MISS:   22247391
LLC RFO       ACCESS:    4329338  HIT:     619819  MISS:    3709519
LLC PREFETCH  ACCESS:          0  HIT:          0  MISS:          0
LLC WRITEBACK ACCESS:   13422997  HIT:    5338111  MISS:    8084886
LLC TRANSLATION ACCESS:      15890  HIT:       6206  MISS:       9684
LLC PREFETCH  REQUESTED:          0  ISSUED:          0  USEFUL:          0  USELESS:          0
LLC AVERAGE MISS LATENCY: 133.351 cycles
~~~~~~~~~~Reuse Distance Profiler output~~~~~~~~~~
0	95839296	9826144
1	34650496	14755424
2	23382608	9774672
3	19152656	8644496
4	17676336	6962048
5	13572704	6752816
6	12387920	5868160
7	12267632	5420320
8	9759040	4690832
9	9525824	5312976
10	7542432	4141136
11	7121504	4002080
12	5964096	3167664
13	5446928	2653792
14	4814864	2199312
15	4154784	1981072
16	4589760	2120528
17	4194720	2236496
18	3361488	1719216
19	3168608	1749920
20	3191648	1535696
21	2507200	1340560
22	2080096	1085984
23	2493824	1372848
24	2007152	986880
25	1757504	915696
26	1262800	550288
27	1159488	518096
28	1162256	577296
29	1094416	568608
30	1070416	619808
31	1174240	692784
32	1177136	676000
33	969744	566448
34	947808	531184
35	850688	466976
36	765344	387216
37	803904	417328
38	770208	436176
39	805680	449088
40	1062352	711824
41	615792	331920
42	557424	284960
43	541184	261200
44	502576	233200
45	446304	208880
46	421408	203696
47	428784	228704
48	494240	276352
49	449568	238160
50	454928	226256
51	458704	213008
52	406816	202720
53	376848	173856
54	376752	167600
55	394688	174624
56	429184	182352
57	447552	216704
58	424880	193360
59	390640	170896
60	396224	164752
61	413232	195280
62	378208	198720
63	356096	200960
64	759616	486400
66	620368	386864
68	639984	352960
70	553152	320544
72	487280	309616
74	500336	333360
76	482528	325424
78	469136	331952
80	417392	272944
82	421088	245568
84	462032	271424
86	420576	244192
88	392080	236240
90	424144	275120
92	494592	304048
94	463216	253712
96	441664	245312
98	402768	223216
100	366704	204336
102	352896	231664
104	411104	293040
106	474416	330736
108	533632	391360
110	475936	333056
112	474320	331968
114	509408	388896
116	476768	367824
118	471792	359328
120	506192	389424
122	547312	431488
124	440816	344032
126	421888	291312
128	838208	591616
132	994528	721328
136	903248	722384
140	782464	623376
144	750544	650752
148	672464	586784
152	737632	609136
156	769808	655920
160	690240	600992
164	608272	530960
168	530944	462144
172	504704	449600
176	524176	471264
180	486768	443648
184	475904	438256
188	447856	403600
192	431792	365184
196	446992	391200
200	475504	403520
204	443168	369104
208	407936	332448
212	382400	306336
216	361232	290400
220	337216	272160
224	326304	263184
228	348880	283632
232	367392	301952
236	339008	264672
240	312816	225776
244	307168	209536
248	317376	206320
252	324768	205936
256	674400	422592
264	748592	422688
272	830128	426016
280	763248	461408
288	723616	515696
296	669376	529840
304	692704	564352
312	900560	760976
320	1289136	1124336
328	1585728	1437536
336	1520288	1370592
344	1554384	1356304
352	1976048	1759312
360	1897744	1723600
368	1155376	1043232
376	717680	652256
384	615136	564496
392	658256	596752
400	785728	701840
408	1032176	927168
416	1392192	1279008
424	1886560	1756800
432	2488496	2342448
440	2954336	2785568
448	3225040	3029424
456	3514704	3284368
464	3522752	3284800
472	2987680	2797920
480	2187504	2060448
488	1481040	1401920
496	939024	888432
504	565488	524768
512	642320	552816
528	380080	307728
544	280704	222240
560	273984	193280
576	262976	191488
592	289584	229632
608	339392	289696
624	361424	310640
640	361120	309152
656	362320	304160
672	381712	313328
688	432720	356736
704	499920	429264
720	651504	597968
736	949632	896480
752	1348768	1280400
768	1673248	1585968
784	1696896	1601264
800	1352560	1273216
816	792864	746656
832	366320	346800
848	196880	187392
864	173536	167408
880	207408	201584
896	290608	284656
912	353936	347600
928	383872	376240
944	359184	350016
960	290256	279984
976	187280	178208
992	104400	98304
1008	66000	60176
1024	139216	127424
1056	141504	127984
1088	88032	77808
1120	84080	73808
1152	85744	76944
1184	95056	86256
1216	80336	72048
1248	74912	67680
1280	94752	88304
1312	137680	131024
1344	213040	206000
1376	259312	251968
1408	223376	215856
1440	155632	148432
1472	125712	117056
1504	149184	137968
1536	172112	159760
1568	168240	160544
1600	118976	113200
1632	66128	61632
1664	41120	37296
1696	42080	38784
1728	58784	55696
1760	85984	83040
1792	109520	107056
1824	121456	119152
1856	127536	124672
1888	123232	119152
1920	99216	93248
1952	61936	55472
1984	36976	30160
2016	27792	23408
2048	70080	64816
2112	124560	120608
2176	156256	151552
2240	265280	257248
2304	245888	240528
2368	164240	158192
2432	85664	76544
2496	54016	47568
2560	53936	47200
2624	64320	60704
2688	77392	74896
2752	99024	95968
2816	102800	99232
2880	79424	75472
2944	56256	53088
3008	51216	49248
3072	60112	58000
3136	74784	72576
3200	83840	80624
3264	69456	64688
3328	57888	55536
3392	38640	36848
3456	30512	28848
3520	34304	32912
3584	40880	38944
3648	47952	46400
3712	53216	51904
3776	54624	53632
3840	55264	54160
3904	44896	43920
3968	40976	39664
4032	37440	36224
4096	77936	75440
4224	73520	71936
4352	53584	52400
4480	57536	56096
4608	93056	91584
4736	79744	76672
4864	80624	71344
4992	121056	104432
5120	83024	72096
5248	56048	50896
5376	50400	48384
5504	51168	49520
5632	53520	51120
5760	52976	50000
5888	55824	52768
6016	72224	69440
6144	82176	79376
6272	73808	70208
6400	82960	79392
6528	100688	95408
6656	115328	109616
6784	96016	91776
6912	84304	81264
7040	79280	76848
7168	70768	68464
7296	51312	49568
7424	34672	33328
7552	35456	34400
7680	38176	37216
7808	37728	36768
7936	35632	34288
8064	37568	36544
8192	69680	68384
8448	70704	68960
8704	65584	63760
8960	53008	51328
9216	46736	45216
9472	46624	44688
9728	43600	42080
9984	45136	43600
10240	39872	38368
10496	40048	38832
10752	36480	35296
11008	35104	33648
11264	36304	34768
11520	40400	38800
11776	38016	36400
12032	36432	34880
12288	38400	36896
12544	34848	33648
12800	37088	35872
13056	42528	41408
13312	42944	41248
13568	39072	37600
13824	39584	37904
14080	36736	35360
14336	35648	34144
14592	34352	33344
14848	30080	28800
15104	28432	27376
15360	30880	29664
15616	30000	28720
15872	29152	28288
16128	29952	28672
16384	57520	55424
16896	52464	50480
17408	49808	47728
17920	43600	41536
18432	45088	43200
18944	45968	43856
19456	47632	45760
19968	47728	45296
20480	45568	43408
20992	43952	41872
21504	40832	38848
22016	36592	35024
22528	34784	33072
23040	33792	32480
23552	31568	29840
24064	32416	30864
24576	35040	33312
25088	35312	33552
25600	36336	34416
26112	36400	34352
26624	37184	35328
27136	35360	33296
27648	34224	32320
28160	32400	30656
28672	29936	28368
29184	30752	28720
29696	29392	27568
30208	27072	25040
30720	27920	25952
31232	27152	25392
31744	28416	26656
32256	29792	27504
32768	61872	57024
33792	50192	46192
34816	46816	43024
35840	43552	40256
36864	44352	40784
37888	41536	38304
38912	44704	40848
39936	43840	40256
40960	43040	39568
41984	36496	33600
43008	34656	32032
44032	34928	32448
45056	32624	29888
46080	30896	28528
47104	30544	28256
48128	31056	28944
49152	32352	30304
50176	31232	29440
51200	28544	26336
52224	31104	28560
53248	29664	27696
54272	28464	26464
55296	29392	27488
56320	27984	26256
57344	29744	27712
58368	28624	26896
59392	31344	29392
60416	30160	28336
61440	32720	30992
62464	33648	31296
63488	35184	32496
64512	36640	34352
65536	79104	73408
67584	77136	71136
69632	72112	66208
71680	65344	60224
73728	63984	58656
75776	67392	61568
77824	63104	57504
79872	59472	53920
81920	54096	48720
83968	51920	47808
86016	50128	45888
88064	49760	45984
90112	52864	47504
92160	51632	46896
94208	52048	47472
96256	47472	43552
98304	45632	41584
100352	43920	40032
102400	43216	39776
104448	38768	34848
106496	36864	34256
108544	33184	30112
110592	35776	32400
112640	31664	29264
114688	28480	25664
116736	29664	26800
118784	27920	25344
120832	27536	24960
122880	27712	25008
124928	28752	25936
126976	26496	24368
129024	29360	26832
131072	50848	46160
135168	67248	59632
139264	74672	66736
143360	76912	70208
147456	65328	59152
151552	76608	68592
155648	73776	66288
159744	72688	65792
163840	68512	62256
167936	73088	65632
172032	75280	67152
176128	77968	67232
180224	73968	65696
184320	79952	69936
188416	100528	82736
192512	112176	91648
196608	106688	92864
200704	102528	92064
204800	105424	95200
208896	118544	109648
212992	136464	125344
217088	149360	136352
221184	151184	138032
225280	142112	130448
229376	136496	126144
233472	124112	113696
237568	126784	117360
241664	121712	112176
245760	112944	103936
249856	97648	90144
253952	92176	84048
258048	86128	78320
262144	156496	141104
270336	154928	138144
278528	157552	141568
286720	157056	141328
294912	157136	140160
303104	156560	139712
311296	151456	135424
319488	140528	125552
327680	128928	115648
335872	112240	99584
344064	101856	90688
352256	85216	74384
360448	68064	59936
368640	58432	51984
376832	53808	48864
385024	50736	44912
393216	51728	46512
401408	67872	61168
409600	104656	95456
417792	109648	100224
425984	113744	105152
434176	106656	97552
442368	121520	110912
450560	122704	110544
458752	101360	91888
466944	138352	124752
475136	108848	98224
483328	97264	87776
491520	105200	94416
499712	107984	94784
507904	105872	93264
516096	102064	88208
524288	201808	175440
540672	217728	179984
557056	205488	171904
573440	186896	161248
589824	172992	152144
606208	190160	160848
622592	262128	201632
638976	209120	164688
655360	160512	132688
671744	137728	111344
688128	127312	99888
704512	111840	88496
720896	96704	79728
737280	87344	71248
753664	76624	65200
770048	77120	65872
786432	72320	60912
802816	81008	66224
819200	75984	62160
835584	70992	58368
851968	69488	57024
868352	78752	64176
884736	107040	88960
901120	75824	61856
917504	61264	49216
933888	61280	48752
950272	60064	46736
966656	66480	50384
983040	63232	49408
999424	60400	47152
1015808	65424	53232
1032192	66320	52464
1048576	120080	97040
1081344	113968	93936
1114112	121328	97408
1146880	119792	92256
1179648	184896	124512
1212416	115088	84736
1245184	81440	58048
1277952	69568	50208
1310720	59360	43360
1343488	61024	42960
1376256	72960	55264
1409024	63680	48192
1441792	59488	43312
1474560	55840	41504
1507328	60256	46368
1540096	56352	41248
1572864	63536	47024
1605632	57440	44064
1638400	56480	40560
1671168	47872	35632
1703936	45808	33776
1736704	47968	35376
1769472	46016	32480
1802240	51056	34944
1835008	44912	31488
1867776	54272	38080
1900544	48608	36368
1933312	70896	55456
1966080	73984	60496
1998848	48800	35088
2031616	42688	31248
2064384	56112	43136
2097152	102032	76368
2162688	88592	66512
2228224	83328	66496
2293760	76304	57328
2359296	119328	94176
2424832	101136	81728
2490368	99168	79456
2555904	119504	100896
2621440	104032	82304
2686976	125024	104368
2752512	73840	60912
2818048	69408	56656
2883584	92800	76160
2949120	72304	57296
3014656	54256	44400
3080192	60576	52528
3145728	93856	80880
3211264	64272	55456
3276800	64848	53392
3342336	87456	72720
3407872	77856	64720
3473408	73840	63504
3538944	87088	72992
3604480	85504	72256
3670016	82480	66336
3735552	95264	78272
3801088	76704	63664
3866624	84864	70288
3932160	82640	70240
3997696	94944	84480
4063232	101968	92000
4128768	128192	110512
4194304	193296	168288
4325376	153200	131040
4456448	229136	194944
4587520	242000	211328
4718592	299776	261792
4849664	239568	204960
4980736	406960	353408
5111808	378704	340256
5242880	333072	286560
5373952	295408	259952
5505024	431584	385056
5636096	405856	362656
5767168	330480	290288
5898240	360608	303632
6029312	339344	291856
6160384	331712	285312
6291456	353376	300208
6422528	305664	271760
6553600	365824	318624
6684672	319984	271168
6815744	390464	328592
6946816	307296	270096
7077888	247520	208000
7208960	335728	295328
7340032	292496	246096
7471104	298592	260400
7602176	197456	161600
7733248	245056	212304
7864320	191328	157392
7995392	189568	152288
8126464	165808	148304
8257536	72928	55968
8388608	156416	119712
8650752	178512	154000
8912896	111728	93168
9175040	162928	134704
9437184	168128	139680
9699328	134304	110864
9961472	192832	172448
10223616	122976	105952
10485760	183664	168624
10747904	107712	96400
11010048	80144	61792
11272192	105280	99456
11534336	84064	80272
11796480	88544	81536
12058624	111296	101808
12320768	134544	124864
12582912	179040	162656
12845056	221248	204048
13107200	270592	257472
13369344	137952	126224
13631488	224544	213312
13893632	209152	197904
14155776	173328	160960
14417920	154864	143632
14680064	168544	160976
14942208	129312	122496
15204352	84448	78720
15466496	88912	82064
15728640	63936	63296
15990784	31264	28336
16252928	38560	33936
16515072	35904	32032
16777216	115408	107120
17301504	44080	37360
17825792	69296	51472
18350080	72880	64896
18874368	74928	66864
19398656	48048	39584
19922944	32832	27488
20447232	116592	103616
20971520	73376	65456
21495808	84000	78784
22020096	37760	29024
22544384	63824	50256
23068672	102672	98544
23592960	58896	56512
24117248	58320	53968
24641536	42816	40272
25165824	23344	21456
25690112	38880	32112
26214400	19504	16640
26738688	34064	29008
27262976	46944	42160
27787264	57520	51472
28311552	26352	22768
28835840	7808	7088
29360128	25600	22272
29884416	15312	14368
30408704	28944	26304
30932992	11184	10592
31457280	8096	7024
31981568	17968	16432
32505856	5456	4672
33030144	10960	9088
33554432	29760	24080
34603008	38976	33248
35651584	30240	23504
36700160	43024	35520
37748736	38688	35744
38797312	35760	32416
39845888	20496	18672
40894464	33008	30960
41943040	33376	29824
42991616	18720	17536
44040192	16096	12048
45088768	17024	12320
46137344	12464	8352
47185920	10080	8128
48234496	9104	8144
49283072	19328	15168
50331648	16272	14528
51380224	21568	18272
52428800	21728	16800
53477376	24880	21264
54525952	45008	42016
55574528	15344	11152
56623104	27808	25552
57671680	16096	15280
58720256	12512	11248
59768832	16752	15600
60817408	9728	8880
61865984	6976	6048
62914560	13104	11984
63963136	11216	9280
65011712	10704	9808
66060288	5280	4768
67108864	16448	14464
69206016	15344	12528
71303168	3808	2816
73400320	3888	3216
75497472	5152	4272
77594624	3136	2016
79691776	6320	3872
81788928	7568	6352
83886080	1136	816
85983232	2048	1088
88080384	816	224
90177536	864	576
92274688	672	368
94371840	560	240
96468992	800	480
98566144	336	160
100663296	528	304
102760448	368	192
104857600	1312	704
106954752	3168	288
109051904	864	128
111149056	448	224
113246208	640	128
115343360	640	256
117440512	336	288
119537664	48	48
121634816	272	256
123731968	128	112
125829120	336	256
127926272	176	160
130023424	336	336
132120576	112	112
134217728	320	256
138412032	208	176
142606336	336	256
146800640	256	160
150994944	176	176
155189248	160	96
159383552	128	64
163577856	464	432
167772160	192	80
171966464	96	64
176160768	304	80
180355072	208	144
184549376	64	48
188743680	48	48
192937984	208	176
197132288	496	480
201326592	640	304
205520896	736	160
209715200	624	192
213909504	352	288
218103808	272	256
222298112	592	544
226492416	512	512
230686720	224	144
234881024	80	80
239075328	128	96
243269632	400	80
247463936	208	112
251658240	96	48
255852544	48	16
260046848	32	0
264241152	48	16
268435456	48	32
276824064	112	96
285212672	320	256
293601280	96	32
301989888	160	80
310378496	1504	1232
318767104	1408	1408
327155712	304	240
335544320	0	0
343932928	16	16
352321536	160	160
360710144	16	16
369098752	32	32
377487360	16	16
385875968	0	0
394264576	16	16
402653184	0	0
411041792	0	0
419430400	0	0
427819008	0	0
436207616	0	0
444596224	0	0
452984832	0	0
461373440	0	0
469762048	0	0
478150656	0	0
486539264	0	0
494927872	0	0
503316480	0	0
511705088	0	0
520093696	0	0
528482304	0	0
536870912	0	0
553648128	0	0
570425344	0	0
587202560	0	0
603979776	0	0
620756992	0	0
637534208	0	0
654311424	0	0
671088640	0	0
687865856	0	0
704643072	0	0
721420288	0	0
738197504	0	0
754974720	0	0
771751936	0	0
788529152	0	0
805306368	0	0
822083584	0	0
838860800	0	0
855638016	0	0
872415232	0	0
889192448	0	0
905969664	0	0
922746880	0	0
939524096	0	0
956301312	0	0
973078528	0	0
989855744	0	0
1006632960	0	0
1023410176	0	0
1040187392	0	0
1056964608	0	0
1073741824	0	0
1107296256	0	0
1140850688	0	0
1174405120	0	0
1207959552	0	0
1241513984	0	0
1275068416	0	0
1308622848	0	0
1342177280	0	0
1375731712	0	0
1409286144	0	0
1442840576	0	0
1476395008	0	0
1509949440	0	0
1543503872	0	0
1577058304	0	0
1610612736	0	0
1644167168	0	0
1677721600	0	0
1711276032	0	0
1744830464	0	0
1778384896	0	0
1811939328	0	0
1845493760	0	0
1879048192	0	0
1912602624	0	0
1946157056	0	0
1979711488	0	0
2013265920	0	0
2046820352	0	0
2080374784	0	0
2113929216	0	0
2147483648	0	0
2214592512	0	0
2281701376	0	0
2348810240	0	0
2415919104	0	0
2483027968	0	0
2550136832	0	0
2617245696	0	0
2684354560	0	0
2751463424	0	0
2818572288	0	0
2885681152	0	0
2952790016	0	0
3019898880	0	0
3087007744	0	0
3154116608	0	0
3221225472	0	0
3288334336	0	0
3355443200	0	0
3422552064	0	0
3489660928	0	0
3556769792	0	0
3623878656	0	0
3690987520	0	0
3758096384	0	0
3825205248	0	0
3892314112	0	0
3959422976	0	0
4026531840	0	0
4093640704	0	0
4160749568	0	0
4227858432	0	0
~~~~~~~~~~Reuse Distance Profiler output end~~~~~~~~~~

Sampler size:31025

DRAM Statistics
 CHANNEL 0
 RQ ROW_BUFFER_HIT:    1547428  ROW_BUFFER_MISS:   24417132
 DBUS AVG_CONGESTED_CYCLE:    3.91642
 WQ ROW_BUFFER_HIT:    2629475  ROW_BUFFER_MISS:    8757207  FULL:          0


CPU 0 Branch Prediction Accuracy: 93.1539% MPKI: 16.5259 Average ROB Occupancy at Mispredict: 38.7015
Branch type MPKI
BRANCH_DIRECT_JUMP: 4.2e-05
BRANCH_INDIRECT: 0.113314
BRANCH_CONDITIONAL: 15.8046
BRANCH_DIRECT_CALL: 2.66667e-05
BRANCH_INDIRECT_CALL: 0.117617
BRANCH_RETURN: 0.490351

