
*** ChampSim Multicore Out-of-Order Simulator ***

Warmup Instructions: 50000000
Simulation Instructions: 1500000000
Number of CPUs: 1
Off-chip DRAM Size: 4 GiB Channels: 1 Width: 64-bit Data Rate: 3200 MT/s

VirtualMemory physical capacity: 8588881920 num_ppages: 2096895
VirtualMemory page size: 4096 log2_page_size: 12

CPU 0 runs /s/traces/champsim_traces/481.wrf-816B.champsimtrace.xz
CPU 0 Bimodal branch predictor
Basic BTB sets: 1024 ways: 8 indirect buffer size: 4096 RAS size: 64
Initializing LRU.
Initializing LRU.
Initializing LRU.
Initializing LRU.
Initializing rdLRU.
Initializing LRU.
Heartbeat CPU 0 instructions: 2000001 cycles: 832414 heartbeat IPC: 2.40265 cumulative IPC: 2.40265 (Simulation time: 0 hr 1 min 27 sec) 
Heartbeat CPU 0 instructions: 4000001 cycles: 1664722 heartbeat IPC: 2.40296 cumulative IPC: 2.4028 (Simulation time: 0 hr 2 min 58 sec) 
Heartbeat CPU 0 instructions: 6000003 cycles: 2496990 heartbeat IPC: 2.40307 cumulative IPC: 2.40289 (Simulation time: 0 hr 4 min 34 sec) 
Heartbeat CPU 0 instructions: 8000001 cycles: 3154941 heartbeat IPC: 3.03974 cumulative IPC: 2.53571 (Simulation time: 0 hr 5 min 49 sec) 
Heartbeat CPU 0 instructions: 10000003 cycles: 3738118 heartbeat IPC: 3.42949 cumulative IPC: 2.67514 (Simulation time: 0 hr 6 min 57 sec) 
Heartbeat CPU 0 instructions: 12000004 cycles: 4321299 heartbeat IPC: 3.42947 cumulative IPC: 2.77694 (Simulation time: 0 hr 7 min 57 sec) 
Heartbeat CPU 0 instructions: 14000000 cycles: 4904482 heartbeat IPC: 3.42945 cumulative IPC: 2.85453 (Simulation time: 0 hr 9 min 2 sec) 
Heartbeat CPU 0 instructions: 16000001 cycles: 5487662 heartbeat IPC: 3.42947 cumulative IPC: 2.91563 (Simulation time: 0 hr 10 min 6 sec) 
Heartbeat CPU 0 instructions: 18000000 cycles: 6070846 heartbeat IPC: 3.42945 cumulative IPC: 2.96499 (Simulation time: 0 hr 11 min 0 sec) 
Heartbeat CPU 0 instructions: 20000003 cycles: 6654026 heartbeat IPC: 3.42948 cumulative IPC: 3.0057 (Simulation time: 0 hr 11 min 53 sec) 
Heartbeat CPU 0 instructions: 22000002 cycles: 7237206 heartbeat IPC: 3.42947 cumulative IPC: 3.03985 (Simulation time: 0 hr 12 min 45 sec) 
Heartbeat CPU 0 instructions: 24000003 cycles: 7742141 heartbeat IPC: 3.96091 cumulative IPC: 3.09992 (Simulation time: 0 hr 13 min 27 sec) 
Heartbeat CPU 0 instructions: 26000003 cycles: 8242141 heartbeat IPC: 4 cumulative IPC: 3.15452 (Simulation time: 0 hr 14 min 6 sec) 
Heartbeat CPU 0 instructions: 28000003 cycles: 8742141 heartbeat IPC: 4 cumulative IPC: 3.20288 (Simulation time: 0 hr 14 min 43 sec) 
Heartbeat CPU 0 instructions: 30000003 cycles: 9242141 heartbeat IPC: 4 cumulative IPC: 3.246 (Simulation time: 0 hr 15 min 22 sec) 
Heartbeat CPU 0 instructions: 32000003 cycles: 9742141 heartbeat IPC: 4 cumulative IPC: 3.2847 (Simulation time: 0 hr 16 min 2 sec) 
Heartbeat CPU 0 instructions: 34000003 cycles: 10242141 heartbeat IPC: 4 cumulative IPC: 3.31962 (Simulation time: 0 hr 16 min 43 sec) 
Heartbeat CPU 0 instructions: 36000003 cycles: 10742141 heartbeat IPC: 4 cumulative IPC: 3.35129 (Simulation time: 0 hr 17 min 21 sec) 
Heartbeat CPU 0 instructions: 38000003 cycles: 11242141 heartbeat IPC: 4 cumulative IPC: 3.38014 (Simulation time: 0 hr 18 min 5 sec) 
Heartbeat CPU 0 instructions: 40000003 cycles: 11742141 heartbeat IPC: 4 cumulative IPC: 3.40653 (Simulation time: 0 hr 18 min 50 sec) 
Heartbeat CPU 0 instructions: 42000003 cycles: 12242141 heartbeat IPC: 4 cumulative IPC: 3.43077 (Simulation time: 0 hr 19 min 34 sec) 
Heartbeat CPU 0 instructions: 44000003 cycles: 12742141 heartbeat IPC: 4 cumulative IPC: 3.45311 (Simulation time: 0 hr 20 min 17 sec) 
Heartbeat CPU 0 instructions: 46000003 cycles: 13242141 heartbeat IPC: 4 cumulative IPC: 3.47376 (Simulation time: 0 hr 20 min 59 sec) 
Heartbeat CPU 0 instructions: 48000002 cycles: 13745256 heartbeat IPC: 3.97523 cumulative IPC: 3.49211 (Simulation time: 0 hr 21 min 43 sec) 
Heartbeat CPU 0 instructions: 50000003 cycles: 14321273 heartbeat IPC: 3.47212 cumulative IPC: 3.49131 (Simulation time: 0 hr 22 min 41 sec) 

Warmup complete CPU 0 instructions: 50000003 cycles: 14321273 (Simulation time: 0 hr 22 min 41 sec) 

Heartbeat CPU 0 instructions: 52000001 cycles: 16011030 heartbeat IPC: 1.1836 cumulative IPC: 1.1836 (Simulation time: 0 hr 24 min 46 sec) 

Region of Interest Statistics
cpu0_DTLB TOTAL     ACCESS:     410897  HIT:     410695  MISS:        202
cpu0_DTLB LOAD      ACCESS:     383220  HIT:     383018  MISS:        202
cpu0_DTLB RFO       ACCESS:      27677  HIT:      27677  MISS:          0
cpu0_DTLB PREFETCH  ACCESS:          0  HIT:          0  MISS:          0
cpu0_DTLB WRITEBACK ACCESS:          0  HIT:          0  MISS:          0
cpu0_ITLB TOTAL     ACCESS:      14535  HIT:      14535  MISS:          0
cpu0_ITLB LOAD      ACCESS:      14535  HIT:      14535  MISS:          0
cpu0_ITLB RFO       ACCESS:          0  HIT:          0  MISS:          0
cpu0_ITLB PREFETCH  ACCESS:          0  HIT:          0  MISS:          0
cpu0_ITLB WRITEBACK ACCESS:          0  HIT:          0  MISS:          0
cpu0_L1I TOTAL     ACCESS:        285  HIT:        285  MISS:          0
cpu0_L1I LOAD      ACCESS:        285  HIT:        285  MISS:          0
cpu0_L1I RFO       ACCESS:          0  HIT:          0  MISS:          0
cpu0_L1I PREFETCH  ACCESS:          0  HIT:          0  MISS:          0
cpu0_L1I WRITEBACK ACCESS:          0  HIT:          0  MISS:          0
cpu0_STLB TOTAL     ACCESS:        202  HIT:          0  MISS:        202
cpu0_STLB LOAD      ACCESS:        202  HIT:          0  MISS:        202
cpu0_STLB RFO       ACCESS:          0  HIT:          0  MISS:          0
cpu0_STLB PREFETCH  ACCESS:          0  HIT:          0  MISS:          0
cpu0_STLB WRITEBACK ACCESS:          0  HIT:          0  MISS:          0
cpu0_L1D TOTAL     ACCESS:     386180  HIT:     373587  MISS:      12593
cpu0_L1D LOAD      ACCESS:     289868  HIT:     277278  MISS:      12590
cpu0_L1D RFO       ACCESS:      96109  HIT:      96109  MISS:          0
cpu0_L1D PREFETCH  ACCESS:          0  HIT:          0  MISS:          0
cpu0_L1D WRITEBACK ACCESS:          0  HIT:          0  MISS:          0
cpu0_L2C TOTAL     ACCESS:      18771  HIT:       6181  MISS:      12590
cpu0_L2C LOAD      ACCESS:      12590  HIT:          0  MISS:      12590
cpu0_L2C RFO       ACCESS:          0  HIT:          0  MISS:          0
cpu0_L2C PREFETCH  ACCESS:          0  HIT:          0  MISS:          0
cpu0_L2C WRITEBACK ACCESS:       6178  HIT:       6178  MISS:          0
LLC TOTAL     ACCESS:      19060  HIT:       6470  MISS:      12590
LLC LOAD      ACCESS:      12590  HIT:          0  MISS:      12590
LLC RFO       ACCESS:          0  HIT:          0  MISS:          0
LLC PREFETCH  ACCESS:          0  HIT:          0  MISS:          0
LLC WRITEBACK ACCESS:       6470  HIT:       6470  MISS:          0
Heartbeat CPU 0 instructions: 54000002 cycles: 17695031 heartbeat IPC: 1.18765 cumulative IPC: 1.18562 (Simulation time: 0 hr 26 min 50 sec) 

Region of Interest Statistics
cpu0_DTLB TOTAL     ACCESS:     821902  HIT:     821495  MISS:        407
cpu0_DTLB LOAD      ACCESS:     766539  HIT:     766132  MISS:        407
cpu0_DTLB RFO       ACCESS:      55363  HIT:      55363  MISS:          0
cpu0_DTLB PREFETCH  ACCESS:          0  HIT:          0  MISS:          0
cpu0_DTLB WRITEBACK ACCESS:          0  HIT:          0  MISS:          0
cpu0_ITLB TOTAL     ACCESS:      29362  HIT:      29362  MISS:          0
cpu0_ITLB LOAD      ACCESS:      29362  HIT:      29362  MISS:          0
cpu0_ITLB RFO       ACCESS:          0  HIT:          0  MISS:          0
cpu0_ITLB PREFETCH  ACCESS:          0  HIT:          0  MISS:          0
cpu0_ITLB WRITEBACK ACCESS:          0  HIT:          0  MISS:          0
cpu0_L1I TOTAL     ACCESS:        565  HIT:        565  MISS:          0
cpu0_L1I LOAD      ACCESS:        565  HIT:        565  MISS:          0
cpu0_L1I RFO       ACCESS:          0  HIT:          0  MISS:          0
cpu0_L1I PREFETCH  ACCESS:          0  HIT:          0  MISS:          0
cpu0_L1I WRITEBACK ACCESS:          0  HIT:          0  MISS:          0
cpu0_STLB TOTAL     ACCESS:        407  HIT:          1  MISS:        406
cpu0_STLB LOAD      ACCESS:        407  HIT:          1  MISS:        406
cpu0_STLB RFO       ACCESS:          0  HIT:          0  MISS:          0
cpu0_STLB PREFETCH  ACCESS:          0  HIT:          0  MISS:          0
cpu0_STLB WRITEBACK ACCESS:          0  HIT:          0  MISS:          0
cpu0_L1D TOTAL     ACCESS:     772411  HIT:     747224  MISS:      25187
cpu0_L1D LOAD      ACCESS:     579798  HIT:     554618  MISS:      25180
cpu0_L1D RFO       ACCESS:     192207  HIT:     192207  MISS:          0
cpu0_L1D PREFETCH  ACCESS:          0  HIT:          0  MISS:          0
cpu0_L1D WRITEBACK ACCESS:          0  HIT:          0  MISS:          0
cpu0_L2C TOTAL     ACCESS:      37551  HIT:      12371  MISS:      25180
cpu0_L2C LOAD      ACCESS:      25180  HIT:          0  MISS:      25180
cpu0_L2C RFO       ACCESS:          0  HIT:          0  MISS:          0
cpu0_L2C PREFETCH  ACCESS:          0  HIT:          0  MISS:          0
cpu0_L2C WRITEBACK ACCESS:      12364  HIT:      12364  MISS:          0
LLC TOTAL     ACCESS:      37720  HIT:      12540  MISS:      25180
LLC LOAD      ACCESS:      25180  HIT:          0  MISS:      25180
LLC RFO       ACCESS:          0  HIT:          0  MISS:          0
LLC PREFETCH  ACCESS:          0  HIT:          0  MISS:          0
LLC WRITEBACK ACCESS:      12540  HIT:      12540  MISS:          0
Heartbeat CPU 0 instructions: 56000002 cycles: 19378651 heartbeat IPC: 1.18792 cumulative IPC: 1.18639 (Simulation time: 0 hr 28 min 53 sec) 

Region of Interest Statistics
cpu0_DTLB TOTAL     ACCESS:    1233331  HIT:    1232722  MISS:        609
cpu0_DTLB LOAD      ACCESS:    1150192  HIT:    1149583  MISS:        609
cpu0_DTLB RFO       ACCESS:      83139  HIT:      83139  MISS:          0
cpu0_DTLB PREFETCH  ACCESS:          0  HIT:          0  MISS:          0
cpu0_DTLB WRITEBACK ACCESS:          0  HIT:          0  MISS:          0
cpu0_ITLB TOTAL     ACCESS:      44211  HIT:      44211  MISS:          0
cpu0_ITLB LOAD      ACCESS:      44211  HIT:      44211  MISS:          0
cpu0_ITLB RFO       ACCESS:          0  HIT:          0  MISS:          0
cpu0_ITLB PREFETCH  ACCESS:          0  HIT:          0  MISS:          0
cpu0_ITLB WRITEBACK ACCESS:          0  HIT:          0  MISS:          0
cpu0_L1I TOTAL     ACCESS:        840  HIT:        840  MISS:          0
cpu0_L1I LOAD      ACCESS:        840  HIT:        840  MISS:          0
cpu0_L1I RFO       ACCESS:          0  HIT:          0  MISS:          0
cpu0_L1I PREFETCH  ACCESS:          0  HIT:          0  MISS:          0
cpu0_L1I WRITEBACK ACCESS:          0  HIT:          0  MISS:          0
cpu0_STLB TOTAL     ACCESS:        609  HIT:          1  MISS:        608
cpu0_STLB LOAD      ACCESS:        609  HIT:          1  MISS:        608
cpu0_STLB RFO       ACCESS:          0  HIT:          0  MISS:          0
cpu0_STLB PREFETCH  ACCESS:          0  HIT:          0  MISS:          0
cpu0_STLB WRITEBACK ACCESS:          0  HIT:          0  MISS:          0
cpu0_L1D TOTAL     ACCESS:    1159008  HIT:    1121234  MISS:      37774
cpu0_L1D LOAD      ACCESS:     870093  HIT:     832329  MISS:      37764
cpu0_L1D RFO       ACCESS:     288307  HIT:     288307  MISS:          0
cpu0_L1D PREFETCH  ACCESS:          0  HIT:          0  MISS:          0
cpu0_L1D WRITEBACK ACCESS:          0  HIT:          0  MISS:          0
cpu0_L2C TOTAL     ACCESS:      56310  HIT:      18546  MISS:      37764
cpu0_L2C LOAD      ACCESS:      37764  HIT:          0  MISS:      37764
cpu0_L2C RFO       ACCESS:          0  HIT:          0  MISS:          0
cpu0_L2C PREFETCH  ACCESS:          0  HIT:          0  MISS:          0
cpu0_L2C WRITEBACK ACCESS:      18536  HIT:      18536  MISS:          0
LLC TOTAL     ACCESS:      56363  HIT:      18599  MISS:      37764
LLC LOAD      ACCESS:      37764  HIT:          0  MISS:      37764
LLC RFO       ACCESS:          0  HIT:          0  MISS:          0
LLC PREFETCH  ACCESS:          0  HIT:          0  MISS:          0
LLC WRITEBACK ACCESS:      18599  HIT:      18599  MISS:          0
Heartbeat CPU 0 instructions: 58000002 cycles: 21072463 heartbeat IPC: 1.18077 cumulative IPC: 1.18498 (Simulation time: 0 hr 30 min 58 sec) 

Region of Interest Statistics
cpu0_DTLB TOTAL     ACCESS:    1644540  HIT:    1643724  MISS:        816
cpu0_DTLB LOAD      ACCESS:    1533584  HIT:    1532768  MISS:        816
cpu0_DTLB RFO       ACCESS:     110956  HIT:     110956  MISS:          0
cpu0_DTLB PREFETCH  ACCESS:          0  HIT:          0  MISS:          0
cpu0_DTLB WRITEBACK ACCESS:          0  HIT:          0  MISS:          0
cpu0_ITLB TOTAL     ACCESS:      59533  HIT:      59533  MISS:          0
cpu0_ITLB LOAD      ACCESS:      59533  HIT:      59533  MISS:          0
cpu0_ITLB RFO       ACCESS:          0  HIT:          0  MISS:          0
cpu0_ITLB PREFETCH  ACCESS:          0  HIT:          0  MISS:          0
cpu0_ITLB WRITEBACK ACCESS:          0  HIT:          0  MISS:          0
cpu0_L1I TOTAL     ACCESS:       1127  HIT:       1113  MISS:         14
cpu0_L1I LOAD      ACCESS:       1127  HIT:       1113  MISS:         14
cpu0_L1I RFO       ACCESS:          0  HIT:          0  MISS:          0
cpu0_L1I PREFETCH  ACCESS:          0  HIT:          0  MISS:          0
cpu0_L1I WRITEBACK ACCESS:          0  HIT:          0  MISS:          0
cpu0_STLB TOTAL     ACCESS:        816  HIT:          1  MISS:        815
cpu0_STLB LOAD      ACCESS:        816  HIT:          1  MISS:        815
cpu0_STLB RFO       ACCESS:          0  HIT:          0  MISS:          0
cpu0_STLB PREFETCH  ACCESS:          0  HIT:          0  MISS:          0
cpu0_STLB WRITEBACK ACCESS:          0  HIT:          0  MISS:          0
cpu0_L1D TOTAL     ACCESS:    1545549  HIT:    1495135  MISS:      50414
cpu0_L1D LOAD      ACCESS:    1160313  HIT:    1109915  MISS:      50398
cpu0_L1D RFO       ACCESS:     384421  HIT:     384419  MISS:          2
cpu0_L1D PREFETCH  ACCESS:          0  HIT:          0  MISS:          0
cpu0_L1D WRITEBACK ACCESS:          0  HIT:          0  MISS:          0
cpu0_L2C TOTAL     ACCESS:      75174  HIT:      24757  MISS:      50417
cpu0_L2C LOAD      ACCESS:      50412  HIT:          0  MISS:      50412
cpu0_L2C RFO       ACCESS:          2  HIT:          0  MISS:          2
cpu0_L2C PREFETCH  ACCESS:          0  HIT:          0  MISS:          0
cpu0_L2C WRITEBACK ACCESS:      24746  HIT:      24743  MISS:          3
LLC TOTAL     ACCESS:      75356  HIT:      24946  MISS:      50410
LLC LOAD      ACCESS:      50412  HIT:          4  MISS:      50408
LLC RFO       ACCESS:          2  HIT:          1  MISS:          1
LLC PREFETCH  ACCESS:          0  HIT:          0  MISS:          0
LLC WRITEBACK ACCESS:      24942  HIT:      24941  MISS:          1
Heartbeat CPU 0 instructions: 60000004 cycles: 22804229 heartbeat IPC: 1.15489 cumulative IPC: 1.17883 (Simulation time: 0 hr 33 min 2 sec) 

Region of Interest Statistics
cpu0_DTLB TOTAL     ACCESS:    2056207  HIT:    2055187  MISS:       1020
cpu0_DTLB LOAD      ACCESS:    1917060  HIT:    1916040  MISS:       1020
cpu0_DTLB RFO       ACCESS:     139147  HIT:     139147  MISS:          0
cpu0_DTLB PREFETCH  ACCESS:          0  HIT:          0  MISS:          0
cpu0_DTLB WRITEBACK ACCESS:          0  HIT:          0  MISS:          0
cpu0_ITLB TOTAL     ACCESS:      76083  HIT:      76083  MISS:          0
cpu0_ITLB LOAD      ACCESS:      76083  HIT:      76083  MISS:          0
cpu0_ITLB RFO       ACCESS:          0  HIT:          0  MISS:          0
cpu0_ITLB PREFETCH  ACCESS:          0  HIT:          0  MISS:          0
cpu0_ITLB WRITEBACK ACCESS:          0  HIT:          0  MISS:          0
cpu0_L1I TOTAL     ACCESS:       1377  HIT:       1363  MISS:         14
cpu0_L1I LOAD      ACCESS:       1377  HIT:       1363  MISS:         14
cpu0_L1I RFO       ACCESS:          0  HIT:          0  MISS:          0
cpu0_L1I PREFETCH  ACCESS:          0  HIT:          0  MISS:          0
cpu0_L1I WRITEBACK ACCESS:          0  HIT:          0  MISS:          0
cpu0_STLB TOTAL     ACCESS:       1020  HIT:          1  MISS:       1019
cpu0_STLB LOAD      ACCESS:       1020  HIT:          1  MISS:       1019
cpu0_STLB RFO       ACCESS:          0  HIT:          0  MISS:          0
cpu0_STLB PREFETCH  ACCESS:          0  HIT:          0  MISS:          0
cpu0_STLB WRITEBACK ACCESS:          0  HIT:          0  MISS:          0
cpu0_L1D TOTAL     ACCESS:    1933441  HIT:    1870341  MISS:      63100
cpu0_L1D LOAD      ACCESS:    1451894  HIT:    1388813  MISS:      63081
cpu0_L1D RFO       ACCESS:     480528  HIT:     480526  MISS:          2
cpu0_L1D PREFETCH  ACCESS:          0  HIT:          0  MISS:          0
cpu0_L1D WRITEBACK ACCESS:          0  HIT:          0  MISS:          0
cpu0_L2C TOTAL     ACCESS:      94086  HIT:      30986  MISS:      63100
cpu0_L2C LOAD      ACCESS:      63095  HIT:          0  MISS:      63095
cpu0_L2C RFO       ACCESS:          2  HIT:          0  MISS:          2
cpu0_L2C PREFETCH  ACCESS:          0  HIT:          0  MISS:          0
cpu0_L2C WRITEBACK ACCESS:      30972  HIT:      30969  MISS:          3
LLC TOTAL     ACCESS:      94067  HIT:      30974  MISS:      63093
LLC LOAD      ACCESS:      63095  HIT:          4  MISS:      63091
LLC RFO       ACCESS:          2  HIT:          1  MISS:          1
LLC PREFETCH  ACCESS:          0  HIT:          0  MISS:          0
LLC WRITEBACK ACCESS:      30970  HIT:      30969  MISS:          1
Heartbeat CPU 0 instructions: 62000000 cycles: 24517246 heartbeat IPC: 1.16753 cumulative IPC: 1.17693 (Simulation time: 0 hr 35 min 7 sec) 

Region of Interest Statistics
cpu0_DTLB TOTAL     ACCESS:    2467604  HIT:    2466376  MISS:       1228
cpu0_DTLB LOAD      ACCESS:    2300282  HIT:    2299054  MISS:       1228
cpu0_DTLB RFO       ACCESS:     167322  HIT:     167322  MISS:          0
cpu0_DTLB PREFETCH  ACCESS:          0  HIT:          0  MISS:          0
cpu0_DTLB WRITEBACK ACCESS:          0  HIT:          0  MISS:          0
cpu0_ITLB TOTAL     ACCESS:      92824  HIT:      92824  MISS:          0
cpu0_ITLB LOAD      ACCESS:      92824  HIT:      92824  MISS:          0
cpu0_ITLB RFO       ACCESS:          0  HIT:          0  MISS:          0
cpu0_ITLB PREFETCH  ACCESS:          0  HIT:          0  MISS:          0
cpu0_ITLB WRITEBACK ACCESS:          0  HIT:          0  MISS:          0
cpu0_L1I TOTAL     ACCESS:       1615  HIT:       1601  MISS:         14
cpu0_L1I LOAD      ACCESS:       1615  HIT:       1601  MISS:         14
cpu0_L1I RFO       ACCESS:          0  HIT:          0  MISS:          0
cpu0_L1I PREFETCH  ACCESS:          0  HIT:          0  MISS:          0
cpu0_L1I WRITEBACK ACCESS:          0  HIT:          0  MISS:          0
cpu0_STLB TOTAL     ACCESS:       1228  HIT:          3  MISS:       1225
cpu0_STLB LOAD      ACCESS:       1228  HIT:          3  MISS:       1225
cpu0_STLB RFO       ACCESS:          0  HIT:          0  MISS:          0
cpu0_STLB PREFETCH  ACCESS:          0  HIT:          0  MISS:          0
cpu0_STLB WRITEBACK ACCESS:          0  HIT:          0  MISS:          0
cpu0_L1D TOTAL     ACCESS:    2321311  HIT:    2245531  MISS:      75780
cpu0_L1D LOAD      ACCESS:    1743461  HIT:    1667704  MISS:      75757
cpu0_L1D RFO       ACCESS:     576625  HIT:     576623  MISS:          2
cpu0_L1D PREFETCH  ACCESS:          0  HIT:          0  MISS:          0
cpu0_L1D WRITEBACK ACCESS:          0  HIT:          0  MISS:          0
cpu0_L2C TOTAL     ACCESS:     112991  HIT:      37215  MISS:      75776
cpu0_L2C LOAD      ACCESS:      75771  HIT:          0  MISS:      75771
cpu0_L2C RFO       ACCESS:          2  HIT:          0  MISS:          2
cpu0_L2C PREFETCH  ACCESS:          0  HIT:          0  MISS:          0
cpu0_L2C WRITEBACK ACCESS:      37197  HIT:      37194  MISS:          3
LLC TOTAL     ACCESS:     113135  HIT:      37366  MISS:      75769
LLC LOAD      ACCESS:      75771  HIT:          4  MISS:      75767
LLC RFO       ACCESS:          2  HIT:          1  MISS:          1
LLC PREFETCH  ACCESS:          0  HIT:          0  MISS:          0
LLC WRITEBACK ACCESS:      37362  HIT:      37361  MISS:          1
Heartbeat CPU 0 instructions: 64000002 cycles: 26260278 heartbeat IPC: 1.14743 cumulative IPC: 1.17263 (Simulation time: 0 hr 37 min 16 sec) 

Region of Interest Statistics
cpu0_DTLB TOTAL     ACCESS:    2879278  HIT:    2877845  MISS:       1433
cpu0_DTLB LOAD      ACCESS:    2683667  HIT:    2682234  MISS:       1433
cpu0_DTLB RFO       ACCESS:     195611  HIT:     195611  MISS:          0
cpu0_DTLB PREFETCH  ACCESS:          0  HIT:          0  MISS:          0
cpu0_DTLB WRITEBACK ACCESS:          0  HIT:          0  MISS:          0
cpu0_ITLB TOTAL     ACCESS:     109548  HIT:     109548  MISS:          0
cpu0_ITLB LOAD      ACCESS:     109548  HIT:     109548  MISS:          0
cpu0_ITLB RFO       ACCESS:          0  HIT:          0  MISS:          0
cpu0_ITLB PREFETCH  ACCESS:          0  HIT:          0  MISS:          0
cpu0_ITLB WRITEBACK ACCESS:          0  HIT:          0  MISS:          0
cpu0_L1I TOTAL     ACCESS:       1866  HIT:       1852  MISS:         14
cpu0_L1I LOAD      ACCESS:       1866  HIT:       1852  MISS:         14
cpu0_L1I RFO       ACCESS:          0  HIT:          0  MISS:          0
cpu0_L1I PREFETCH  ACCESS:          0  HIT:          0  MISS:          0
cpu0_L1I WRITEBACK ACCESS:          0  HIT:          0  MISS:          0
cpu0_STLB TOTAL     ACCESS:       1433  HIT:          3  MISS:       1430
cpu0_STLB LOAD      ACCESS:       1433  HIT:          3  MISS:       1430
cpu0_STLB RFO       ACCESS:          0  HIT:          0  MISS:          0
cpu0_STLB PREFETCH  ACCESS:          0  HIT:          0  MISS:          0
cpu0_STLB WRITEBACK ACCESS:          0  HIT:          0  MISS:          0
cpu0_L1D TOTAL     ACCESS:    2709501  HIT:    2621030  MISS:      88471
cpu0_L1D LOAD      ACCESS:    2035338  HIT:    1946894  MISS:      88444
cpu0_L1D RFO       ACCESS:     672733  HIT:     672731  MISS:          2
cpu0_L1D PREFETCH  ACCESS:          0  HIT:          0  MISS:          0
cpu0_L1D WRITEBACK ACCESS:          0  HIT:          0  MISS:          0
cpu0_L2C TOTAL     ACCESS:     131907  HIT:      43444  MISS:      88463
cpu0_L2C LOAD      ACCESS:      88458  HIT:          0  MISS:      88458
cpu0_L2C RFO       ACCESS:          2  HIT:          0  MISS:          2
cpu0_L2C PREFETCH  ACCESS:          0  HIT:          0  MISS:          0
cpu0_L2C WRITEBACK ACCESS:      43422  HIT:      43419  MISS:          3
LLC TOTAL     ACCESS:     131728  HIT:      43272  MISS:      88456
LLC LOAD      ACCESS:      88458  HIT:          4  MISS:      88454
LLC RFO       ACCESS:          2  HIT:          1  MISS:          1
LLC PREFETCH  ACCESS:          0  HIT:          0  MISS:          0
LLC WRITEBACK ACCESS:      43268  HIT:      43267  MISS:          1
Heartbeat CPU 0 instructions: 66000000 cycles: 28053185 heartbeat IPC: 1.11551 cumulative IPC: 1.16517 (Simulation time: 0 hr 39 min 22 sec) 

Region of Interest Statistics
cpu0_DTLB TOTAL     ACCESS:    3291513  HIT:    3289876  MISS:       1637
cpu0_DTLB LOAD      ACCESS:    3067212  HIT:    3065575  MISS:       1637
cpu0_DTLB RFO       ACCESS:     224301  HIT:     224301  MISS:          0
cpu0_DTLB PREFETCH  ACCESS:          0  HIT:          0  MISS:          0
cpu0_DTLB WRITEBACK ACCESS:          0  HIT:          0  MISS:          0
cpu0_ITLB TOTAL     ACCESS:     126465  HIT:     126465  MISS:          0
cpu0_ITLB LOAD      ACCESS:     126465  HIT:     126465  MISS:          0
cpu0_ITLB RFO       ACCESS:          0  HIT:          0  MISS:          0
cpu0_ITLB PREFETCH  ACCESS:          0  HIT:          0  MISS:          0
cpu0_ITLB WRITEBACK ACCESS:          0  HIT:          0  MISS:          0
cpu0_L1I TOTAL     ACCESS:       2112  HIT:       2098  MISS:         14
cpu0_L1I LOAD      ACCESS:       2112  HIT:       2098  MISS:         14
cpu0_L1I RFO       ACCESS:          0  HIT:          0  MISS:          0
cpu0_L1I PREFETCH  ACCESS:          0  HIT:          0  MISS:          0
cpu0_L1I WRITEBACK ACCESS:          0  HIT:          0  MISS:          0
cpu0_STLB TOTAL     ACCESS:       1637  HIT:          3  MISS:       1634
cpu0_STLB LOAD      ACCESS:       1637  HIT:          3  MISS:       1634
cpu0_STLB RFO       ACCESS:          0  HIT:          0  MISS:          0
cpu0_STLB PREFETCH  ACCESS:          0  HIT:          0  MISS:          0
cpu0_STLB WRITEBACK ACCESS:          0  HIT:          0  MISS:          0
cpu0_L1D TOTAL     ACCESS:    3099487  HIT:    2998326  MISS:     101161
cpu0_L1D LOAD      ACCESS:    2329013  HIT:    2227882  MISS:     101131
cpu0_L1D RFO       ACCESS:     768840  HIT:     768838  MISS:          2
cpu0_L1D PREFETCH  ACCESS:          0  HIT:          0  MISS:          0
cpu0_L1D WRITEBACK ACCESS:          0  HIT:          0  MISS:          0
cpu0_L2C TOTAL     ACCESS:     150827  HIT:      49677  MISS:     101150
cpu0_L2C LOAD      ACCESS:     101145  HIT:          0  MISS:     101145
cpu0_L2C RFO       ACCESS:          2  HIT:          0  MISS:          2
cpu0_L2C PREFETCH  ACCESS:          0  HIT:          0  MISS:          0
cpu0_L2C WRITEBACK ACCESS:      49652  HIT:      49649  MISS:          3
LLC TOTAL     ACCESS:     150750  HIT:      49608  MISS:     101142
LLC LOAD      ACCESS:     101145  HIT:          5  MISS:     101140
LLC RFO       ACCESS:          2  HIT:          1  MISS:          1
LLC PREFETCH  ACCESS:          0  HIT:          0  MISS:          0
LLC WRITEBACK ACCESS:      49603  HIT:      49602  MISS:          1
Heartbeat CPU 0 instructions: 68000002 cycles: 29839856 heartbeat IPC: 1.1194 cumulative IPC: 1.1599 (Simulation time: 0 hr 41 min 27 sec) 

Region of Interest Statistics
cpu0_DTLB TOTAL     ACCESS:    3788395  HIT:    3786486  MISS:       1909
cpu0_DTLB LOAD      ACCESS:    3497975  HIT:    3496066  MISS:       1909
cpu0_DTLB RFO       ACCESS:     290420  HIT:     290420  MISS:          0
cpu0_DTLB PREFETCH  ACCESS:          0  HIT:          0  MISS:          0
cpu0_DTLB WRITEBACK ACCESS:          0  HIT:          0  MISS:          0
cpu0_ITLB TOTAL     ACCESS:     140408  HIT:     140408  MISS:          0
cpu0_ITLB LOAD      ACCESS:     140408  HIT:     140408  MISS:          0
cpu0_ITLB RFO       ACCESS:          0  HIT:          0  MISS:          0
cpu0_ITLB PREFETCH  ACCESS:          0  HIT:          0  MISS:          0
cpu0_ITLB WRITEBACK ACCESS:          0  HIT:          0  MISS:          0
cpu0_L1I TOTAL     ACCESS:       2553  HIT:       2519  MISS:         34
cpu0_L1I LOAD      ACCESS:       2553  HIT:       2519  MISS:         34
cpu0_L1I RFO       ACCESS:          0  HIT:          0  MISS:          0
cpu0_L1I PREFETCH  ACCESS:          0  HIT:          0  MISS:          0
cpu0_L1I WRITEBACK ACCESS:          0  HIT:          0  MISS:          0
cpu0_STLB TOTAL     ACCESS:       1909  HIT:          5  MISS:       1904
cpu0_STLB LOAD      ACCESS:       1909  HIT:          5  MISS:       1904
cpu0_STLB RFO       ACCESS:          0  HIT:          0  MISS:          0
cpu0_STLB PREFETCH  ACCESS:          0  HIT:          0  MISS:          0
cpu0_STLB WRITEBACK ACCESS:          0  HIT:          0  MISS:          0
cpu0_L1D TOTAL     ACCESS:    3629289  HIT:    3511269  MISS:     118020
cpu0_L1D LOAD      ACCESS:    2729353  HIT:    2611369  MISS:     117984
cpu0_L1D RFO       ACCESS:     898032  HIT:     898029  MISS:          3
cpu0_L1D PREFETCH  ACCESS:          0  HIT:          0  MISS:          0
cpu0_L1D WRITEBACK ACCESS:          0  HIT:          0  MISS:          0
cpu0_L2C TOTAL     ACCESS:     176016  HIT:      58067  MISS:     117949
cpu0_L2C LOAD      ACCESS:     118018  HIT:         81  MISS:     117937
cpu0_L2C RFO       ACCESS:          3  HIT:          0  MISS:          3
cpu0_L2C PREFETCH  ACCESS:          0  HIT:          0  MISS:          0
cpu0_L2C WRITEBACK ACCESS:      57962  HIT:      57955  MISS:          7
LLC TOTAL     ACCESS:     175748  HIT:      57831  MISS:     117917
LLC LOAD      ACCESS:     117937  HIT:         24  MISS:     117913
LLC RFO       ACCESS:          3  HIT:          1  MISS:          2
LLC PREFETCH  ACCESS:          0  HIT:          0  MISS:          0
LLC WRITEBACK ACCESS:      57806  HIT:      57804  MISS:          2
Heartbeat CPU 0 instructions: 70000001 cycles: 31591918 heartbeat IPC: 1.14151 cumulative IPC: 1.15803 (Simulation time: 0 hr 43 min 55 sec) 

Region of Interest Statistics
cpu0_DTLB TOTAL     ACCESS:    4327641  HIT:    4325435  MISS:       2206
cpu0_DTLB LOAD      ACCESS:    3952508  HIT:    3950302  MISS:       2206
cpu0_DTLB RFO       ACCESS:     375133  HIT:     375133  MISS:          0
cpu0_DTLB PREFETCH  ACCESS:          0  HIT:          0  MISS:          0
cpu0_DTLB WRITEBACK ACCESS:          0  HIT:          0  MISS:          0
cpu0_ITLB TOTAL     ACCESS:     152853  HIT:     152853  MISS:          0
cpu0_ITLB LOAD      ACCESS:     152853  HIT:     152853  MISS:          0
cpu0_ITLB RFO       ACCESS:          0  HIT:          0  MISS:          0
cpu0_ITLB PREFETCH  ACCESS:          0  HIT:          0  MISS:          0
cpu0_ITLB WRITEBACK ACCESS:          0  HIT:          0  MISS:          0
cpu0_L1I TOTAL     ACCESS:       3128  HIT:       3094  MISS:         34
cpu0_L1I LOAD      ACCESS:       3128  HIT:       3094  MISS:         34
cpu0_L1I RFO       ACCESS:          0  HIT:          0  MISS:          0
cpu0_L1I PREFETCH  ACCESS:          0  HIT:          0  MISS:          0
cpu0_L1I WRITEBACK ACCESS:          0  HIT:          0  MISS:          0
cpu0_STLB TOTAL     ACCESS:       2206  HIT:          7  MISS:       2199
cpu0_STLB LOAD      ACCESS:       2206  HIT:          7  MISS:       2199
cpu0_STLB RFO       ACCESS:          0  HIT:          0  MISS:          0
cpu0_STLB PREFETCH  ACCESS:          0  HIT:          0  MISS:          0
cpu0_STLB WRITEBACK ACCESS:          0  HIT:          0  MISS:          0
cpu0_L1D TOTAL     ACCESS:    4228464  HIT:    4091499  MISS:     136965
cpu0_L1D LOAD      ACCESS:    3182579  HIT:    3045653  MISS:     136926
cpu0_L1D RFO       ACCESS:    1043686  HIT:    1043683  MISS:          3
cpu0_L1D PREFETCH  ACCESS:          0  HIT:          0  MISS:          0
cpu0_L1D WRITEBACK ACCESS:          0  HIT:          0  MISS:          0
cpu0_L2C TOTAL     ACCESS:     204326  HIT:      67573  MISS:     136753
cpu0_L2C LOAD      ACCESS:     136960  HIT:        221  MISS:     136739
cpu0_L2C RFO       ACCESS:          3  HIT:          0  MISS:          3
cpu0_L2C PREFETCH  ACCESS:          0  HIT:          0  MISS:          0
cpu0_L2C WRITEBACK ACCESS:      67327  HIT:      67320  MISS:          7
LLC TOTAL     ACCESS:     203996  HIT:      67279  MISS:     136717
LLC LOAD      ACCESS:     136739  HIT:         26  MISS:     136713
LLC RFO       ACCESS:          3  HIT:          1  MISS:          2
LLC PREFETCH  ACCESS:          0  HIT:          0  MISS:          0
LLC WRITEBACK ACCESS:      67250  HIT:      67248  MISS:          2
Heartbeat CPU 0 instructions: 72000002 cycles: 33384810 heartbeat IPC: 1.11552 cumulative IPC: 1.15404 (Simulation time: 0 hr 46 min 23 sec) 

Region of Interest Statistics
cpu0_DTLB TOTAL     ACCESS:    4868003  HIT:    4865503  MISS:       2500
cpu0_DTLB LOAD      ACCESS:    4407826  HIT:    4405326  MISS:       2500
cpu0_DTLB RFO       ACCESS:     460177  HIT:     460177  MISS:          0
cpu0_DTLB PREFETCH  ACCESS:          0  HIT:          0  MISS:          0
cpu0_DTLB WRITEBACK ACCESS:          0  HIT:          0  MISS:          0
cpu0_ITLB TOTAL     ACCESS:     165339  HIT:     165339  MISS:          0
cpu0_ITLB LOAD      ACCESS:     165339  HIT:     165339  MISS:          0
cpu0_ITLB RFO       ACCESS:          0  HIT:          0  MISS:          0
cpu0_ITLB PREFETCH  ACCESS:          0  HIT:          0  MISS:          0
cpu0_ITLB WRITEBACK ACCESS:          0  HIT:          0  MISS:          0
cpu0_L1I TOTAL     ACCESS:       3680  HIT:       3646  MISS:         34
cpu0_L1I LOAD      ACCESS:       3680  HIT:       3646  MISS:         34
cpu0_L1I RFO       ACCESS:          0  HIT:          0  MISS:          0
cpu0_L1I PREFETCH  ACCESS:          0  HIT:          0  MISS:          0
cpu0_L1I WRITEBACK ACCESS:          0  HIT:          0  MISS:          0
cpu0_STLB TOTAL     ACCESS:       2500  HIT:          9  MISS:       2491
cpu0_STLB LOAD      ACCESS:       2500  HIT:          9  MISS:       2491
cpu0_STLB RFO       ACCESS:          0  HIT:          0  MISS:          0
cpu0_STLB PREFETCH  ACCESS:          0  HIT:          0  MISS:          0
cpu0_STLB WRITEBACK ACCESS:          0  HIT:          0  MISS:          0
cpu0_L1D TOTAL     ACCESS:    4828233  HIT:    4672335  MISS:     155898
cpu0_L1D LOAD      ACCESS:    3636416  HIT:    3480559  MISS:     155857
cpu0_L1D RFO       ACCESS:    1189326  HIT:    1189323  MISS:          3
cpu0_L1D PREFETCH  ACCESS:          0  HIT:          0  MISS:          0
cpu0_L1D WRITEBACK ACCESS:          0  HIT:          0  MISS:          0
cpu0_L2C TOTAL     ACCESS:     232598  HIT:      77045  MISS:     155553
cpu0_L2C LOAD      ACCESS:     155891  HIT:        354  MISS:     155537
cpu0_L2C RFO       ACCESS:          3  HIT:          0  MISS:          3
cpu0_L2C PREFETCH  ACCESS:          0  HIT:          0  MISS:          0
cpu0_L2C WRITEBACK ACCESS:      76666  HIT:      76659  MISS:          7
LLC TOTAL     ACCESS:     232085  HIT:      76601  MISS:     155484
LLC LOAD      ACCESS:     155537  HIT:         57  MISS:     155480
LLC RFO       ACCESS:          3  HIT:          1  MISS:          2
LLC PREFETCH  ACCESS:          0  HIT:          0  MISS:          0
LLC WRITEBACK ACCESS:      76539  HIT:      76537  MISS:          2
Heartbeat CPU 0 instructions: 74000003 cycles: 35199885 heartbeat IPC: 1.10188 cumulative IPC: 1.1495 (Simulation time: 0 hr 48 min 47 sec) 

Region of Interest Statistics
cpu0_DTLB TOTAL     ACCESS:    5409866  HIT:    5407070  MISS:       2796
cpu0_DTLB LOAD      ACCESS:    4863997  HIT:    4861201  MISS:       2796
cpu0_DTLB RFO       ACCESS:     545869  HIT:     545869  MISS:          0
cpu0_DTLB PREFETCH  ACCESS:          0  HIT:          0  MISS:          0
cpu0_DTLB WRITEBACK ACCESS:          0  HIT:          0  MISS:          0
cpu0_ITLB TOTAL     ACCESS:     177952  HIT:     177952  MISS:          0
cpu0_ITLB LOAD      ACCESS:     177952  HIT:     177952  MISS:          0
cpu0_ITLB RFO       ACCESS:          0  HIT:          0  MISS:          0
cpu0_ITLB PREFETCH  ACCESS:          0  HIT:          0  MISS:          0
cpu0_ITLB WRITEBACK ACCESS:          0  HIT:          0  MISS:          0
cpu0_L1I TOTAL     ACCESS:       4225  HIT:       4191  MISS:         34
cpu0_L1I LOAD      ACCESS:       4225  HIT:       4191  MISS:         34
cpu0_L1I RFO       ACCESS:          0  HIT:          0  MISS:          0
cpu0_L1I PREFETCH  ACCESS:          0  HIT:          0  MISS:          0
cpu0_L1I WRITEBACK ACCESS:          0  HIT:          0  MISS:          0
cpu0_STLB TOTAL     ACCESS:       2796  HIT:         11  MISS:       2785
cpu0_STLB LOAD      ACCESS:       2796  HIT:         11  MISS:       2785
cpu0_STLB RFO       ACCESS:          0  HIT:          0  MISS:          0
cpu0_STLB PREFETCH  ACCESS:          0  HIT:          0  MISS:          0
cpu0_STLB WRITEBACK ACCESS:          0  HIT:          0  MISS:          0
cpu0_L1D TOTAL     ACCESS:    5429637  HIT:    5254806  MISS:     174831
cpu0_L1D LOAD      ACCESS:    4091886  HIT:    3917099  MISS:     174787
cpu0_L1D RFO       ACCESS:    1334966  HIT:    1334963  MISS:          3
cpu0_L1D PREFETCH  ACCESS:          0  HIT:          0  MISS:          0
cpu0_L1D WRITEBACK ACCESS:          0  HIT:          0  MISS:          0
cpu0_L2C TOTAL     ACCESS:     260884  HIT:      86532  MISS:     174352
cpu0_L2C LOAD      ACCESS:     174821  HIT:        487  MISS:     174334
cpu0_L2C RFO       ACCESS:          3  HIT:          0  MISS:          3
cpu0_L2C PREFETCH  ACCESS:          0  HIT:          0  MISS:          0
cpu0_L2C WRITEBACK ACCESS:      86019  HIT:      86012  MISS:          7
LLC TOTAL     ACCESS:     260475  HIT:      86305  MISS:     174170
LLC LOAD      ACCESS:     174334  HIT:        168  MISS:     174166
LLC RFO       ACCESS:          3  HIT:          1  MISS:          2
LLC PREFETCH  ACCESS:          0  HIT:          0  MISS:          0
LLC WRITEBACK ACCESS:      86130  HIT:      86128  MISS:          2
Heartbeat CPU 0 instructions: 76000001 cycles: 37028313 heartbeat IPC: 1.09383 cumulative IPC: 1.14502 (Simulation time: 0 hr 51 min 20 sec) 

Region of Interest Statistics
cpu0_DTLB TOTAL     ACCESS:    5951486  HIT:    5948394  MISS:       3092
cpu0_DTLB LOAD      ACCESS:    5320227  HIT:    5317135  MISS:       3092
cpu0_DTLB RFO       ACCESS:     631259  HIT:     631259  MISS:          0
cpu0_DTLB PREFETCH  ACCESS:          0  HIT:          0  MISS:          0
cpu0_DTLB WRITEBACK ACCESS:          0  HIT:          0  MISS:          0
cpu0_ITLB TOTAL     ACCESS:     190450  HIT:     190450  MISS:          0
cpu0_ITLB LOAD      ACCESS:     190450  HIT:     190450  MISS:          0
cpu0_ITLB RFO       ACCESS:          0  HIT:          0  MISS:          0
cpu0_ITLB PREFETCH  ACCESS:          0  HIT:          0  MISS:          0
cpu0_ITLB WRITEBACK ACCESS:          0  HIT:          0  MISS:          0
cpu0_L1I TOTAL     ACCESS:       4799  HIT:       4765  MISS:         34
cpu0_L1I LOAD      ACCESS:       4799  HIT:       4765  MISS:         34
cpu0_L1I RFO       ACCESS:          0  HIT:          0  MISS:          0
cpu0_L1I PREFETCH  ACCESS:          0  HIT:          0  MISS:          0
cpu0_L1I WRITEBACK ACCESS:          0  HIT:          0  MISS:          0
cpu0_STLB TOTAL     ACCESS:       3092  HIT:         14  MISS:       3078
cpu0_STLB LOAD      ACCESS:       3092  HIT:         14  MISS:       3078
cpu0_STLB RFO       ACCESS:          0  HIT:          0  MISS:          0
cpu0_STLB PREFETCH  ACCESS:          0  HIT:          0  MISS:          0
cpu0_STLB WRITEBACK ACCESS:          0  HIT:          0  MISS:          0
cpu0_L1D TOTAL     ACCESS:    6030277  HIT:    5836501  MISS:     193776
cpu0_L1D LOAD      ACCESS:    4546578  HIT:    4352848  MISS:     193730
cpu0_L1D RFO       ACCESS:    1480621  HIT:    1480618  MISS:          3
cpu0_L1D PREFETCH  ACCESS:          0  HIT:          0  MISS:          0
cpu0_L1D WRITEBACK ACCESS:          0  HIT:          0  MISS:          0
cpu0_L2C TOTAL     ACCESS:     289188  HIT:      96032  MISS:     193156
cpu0_L2C LOAD      ACCESS:     193764  HIT:        627  MISS:     193137
cpu0_L2C RFO       ACCESS:          3  HIT:          0  MISS:          3
cpu0_L2C PREFETCH  ACCESS:          0  HIT:          0  MISS:          0
cpu0_L2C WRITEBACK ACCESS:      95378  HIT:      95371  MISS:          7
LLC TOTAL     ACCESS:     288394  HIT:      95421  MISS:     192973
LLC LOAD      ACCESS:     193137  HIT:        168  MISS:     192969
LLC RFO       ACCESS:          3  HIT:          1  MISS:          2
LLC PREFETCH  ACCESS:          0  HIT:          0  MISS:          0
LLC WRITEBACK ACCESS:      95245  HIT:      95243  MISS:          2
Heartbeat CPU 0 instructions: 78000000 cycles: 38854847 heartbeat IPC: 1.09497 cumulative IPC: 1.14129 (Simulation time: 0 hr 53 min 56 sec) 

Region of Interest Statistics
cpu0_DTLB TOTAL     ACCESS:    6492609  HIT:    6489220  MISS:       3389
cpu0_DTLB LOAD      ACCESS:    5775937  HIT:    5772548  MISS:       3389
cpu0_DTLB RFO       ACCESS:     716672  HIT:     716672  MISS:          0
cpu0_DTLB PREFETCH  ACCESS:          0  HIT:          0  MISS:          0
cpu0_DTLB WRITEBACK ACCESS:          0  HIT:          0  MISS:          0
cpu0_ITLB TOTAL     ACCESS:     203043  HIT:     203043  MISS:          0
cpu0_ITLB LOAD      ACCESS:     203043  HIT:     203043  MISS:          0
cpu0_ITLB RFO       ACCESS:          0  HIT:          0  MISS:          0
cpu0_ITLB PREFETCH  ACCESS:          0  HIT:          0  MISS:          0
cpu0_ITLB WRITEBACK ACCESS:          0  HIT:          0  MISS:          0
cpu0_L1I TOTAL     ACCESS:       5349  HIT:       5315  MISS:         34
cpu0_L1I LOAD      ACCESS:       5349  HIT:       5315  MISS:         34
cpu0_L1I RFO       ACCESS:          0  HIT:          0  MISS:          0
cpu0_L1I PREFETCH  ACCESS:          0  HIT:          0  MISS:          0
cpu0_L1I WRITEBACK ACCESS:          0  HIT:          0  MISS:          0
cpu0_STLB TOTAL     ACCESS:       3389  HIT:         16  MISS:       3373
cpu0_STLB LOAD      ACCESS:       3389  HIT:         16  MISS:       3373
cpu0_STLB RFO       ACCESS:          0  HIT:          0  MISS:          0
cpu0_STLB PREFETCH  ACCESS:          0  HIT:          0  MISS:          0
cpu0_STLB WRITEBACK ACCESS:          0  HIT:          0  MISS:          0
cpu0_L1D TOTAL     ACCESS:    6631080  HIT:    6418369  MISS:     212711
cpu0_L1D LOAD      ACCESS:    5001443  HIT:    4788781  MISS:     212662
cpu0_L1D RFO       ACCESS:    1626264  HIT:    1626261  MISS:          3
cpu0_L1D PREFETCH  ACCESS:          0  HIT:          0  MISS:          0
cpu0_L1D WRITEBACK ACCESS:          0  HIT:          0  MISS:          0
cpu0_L2C TOTAL     ACCESS:     317493  HIT:     105537  MISS:     211956
cpu0_L2C LOAD      ACCESS:     212696  HIT:        760  MISS:     211936
cpu0_L2C RFO       ACCESS:          3  HIT:          0  MISS:          3
cpu0_L2C PREFETCH  ACCESS:          0  HIT:          0  MISS:          0
cpu0_L2C WRITEBACK ACCESS:     104748  HIT:     104741  MISS:          7
LLC TOTAL     ACCESS:     316614  HIT:     104888  MISS:     211726
LLC LOAD      ACCESS:     211936  HIT:        214  MISS:     211722
LLC RFO       ACCESS:          3  HIT:          1  MISS:          2
LLC PREFETCH  ACCESS:          0  HIT:          0  MISS:          0
LLC WRITEBACK ACCESS:     104665  HIT:     104663  MISS:          2
Heartbeat CPU 0 instructions: 80000000 cycles: 40626286 heartbeat IPC: 1.12903 cumulative IPC: 1.14047 (Simulation time: 0 hr 56 min 27 sec) 

Region of Interest Statistics
cpu0_DTLB TOTAL     ACCESS:    7022668  HIT:    7019001  MISS:       3667
cpu0_DTLB LOAD      ACCESS:    6233674  HIT:    6230007  MISS:       3667
cpu0_DTLB RFO       ACCESS:     788994  HIT:     788994  MISS:          0
cpu0_DTLB PREFETCH  ACCESS:          0  HIT:          0  MISS:          0
cpu0_DTLB WRITEBACK ACCESS:          0  HIT:          0  MISS:          0
cpu0_ITLB TOTAL     ACCESS:     215720  HIT:     215720  MISS:          0
cpu0_ITLB LOAD      ACCESS:     215720  HIT:     215720  MISS:          0
cpu0_ITLB RFO       ACCESS:          0  HIT:          0  MISS:          0
cpu0_ITLB PREFETCH  ACCESS:          0  HIT:          0  MISS:          0
cpu0_ITLB WRITEBACK ACCESS:          0  HIT:          0  MISS:          0
cpu0_L1I TOTAL     ACCESS:       5813  HIT:       5765  MISS:         48
cpu0_L1I LOAD      ACCESS:       5813  HIT:       5765  MISS:         48
cpu0_L1I RFO       ACCESS:          0  HIT:          0  MISS:          0
cpu0_L1I PREFETCH  ACCESS:          0  HIT:          0  MISS:          0
cpu0_L1I WRITEBACK ACCESS:          0  HIT:          0  MISS:          0
cpu0_STLB TOTAL     ACCESS:       3667  HIT:         17  MISS:       3650
cpu0_STLB LOAD      ACCESS:       3667  HIT:         17  MISS:       3650
cpu0_STLB RFO       ACCESS:          0  HIT:          0  MISS:          0
cpu0_STLB PREFETCH  ACCESS:          0  HIT:          0  MISS:          0
cpu0_STLB WRITEBACK ACCESS:          0  HIT:          0  MISS:          0
cpu0_L1D TOTAL     ACCESS:    7231925  HIT:    7001772  MISS:     230153
cpu0_L1D LOAD      ACCESS:    5475949  HIT:    5245851  MISS:     230098
cpu0_L1D RFO       ACCESS:    1752326  HIT:    1752323  MISS:          3
cpu0_L1D PREFETCH  ACCESS:          0  HIT:          0  MISS:          0
cpu0_L1D WRITEBACK ACCESS:          0  HIT:          0  MISS:          0
cpu0_L2C TOTAL     ACCESS:     343167  HIT:     113866  MISS:     229301
cpu0_L2C LOAD      ACCESS:     230146  HIT:        871  MISS:     229275
cpu0_L2C RFO       ACCESS:          3  HIT:          0  MISS:          3
cpu0_L2C PREFETCH  ACCESS:          0  HIT:          0  MISS:          0
cpu0_L2C WRITEBACK ACCESS:     112966  HIT:     112956  MISS:         10
LLC TOTAL     ACCESS:     342449  HIT:     113428  MISS:     229021
LLC LOAD      ACCESS:     229275  HIT:        260  MISS:     229015
LLC RFO       ACCESS:          3  HIT:          1  MISS:          2
LLC PREFETCH  ACCESS:          0  HIT:          0  MISS:          0
LLC WRITEBACK ACCESS:     113158  HIT:     113156  MISS:          2
Heartbeat CPU 0 instructions: 82000004 cycles: 42238383 heartbeat IPC: 1.24062 cumulative IPC: 1.14625 (Simulation time: 0 hr 58 min 54 sec) 

Region of Interest Statistics
cpu0_DTLB TOTAL     ACCESS:    7514348  HIT:    7510475  MISS:       3873
cpu0_DTLB LOAD      ACCESS:    6695595  HIT:    6691722  MISS:       3873
cpu0_DTLB RFO       ACCESS:     818753  HIT:     818753  MISS:          0
cpu0_DTLB PREFETCH  ACCESS:          0  HIT:          0  MISS:          0
cpu0_DTLB WRITEBACK ACCESS:          0  HIT:          0  MISS:          0
cpu0_ITLB TOTAL     ACCESS:     228495  HIT:     228495  MISS:          0
cpu0_ITLB LOAD      ACCESS:     228495  HIT:     228495  MISS:          0
cpu0_ITLB RFO       ACCESS:          0  HIT:          0  MISS:          0
cpu0_ITLB PREFETCH  ACCESS:          0  HIT:          0  MISS:          0
cpu0_ITLB WRITEBACK ACCESS:          0  HIT:          0  MISS:          0
cpu0_L1I TOTAL     ACCESS:       5939  HIT:       5891  MISS:         48
cpu0_L1I LOAD      ACCESS:       5939  HIT:       5891  MISS:         48
cpu0_L1I RFO       ACCESS:          0  HIT:          0  MISS:          0
cpu0_L1I PREFETCH  ACCESS:          0  HIT:          0  MISS:          0
cpu0_L1I WRITEBACK ACCESS:          0  HIT:          0  MISS:          0
cpu0_STLB TOTAL     ACCESS:       3873  HIT:         20  MISS:       3853
cpu0_STLB LOAD      ACCESS:       3873  HIT:         20  MISS:       3853
cpu0_STLB RFO       ACCESS:          0  HIT:          0  MISS:          0
cpu0_STLB PREFETCH  ACCESS:          0  HIT:          0  MISS:          0
cpu0_STLB WRITEBACK ACCESS:          0  HIT:          0  MISS:          0
cpu0_L1D TOTAL     ACCESS:    7829409  HIT:    7586624  MISS:     242785
cpu0_L1D LOAD      ACCESS:    6009513  HIT:    5766785  MISS:     242728
cpu0_L1D RFO       ACCESS:    1816043  HIT:    1816040  MISS:          3
cpu0_L1D PREFETCH  ACCESS:          0  HIT:          0  MISS:          0
cpu0_L1D WRITEBACK ACCESS:          0  HIT:          0  MISS:          0
cpu0_L2C TOTAL     ACCESS:     359897  HIT:     118007  MISS:     241890
cpu0_L2C LOAD      ACCESS:     242776  HIT:        913  MISS:     241863
cpu0_L2C RFO       ACCESS:          3  HIT:          0  MISS:          3
cpu0_L2C PREFETCH  ACCESS:          0  HIT:          0  MISS:          0
cpu0_L2C WRITEBACK ACCESS:     117064  HIT:     117054  MISS:         10
LLC TOTAL     ACCESS:     359952  HIT:     118488  MISS:     241464
LLC LOAD      ACCESS:     241863  HIT:        407  MISS:     241456
LLC RFO       ACCESS:          3  HIT:          1  MISS:          2
LLC PREFETCH  ACCESS:          0  HIT:          0  MISS:          0
LLC WRITEBACK ACCESS:     118072  HIT:     118068  MISS:          4
Heartbeat CPU 0 instructions: 84000002 cycles: 43852918 heartbeat IPC: 1.23875 cumulative IPC: 1.15131 (Simulation time: 1 hr 1 min 10 sec) 

Region of Interest Statistics
cpu0_DTLB TOTAL     ACCESS:    8006100  HIT:    8002022  MISS:       4078
cpu0_DTLB LOAD      ACCESS:    7157530  HIT:    7153452  MISS:       4078
cpu0_DTLB RFO       ACCESS:     848570  HIT:     848570  MISS:          0
cpu0_DTLB PREFETCH  ACCESS:          0  HIT:          0  MISS:          0
cpu0_DTLB WRITEBACK ACCESS:          0  HIT:          0  MISS:          0
cpu0_ITLB TOTAL     ACCESS:     241295  HIT:     241295  MISS:          0
cpu0_ITLB LOAD      ACCESS:     241295  HIT:     241295  MISS:          0
cpu0_ITLB RFO       ACCESS:          0  HIT:          0  MISS:          0
cpu0_ITLB PREFETCH  ACCESS:          0  HIT:          0  MISS:          0
cpu0_ITLB WRITEBACK ACCESS:          0  HIT:          0  MISS:          0
cpu0_L1I TOTAL     ACCESS:       6074  HIT:       6026  MISS:         48
cpu0_L1I LOAD      ACCESS:       6074  HIT:       6026  MISS:         48
cpu0_L1I RFO       ACCESS:          0  HIT:          0  MISS:          0
cpu0_L1I PREFETCH  ACCESS:          0  HIT:          0  MISS:          0
cpu0_L1I WRITEBACK ACCESS:          0  HIT:          0  MISS:          0
cpu0_STLB TOTAL     ACCESS:       4078  HIT:         21  MISS:       4057
cpu0_STLB LOAD      ACCESS:       4078  HIT:         21  MISS:       4057
cpu0_STLB RFO       ACCESS:          0  HIT:          0  MISS:          0
cpu0_STLB PREFETCH  ACCESS:          0  HIT:          0  MISS:          0
cpu0_STLB WRITEBACK ACCESS:          0  HIT:          0  MISS:          0
cpu0_L1D TOTAL     ACCESS:    8426989  HIT:    8171551  MISS:     255438
cpu0_L1D LOAD      ACCESS:    6543162  HIT:    6287783  MISS:     255379
cpu0_L1D RFO       ACCESS:    1879770  HIT:    1879767  MISS:          3
cpu0_L1D PREFETCH  ACCESS:          0  HIT:          0  MISS:          0
cpu0_L1D WRITEBACK ACCESS:          0  HIT:          0  MISS:          0
cpu0_L2C TOTAL     ACCESS:     376652  HIT:     122152  MISS:     254500
cpu0_L2C LOAD      ACCESS:     255427  HIT:        954  MISS:     254473
cpu0_L2C RFO       ACCESS:          3  HIT:          0  MISS:          3
cpu0_L2C PREFETCH  ACCESS:          0  HIT:          0  MISS:          0
cpu0_L2C WRITEBACK ACCESS:     121166  HIT:     121156  MISS:         10
LLC TOTAL     ACCESS:     376600  HIT:     122681  MISS:     253919
LLC LOAD      ACCESS:     254473  HIT:        562  MISS:     253911
LLC RFO       ACCESS:          3  HIT:          1  MISS:          2
LLC PREFETCH  ACCESS:          0  HIT:          0  MISS:          0
LLC WRITEBACK ACCESS:     122110  HIT:     122106  MISS:          4
Heartbeat CPU 0 instructions: 86000002 cycles: 45465970 heartbeat IPC: 1.23989 cumulative IPC: 1.15589 (Simulation time: 1 hr 3 min 27 sec) 

Region of Interest Statistics
cpu0_DTLB TOTAL     ACCESS:    8497794  HIT:    8493512  MISS:       4282
cpu0_DTLB LOAD      ACCESS:    7619419  HIT:    7615137  MISS:       4282
cpu0_DTLB RFO       ACCESS:     878375  HIT:     878375  MISS:          0
cpu0_DTLB PREFETCH  ACCESS:          0  HIT:          0  MISS:          0
cpu0_DTLB WRITEBACK ACCESS:          0  HIT:          0  MISS:          0
cpu0_ITLB TOTAL     ACCESS:     254120  HIT:     254120  MISS:          0
cpu0_ITLB LOAD      ACCESS:     254120  HIT:     254120  MISS:          0
cpu0_ITLB RFO       ACCESS:          0  HIT:          0  MISS:          0
cpu0_ITLB PREFETCH  ACCESS:          0  HIT:          0  MISS:          0
cpu0_ITLB WRITEBACK ACCESS:          0  HIT:          0  MISS:          0
cpu0_L1I TOTAL     ACCESS:       6203  HIT:       6155  MISS:         48
cpu0_L1I LOAD      ACCESS:       6203  HIT:       6155  MISS:         48
cpu0_L1I RFO       ACCESS:          0  HIT:          0  MISS:          0
cpu0_L1I PREFETCH  ACCESS:          0  HIT:          0  MISS:          0
cpu0_L1I WRITEBACK ACCESS:          0  HIT:          0  MISS:          0
cpu0_STLB TOTAL     ACCESS:       4282  HIT:         22  MISS:       4260
cpu0_STLB LOAD      ACCESS:       4282  HIT:         22  MISS:       4260
cpu0_STLB RFO       ACCESS:          0  HIT:          0  MISS:          0
cpu0_STLB PREFETCH  ACCESS:          0  HIT:          0  MISS:          0
cpu0_STLB WRITEBACK ACCESS:          0  HIT:          0  MISS:          0
cpu0_L1D TOTAL     ACCESS:    9024444  HIT:    8756385  MISS:     268059
cpu0_L1D LOAD      ACCESS:    7076698  HIT:    6808701  MISS:     267997
cpu0_L1D RFO       ACCESS:    1943486  HIT:    1943483  MISS:          3
cpu0_L1D PREFETCH  ACCESS:          0  HIT:          0  MISS:          0
cpu0_L1D WRITEBACK ACCESS:          0  HIT:          0  MISS:          0
cpu0_L2C TOTAL     ACCESS:     393374  HIT:     126286  MISS:     267088
cpu0_L2C LOAD      ACCESS:     268045  HIT:        985  MISS:     267060
cpu0_L2C RFO       ACCESS:          3  HIT:          0  MISS:          3
cpu0_L2C PREFETCH  ACCESS:          0  HIT:          0  MISS:          0
cpu0_L2C WRITEBACK ACCESS:     125267  HIT:     125257  MISS:         10
LLC TOTAL     ACCESS:     393404  HIT:     126980  MISS:     266424
LLC LOAD      ACCESS:     267060  HIT:        644  MISS:     266416
LLC RFO       ACCESS:          3  HIT:          1  MISS:          2
LLC PREFETCH  ACCESS:          0  HIT:          0  MISS:          0
LLC WRITEBACK ACCESS:     126326  HIT:     126322  MISS:          4
Heartbeat CPU 0 instructions: 88000000 cycles: 47075825 heartbeat IPC: 1.24235 cumulative IPC: 1.16014 (Simulation time: 1 hr 5 min 43 sec) 

Region of Interest Statistics
cpu0_DTLB TOTAL     ACCESS:    8989334  HIT:    8984847  MISS:       4487
cpu0_DTLB LOAD      ACCESS:    8081192  HIT:    8076705  MISS:       4487
cpu0_DTLB RFO       ACCESS:     908142  HIT:     908142  MISS:          0
cpu0_DTLB PREFETCH  ACCESS:          0  HIT:          0  MISS:          0
cpu0_DTLB WRITEBACK ACCESS:          0  HIT:          0  MISS:          0
cpu0_ITLB TOTAL     ACCESS:     266948  HIT:     266948  MISS:          0
cpu0_ITLB LOAD      ACCESS:     266948  HIT:     266948  MISS:          0
cpu0_ITLB RFO       ACCESS:          0  HIT:          0  MISS:          0
cpu0_ITLB PREFETCH  ACCESS:          0  HIT:          0  MISS:          0
cpu0_ITLB WRITEBACK ACCESS:          0  HIT:          0  MISS:          0
cpu0_L1I TOTAL     ACCESS:       6338  HIT:       6290  MISS:         48
cpu0_L1I LOAD      ACCESS:       6338  HIT:       6290  MISS:         48
cpu0_L1I RFO       ACCESS:          0  HIT:          0  MISS:          0
cpu0_L1I PREFETCH  ACCESS:          0  HIT:          0  MISS:          0
cpu0_L1I WRITEBACK ACCESS:          0  HIT:          0  MISS:          0
cpu0_STLB TOTAL     ACCESS:       4487  HIT:         26  MISS:       4461
cpu0_STLB LOAD      ACCESS:       4487  HIT:         26  MISS:       4461
cpu0_STLB RFO       ACCESS:          0  HIT:          0  MISS:          0
cpu0_STLB PREFETCH  ACCESS:          0  HIT:          0  MISS:          0
cpu0_STLB WRITEBACK ACCESS:          0  HIT:          0  MISS:          0
cpu0_L1D TOTAL     ACCESS:    9621793  HIT:    9341089  MISS:     280704
cpu0_L1D LOAD      ACCESS:    7610119  HIT:    7329479  MISS:     280640
cpu0_L1D RFO       ACCESS:    2007213  HIT:    2007210  MISS:          3
cpu0_L1D PREFETCH  ACCESS:          0  HIT:          0  MISS:          0
cpu0_L1D WRITEBACK ACCESS:          0  HIT:          0  MISS:          0
cpu0_L2C TOTAL     ACCESS:     410128  HIT:     130432  MISS:     279696
cpu0_L2C LOAD      ACCESS:     280688  HIT:       1020  MISS:     279668
cpu0_L2C RFO       ACCESS:          3  HIT:          0  MISS:          3
cpu0_L2C PREFETCH  ACCESS:          0  HIT:          0  MISS:          0
cpu0_L2C WRITEBACK ACCESS:     129376  HIT:     129366  MISS:         10
LLC TOTAL     ACCESS:     410083  HIT:     131198  MISS:     278885
LLC LOAD      ACCESS:     279668  HIT:        791  MISS:     278877
LLC RFO       ACCESS:          3  HIT:          1  MISS:          2
LLC PREFETCH  ACCESS:          0  HIT:          0  MISS:          0
LLC WRITEBACK ACCESS:     130397  HIT:     130393  MISS:          4
Heartbeat CPU 0 instructions: 90000003 cycles: 48688066 heartbeat IPC: 1.24051 cumulative IPC: 1.16391 (Simulation time: 1 hr 8 min 0 sec) 

Region of Interest Statistics
cpu0_DTLB TOTAL     ACCESS:    9481090  HIT:    9476398  MISS:       4692
cpu0_DTLB LOAD      ACCESS:    8543153  HIT:    8538461  MISS:       4692
cpu0_DTLB RFO       ACCESS:     937937  HIT:     937937  MISS:          0
cpu0_DTLB PREFETCH  ACCESS:          0  HIT:          0  MISS:          0
cpu0_DTLB WRITEBACK ACCESS:          0  HIT:          0  MISS:          0
cpu0_ITLB TOTAL     ACCESS:     279698  HIT:     279698  MISS:          0
cpu0_ITLB LOAD      ACCESS:     279698  HIT:     279698  MISS:          0
cpu0_ITLB RFO       ACCESS:          0  HIT:          0  MISS:          0
cpu0_ITLB PREFETCH  ACCESS:          0  HIT:          0  MISS:          0
cpu0_ITLB WRITEBACK ACCESS:          0  HIT:          0  MISS:          0
cpu0_L1I TOTAL     ACCESS:       6464  HIT:       6416  MISS:         48
cpu0_L1I LOAD      ACCESS:       6464  HIT:       6416  MISS:         48
cpu0_L1I RFO       ACCESS:          0  HIT:          0  MISS:          0
cpu0_L1I PREFETCH  ACCESS:          0  HIT:          0  MISS:          0
cpu0_L1I WRITEBACK ACCESS:          0  HIT:          0  MISS:          0
cpu0_STLB TOTAL     ACCESS:       4692  HIT:         27  MISS:       4665
cpu0_STLB LOAD      ACCESS:       4692  HIT:         27  MISS:       4665
cpu0_STLB RFO       ACCESS:          0  HIT:          0  MISS:          0
cpu0_STLB PREFETCH  ACCESS:          0  HIT:          0  MISS:          0
cpu0_STLB WRITEBACK ACCESS:          0  HIT:          0  MISS:          0
cpu0_L1D TOTAL     ACCESS:   10219373  HIT:    9926044  MISS:     293329
cpu0_L1D LOAD      ACCESS:    8143778  HIT:    7850515  MISS:     293263
cpu0_L1D RFO       ACCESS:    2070930  HIT:    2070927  MISS:          3
cpu0_L1D PREFETCH  ACCESS:          0  HIT:          0  MISS:          0
cpu0_L1D WRITEBACK ACCESS:          0  HIT:          0  MISS:          0
cpu0_L2C TOTAL     ACCESS:     426846  HIT:     134559  MISS:     292287
cpu0_L2C LOAD      ACCESS:     293311  HIT:       1052  MISS:     292259
cpu0_L2C RFO       ACCESS:          3  HIT:          0  MISS:          3
cpu0_L2C PREFETCH  ACCESS:          0  HIT:          0  MISS:          0
cpu0_L2C WRITEBACK ACCESS:     133469  HIT:     133459  MISS:         10
LLC TOTAL     ACCESS:     426756  HIT:     135423  MISS:     291333
LLC LOAD      ACCESS:     292259  HIT:        935  MISS:     291324
LLC RFO       ACCESS:          3  HIT:          1  MISS:          2
LLC PREFETCH  ACCESS:          0  HIT:          0  MISS:          0
LLC WRITEBACK ACCESS:     134479  HIT:     134474  MISS:          5
Heartbeat CPU 0 instructions: 92000002 cycles: 50304665 heartbeat IPC: 1.23716 cumulative IPC: 1.16721 (Simulation time: 1 hr 10 min 16 sec) 

Region of Interest Statistics
cpu0_DTLB TOTAL     ACCESS:    9972839  HIT:    9967943  MISS:       4896
cpu0_DTLB LOAD      ACCESS:    9005081  HIT:    9000185  MISS:       4896
cpu0_DTLB RFO       ACCESS:     967758  HIT:     967758  MISS:          0
cpu0_DTLB PREFETCH  ACCESS:          0  HIT:          0  MISS:          0
cpu0_DTLB WRITEBACK ACCESS:          0  HIT:          0  MISS:          0
cpu0_ITLB TOTAL     ACCESS:     292538  HIT:     292538  MISS:          0
cpu0_ITLB LOAD      ACCESS:     292538  HIT:     292538  MISS:          0
cpu0_ITLB RFO       ACCESS:          0  HIT:          0  MISS:          0
cpu0_ITLB PREFETCH  ACCESS:          0  HIT:          0  MISS:          0
cpu0_ITLB WRITEBACK ACCESS:          0  HIT:          0  MISS:          0
cpu0_L1I TOTAL     ACCESS:       6599  HIT:       6551  MISS:         48
cpu0_L1I LOAD      ACCESS:       6599  HIT:       6551  MISS:         48
cpu0_L1I RFO       ACCESS:          0  HIT:          0  MISS:          0
cpu0_L1I PREFETCH  ACCESS:          0  HIT:          0  MISS:          0
cpu0_L1I WRITEBACK ACCESS:          0  HIT:          0  MISS:          0
cpu0_STLB TOTAL     ACCESS:       4896  HIT:         29  MISS:       4867
cpu0_STLB LOAD      ACCESS:       4896  HIT:         29  MISS:       4867
cpu0_STLB RFO       ACCESS:          0  HIT:          0  MISS:          0
cpu0_STLB PREFETCH  ACCESS:          0  HIT:          0  MISS:          0
cpu0_STLB WRITEBACK ACCESS:          0  HIT:          0  MISS:          0
cpu0_L1D TOTAL     ACCESS:   10816799  HIT:   10510820  MISS:     305979
cpu0_L1D LOAD      ACCESS:    8677275  HIT:    8371365  MISS:     305910
cpu0_L1D RFO       ACCESS:    2134657  HIT:    2134654  MISS:          3
cpu0_L1D PREFETCH  ACCESS:          0  HIT:          0  MISS:          0
cpu0_L1D WRITEBACK ACCESS:          0  HIT:          0  MISS:          0
cpu0_L2C TOTAL     ACCESS:     443595  HIT:     138700  MISS:     304895
cpu0_L2C LOAD      ACCESS:     305958  HIT:       1091  MISS:     304867
cpu0_L2C RFO       ACCESS:          3  HIT:          0  MISS:          3
cpu0_L2C PREFETCH  ACCESS:          0  HIT:          0  MISS:          0
cpu0_L2C WRITEBACK ACCESS:     137568  HIT:     137558  MISS:         10
LLC TOTAL     ACCESS:     443529  HIT:     139365  MISS:     304164
LLC LOAD      ACCESS:     304867  HIT:       1018  MISS:     303849
LLC RFO       ACCESS:          3  HIT:          1  MISS:          2
LLC PREFETCH  ACCESS:          0  HIT:          0  MISS:          0
LLC WRITEBACK ACCESS:     138644  HIT:     138333  MISS:        311
Heartbeat CPU 0 instructions: 94000004 cycles: 52991638 heartbeat IPC: 0.744333 cumulative IPC: 1.13782 (Simulation time: 1 hr 12 min 42 sec) 

Region of Interest Statistics
cpu0_DTLB TOTAL     ACCESS:   10436769  HIT:   10410990  MISS:      25779
cpu0_DTLB LOAD      ACCESS:    9416532  HIT:    9411209  MISS:       5323
cpu0_DTLB RFO       ACCESS:    1020237  HIT:     999781  MISS:      20456
cpu0_DTLB PREFETCH  ACCESS:          0  HIT:          0  MISS:          0
cpu0_DTLB WRITEBACK ACCESS:          0  HIT:          0  MISS:          0
cpu0_ITLB TOTAL     ACCESS:     325279  HIT:     325275  MISS:          4
cpu0_ITLB LOAD      ACCESS:     325279  HIT:     325275  MISS:          4
cpu0_ITLB RFO       ACCESS:          0  HIT:          0  MISS:          0
cpu0_ITLB PREFETCH  ACCESS:          0  HIT:          0  MISS:          0
cpu0_ITLB WRITEBACK ACCESS:          0  HIT:          0  MISS:          0
cpu0_L1I TOTAL     ACCESS:       6995  HIT:       6860  MISS:        135
cpu0_L1I LOAD      ACCESS:       6995  HIT:       6860  MISS:        135
cpu0_L1I RFO       ACCESS:          0  HIT:          0  MISS:          0
cpu0_L1I PREFETCH  ACCESS:          0  HIT:          0  MISS:          0
cpu0_L1I WRITEBACK ACCESS:          0  HIT:          0  MISS:          0
cpu0_STLB TOTAL     ACCESS:      25784  HIT:      19104  MISS:       6680
cpu0_STLB LOAD      ACCESS:       5327  HIT:        216  MISS:       5111
cpu0_STLB RFO       ACCESS:      20457  HIT:      18888  MISS:       1569
cpu0_STLB PREFETCH  ACCESS:          0  HIT:          0  MISS:          0
cpu0_STLB WRITEBACK ACCESS:          0  HIT:          0  MISS:          0
cpu0_L1D TOTAL     ACCESS:   11339520  HIT:   10997555  MISS:     341965
cpu0_L1D LOAD      ACCESS:    9122455  HIT:    8802876  MISS:     319579
cpu0_L1D RFO       ACCESS:    2211190  HIT:    2188902  MISS:      22288
cpu0_L1D PREFETCH  ACCESS:          0  HIT:          0  MISS:          0
cpu0_L1D WRITEBACK ACCESS:          0  HIT:          0  MISS:          0
cpu0_L2C TOTAL     ACCESS:     505044  HIT:     169364  MISS:     335680
cpu0_L2C LOAD      ACCESS:     319714  HIT:       1163  MISS:     318551
cpu0_L2C RFO       ACCESS:      22289  HIT:       5202  MISS:      17087
cpu0_L2C PREFETCH  ACCESS:          0  HIT:          0  MISS:          0
cpu0_L2C WRITEBACK ACCESS:     162943  HIT:     162924  MISS:         19
LLC TOTAL     ACCESS:     490519  HIT:     152277  MISS:     338242
LLC LOAD      ACCESS:     318551  HIT:       1149  MISS:     317402
LLC RFO       ACCESS:      17088  HIT:       2324  MISS:      14764
LLC PREFETCH  ACCESS:          0  HIT:          0  MISS:          0
LLC WRITEBACK ACCESS:     154857  HIT:     148789  MISS:       6068
Heartbeat CPU 0 instructions: 96000000 cycles: 55988241 heartbeat IPC: 0.667421 cumulative IPC: 1.10399 (Simulation time: 1 hr 15 min 14 sec) 

Region of Interest Statistics
cpu0_DTLB TOTAL     ACCESS:   10763125  HIT:   10723475  MISS:      39650
cpu0_DTLB LOAD      ACCESS:    9654416  HIT:    9648616  MISS:       5800
cpu0_DTLB RFO       ACCESS:    1108709  HIT:    1074859  MISS:      33850
cpu0_DTLB PREFETCH  ACCESS:          0  HIT:          0  MISS:          0
cpu0_DTLB WRITEBACK ACCESS:          0  HIT:          0  MISS:          0
cpu0_ITLB TOTAL     ACCESS:     370725  HIT:     370717  MISS:          8
cpu0_ITLB LOAD      ACCESS:     370725  HIT:     370717  MISS:          8
cpu0_ITLB RFO       ACCESS:          0  HIT:          0  MISS:          0
cpu0_ITLB PREFETCH  ACCESS:          0  HIT:          0  MISS:          0
cpu0_ITLB WRITEBACK ACCESS:          0  HIT:          0  MISS:          0
cpu0_L1I TOTAL     ACCESS:       7256  HIT:       7027  MISS:        229
cpu0_L1I LOAD      ACCESS:       7256  HIT:       7027  MISS:        229
cpu0_L1I RFO       ACCESS:          0  HIT:          0  MISS:          0
cpu0_L1I PREFETCH  ACCESS:          0  HIT:          0  MISS:          0
cpu0_L1I WRITEBACK ACCESS:          0  HIT:          0  MISS:          0
cpu0_STLB TOTAL     ACCESS:      39658  HIT:      31537  MISS:       8121
cpu0_STLB LOAD      ACCESS:       5808  HIT:        355  MISS:       5453
cpu0_STLB RFO       ACCESS:      33850  HIT:      31182  MISS:       2668
cpu0_STLB PREFETCH  ACCESS:          0  HIT:          0  MISS:          0
cpu0_STLB WRITEBACK ACCESS:          0  HIT:          0  MISS:          0
cpu0_L1D TOTAL     ACCESS:   11526631  HIT:   11135904  MISS:     390727
cpu0_L1D LOAD      ACCESS:    9226022  HIT:    8883148  MISS:     342874
cpu0_L1D RFO       ACCESS:    2293581  HIT:    2245851  MISS:      47730
cpu0_L1D PREFETCH  ACCESS:          0  HIT:          0  MISS:          0
cpu0_L1D WRITEBACK ACCESS:          0  HIT:          0  MISS:          0
cpu0_L2C TOTAL     ACCESS:     580809  HIT:     202821  MISS:     377988
cpu0_L2C LOAD      ACCESS:     343103  HIT:       4471  MISS:     338632
cpu0_L2C RFO       ACCESS:      47730  HIT:       8429  MISS:      39301
cpu0_L2C PREFETCH  ACCESS:          0  HIT:          0  MISS:          0
cpu0_L2C WRITEBACK ACCESS:     189853  HIT:     189832  MISS:         21
LLC TOTAL     ACCESS:     560982  HIT:     185516  MISS:     375466
LLC LOAD      ACCESS:     338632  HIT:       1170  MISS:     337462
LLC RFO       ACCESS:      39301  HIT:       7378  MISS:      31923
LLC PREFETCH  ACCESS:          0  HIT:          0  MISS:          0
LLC WRITEBACK ACCESS:     183015  HIT:     176945  MISS:       6070
Heartbeat CPU 0 instructions: 98000002 cycles: 59615629 heartbeat IPC: 0.551362 cumulative IPC: 1.05973 (Simulation time: 1 hr 18 min 7 sec) 

Region of Interest Statistics
cpu0_DTLB TOTAL     ACCESS:   11055426  HIT:   11015074  MISS:      40352
cpu0_DTLB LOAD      ACCESS:    9903029  HIT:    9896702  MISS:       6327
cpu0_DTLB RFO       ACCESS:    1152397  HIT:    1118372  MISS:      34025
cpu0_DTLB PREFETCH  ACCESS:          0  HIT:          0  MISS:          0
cpu0_DTLB WRITEBACK ACCESS:          0  HIT:          0  MISS:          0
cpu0_ITLB TOTAL     ACCESS:     393189  HIT:     393181  MISS:          8
cpu0_ITLB LOAD      ACCESS:     393189  HIT:     393181  MISS:          8
cpu0_ITLB RFO       ACCESS:          0  HIT:          0  MISS:          0
cpu0_ITLB PREFETCH  ACCESS:          0  HIT:          0  MISS:          0
cpu0_ITLB WRITEBACK ACCESS:          0  HIT:          0  MISS:          0
cpu0_L1I TOTAL     ACCESS:       7256  HIT:       7027  MISS:        229
cpu0_L1I LOAD      ACCESS:       7256  HIT:       7027  MISS:        229
cpu0_L1I RFO       ACCESS:          0  HIT:          0  MISS:          0
cpu0_L1I PREFETCH  ACCESS:          0  HIT:          0  MISS:          0
cpu0_L1I WRITEBACK ACCESS:          0  HIT:          0  MISS:          0
cpu0_STLB TOTAL     ACCESS:      40360  HIT:      31537  MISS:       8823
cpu0_STLB LOAD      ACCESS:       6335  HIT:        355  MISS:       5980
cpu0_STLB RFO       ACCESS:      34025  HIT:      31182  MISS:       2843
cpu0_STLB PREFETCH  ACCESS:          0  HIT:          0  MISS:          0
cpu0_STLB WRITEBACK ACCESS:          0  HIT:          0  MISS:          0
cpu0_L1D TOTAL     ACCESS:   11699886  HIT:   11265602  MISS:     434284
cpu0_L1D LOAD      ACCESS:    9304872  HIT:    8929295  MISS:     375577
cpu0_L1D RFO       ACCESS:    2387284  HIT:    2328700  MISS:      58584
cpu0_L1D PREFETCH  ACCESS:          0  HIT:          0  MISS:          0
cpu0_L1D WRITEBACK ACCESS:          0  HIT:          0  MISS:          0
cpu0_L2C TOTAL     ACCESS:     635268  HIT:     213864  MISS:     421404
cpu0_L2C LOAD      ACCESS:     375806  HIT:       4612  MISS:     371194
cpu0_L2C RFO       ACCESS:      58584  HIT:       8429  MISS:      50155
cpu0_L2C PREFETCH  ACCESS:          0  HIT:          0  MISS:          0
cpu0_L2C WRITEBACK ACCESS:     200755  HIT:     200734  MISS:         21
LLC TOTAL     ACCESS:     615385  HIT:     196503  MISS:     418882
LLC LOAD      ACCESS:     371194  HIT:       1170  MISS:     370024
LLC RFO       ACCESS:      50155  HIT:       7378  MISS:      42777
LLC PREFETCH  ACCESS:          0  HIT:          0  MISS:          0
LLC WRITEBACK ACCESS:     194002  HIT:     187932  MISS:       6070
Heartbeat CPU 0 instructions: 100000000 cycles: 63448742 heartbeat IPC: 0.521769 cumulative IPC: 1.01776 (Simulation time: 1 hr 21 min 11 sec) 

Region of Interest Statistics
cpu0_DTLB TOTAL     ACCESS:   11347580  HIT:   11306528  MISS:      41052
cpu0_DTLB LOAD      ACCESS:   10151581  HIT:   10144729  MISS:       6852
cpu0_DTLB RFO       ACCESS:    1195999  HIT:    1161799  MISS:      34200
cpu0_DTLB PREFETCH  ACCESS:          0  HIT:          0  MISS:          0
cpu0_DTLB WRITEBACK ACCESS:          0  HIT:          0  MISS:          0
cpu0_ITLB TOTAL     ACCESS:     415588  HIT:     415580  MISS:          8
cpu0_ITLB LOAD      ACCESS:     415588  HIT:     415580  MISS:          8
cpu0_ITLB RFO       ACCESS:          0  HIT:          0  MISS:          0
cpu0_ITLB PREFETCH  ACCESS:          0  HIT:          0  MISS:          0
cpu0_ITLB WRITEBACK ACCESS:          0  HIT:          0  MISS:          0
cpu0_L1I TOTAL     ACCESS:       7256  HIT:       7027  MISS:        229
cpu0_L1I LOAD      ACCESS:       7256  HIT:       7027  MISS:        229
cpu0_L1I RFO       ACCESS:          0  HIT:          0  MISS:          0
cpu0_L1I PREFETCH  ACCESS:          0  HIT:          0  MISS:          0
cpu0_L1I WRITEBACK ACCESS:          0  HIT:          0  MISS:          0
cpu0_STLB TOTAL     ACCESS:      41060  HIT:      31537  MISS:       9523
cpu0_STLB LOAD      ACCESS:       6860  HIT:        355  MISS:       6505
cpu0_STLB RFO       ACCESS:      34200  HIT:      31182  MISS:       3018
cpu0_STLB PREFETCH  ACCESS:          0  HIT:          0  MISS:          0
cpu0_STLB WRITEBACK ACCESS:          0  HIT:          0  MISS:          0
cpu0_L1D TOTAL     ACCESS:   11874710  HIT:   11396877  MISS:     477833
cpu0_L1D LOAD      ACCESS:    9384229  HIT:    8975955  MISS:     408274
cpu0_L1D RFO       ACCESS:    2482051  HIT:    2412615  MISS:      69436
cpu0_L1D PREFETCH  ACCESS:          0  HIT:          0  MISS:          0
cpu0_L1D WRITEBACK ACCESS:          0  HIT:          0  MISS:          0
cpu0_L2C TOTAL     ACCESS:     689718  HIT:     224902  MISS:     464816
cpu0_L2C LOAD      ACCESS:     408503  HIT:       4750  MISS:     403753
cpu0_L2C RFO       ACCESS:      69437  HIT:       8429  MISS:      61008
cpu0_L2C PREFETCH  ACCESS:          0  HIT:          0  MISS:          0
cpu0_L2C WRITEBACK ACCESS:     211655  HIT:     211634  MISS:         21
LLC TOTAL     ACCESS:     669654  HIT:     207360  MISS:     462294
LLC LOAD      ACCESS:     403753  HIT:       1170  MISS:     402583
LLC RFO       ACCESS:      61008  HIT:       7378  MISS:      53630
LLC PREFETCH  ACCESS:          0  HIT:          0  MISS:          0
LLC WRITEBACK ACCESS:     204859  HIT:     198789  MISS:       6070
Heartbeat CPU 0 instructions: 102000001 cycles: 66014101 heartbeat IPC: 0.779618 cumulative IPC: 1.00594 (Simulation time: 1 hr 23 min 29 sec) 

Region of Interest Statistics
cpu0_DTLB TOTAL     ACCESS:   11803888  HIT:   11762383  MISS:      41505
cpu0_DTLB LOAD      ACCESS:   10497476  HIT:   10490306  MISS:       7170
cpu0_DTLB RFO       ACCESS:    1306412  HIT:    1272077  MISS:      34335
cpu0_DTLB PREFETCH  ACCESS:          0  HIT:          0  MISS:          0
cpu0_DTLB WRITEBACK ACCESS:          0  HIT:          0  MISS:          0
cpu0_ITLB TOTAL     ACCESS:     434125  HIT:     434117  MISS:          8
cpu0_ITLB LOAD      ACCESS:     434125  HIT:     434117  MISS:          8
cpu0_ITLB RFO       ACCESS:          0  HIT:          0  MISS:          0
cpu0_ITLB PREFETCH  ACCESS:          0  HIT:          0  MISS:          0
cpu0_ITLB WRITEBACK ACCESS:          0  HIT:          0  MISS:          0
cpu0_L1I TOTAL     ACCESS:       7271  HIT:       7032  MISS:        239
cpu0_L1I LOAD      ACCESS:       7271  HIT:       7032  MISS:        239
cpu0_L1I RFO       ACCESS:          0  HIT:          0  MISS:          0
cpu0_L1I PREFETCH  ACCESS:          0  HIT:          0  MISS:          0
cpu0_L1I WRITEBACK ACCESS:          0  HIT:          0  MISS:          0
cpu0_STLB TOTAL     ACCESS:      41513  HIT:      31537  MISS:       9976
cpu0_STLB LOAD      ACCESS:       7178  HIT:        355  MISS:       6823
cpu0_STLB RFO       ACCESS:      34335  HIT:      31182  MISS:       3153
cpu0_STLB PREFETCH  ACCESS:          0  HIT:          0  MISS:          0
cpu0_STLB WRITEBACK ACCESS:          0  HIT:          0  MISS:          0
cpu0_L1D TOTAL     ACCESS:   12156484  HIT:   11650828  MISS:     505656
cpu0_L1D LOAD      ACCESS:    9532596  HIT:    9104785  MISS:     427811
cpu0_L1D RFO       ACCESS:    2615005  HIT:    2537298  MISS:      77707
cpu0_L1D PREFETCH  ACCESS:          0  HIT:          0  MISS:          0
cpu0_L1D WRITEBACK ACCESS:          0  HIT:          0  MISS:          0
cpu0_L2C TOTAL     ACCESS:     731723  HIT:     239229  MISS:     492494
cpu0_L2C LOAD      ACCESS:     428050  HIT:       4895  MISS:     423155
cpu0_L2C RFO       ACCESS:      77707  HIT:       8429  MISS:      69278
cpu0_L2C PREFETCH  ACCESS:          0  HIT:          0  MISS:          0
cpu0_L2C WRITEBACK ACCESS:     225828  HIT:     225806  MISS:         22
LLC TOTAL     ACCESS:     708405  HIT:     218592  MISS:     489813
LLC LOAD      ACCESS:     423155  HIT:       1326  MISS:     421829
LLC RFO       ACCESS:      69278  HIT:       7378  MISS:      61900
LLC PREFETCH  ACCESS:          0  HIT:          0  MISS:          0
LLC WRITEBACK ACCESS:     215933  HIT:     209862  MISS:       6071
Heartbeat CPU 0 instructions: 104000002 cycles: 68201296 heartbeat IPC: 0.914414 cumulative IPC: 1.00223 (Simulation time: 1 hr 25 min 38 sec) 

Region of Interest Statistics
cpu0_DTLB TOTAL     ACCESS:   12300191  HIT:   12258304  MISS:      41887
cpu0_DTLB LOAD      ACCESS:   10866951  HIT:   10859522  MISS:       7429
cpu0_DTLB RFO       ACCESS:    1433240  HIT:    1398782  MISS:      34458
cpu0_DTLB PREFETCH  ACCESS:          0  HIT:          0  MISS:          0
cpu0_DTLB WRITEBACK ACCESS:          0  HIT:          0  MISS:          0
cpu0_ITLB TOTAL     ACCESS:     451979  HIT:     451971  MISS:          8
cpu0_ITLB LOAD      ACCESS:     451979  HIT:     451971  MISS:          8
cpu0_ITLB RFO       ACCESS:          0  HIT:          0  MISS:          0
cpu0_ITLB PREFETCH  ACCESS:          0  HIT:          0  MISS:          0
cpu0_ITLB WRITEBACK ACCESS:          0  HIT:          0  MISS:          0
cpu0_L1I TOTAL     ACCESS:       7271  HIT:       7032  MISS:        239
cpu0_L1I LOAD      ACCESS:       7271  HIT:       7032  MISS:        239
cpu0_L1I RFO       ACCESS:          0  HIT:          0  MISS:          0
cpu0_L1I PREFETCH  ACCESS:          0  HIT:          0  MISS:          0
cpu0_L1I WRITEBACK ACCESS:          0  HIT:          0  MISS:          0
cpu0_STLB TOTAL     ACCESS:      41895  HIT:      31537  MISS:      10358
cpu0_STLB LOAD      ACCESS:       7437  HIT:        355  MISS:       7082
cpu0_STLB RFO       ACCESS:      34458  HIT:      31182  MISS:       3276
cpu0_STLB PREFETCH  ACCESS:          0  HIT:          0  MISS:          0
cpu0_STLB WRITEBACK ACCESS:          0  HIT:          0  MISS:          0
cpu0_L1D TOTAL     ACCESS:   12463165  HIT:   11933635  MISS:     529530
cpu0_L1D LOAD      ACCESS:    9697154  HIT:    9253115  MISS:     444039
cpu0_L1D RFO       ACCESS:    2756746  HIT:    2671406  MISS:      85340
cpu0_L1D PREFETCH  ACCESS:          0  HIT:          0  MISS:          0
cpu0_L1D WRITEBACK ACCESS:          0  HIT:          0  MISS:          0
cpu0_L2C TOTAL     ACCESS:     770914  HIT:     254693  MISS:     516221
cpu0_L2C LOAD      ACCESS:     444278  HIT:       5030  MISS:     439248
cpu0_L2C RFO       ACCESS:      85340  HIT:       8429  MISS:      76911
cpu0_L2C PREFETCH  ACCESS:          0  HIT:          0  MISS:          0
cpu0_L2C WRITEBACK ACCESS:     241145  HIT:     241123  MISS:         22
LLC TOTAL     ACCESS:     747389  HIT:     233895  MISS:     513494
LLC LOAD      ACCESS:     439248  HIT:       1371  MISS:     437877
LLC RFO       ACCESS:      76911  HIT:       7378  MISS:      69533
LLC PREFETCH  ACCESS:          0  HIT:          0  MISS:          0
LLC WRITEBACK ACCESS:     231190  HIT:     225119  MISS:       6071
Heartbeat CPU 0 instructions: 106000002 cycles: 70272615 heartbeat IPC: 0.965568 cumulative IPC: 1.00087 (Simulation time: 1 hr 27 min 37 sec) 

Region of Interest Statistics
cpu0_DTLB TOTAL     ACCESS:   12796322  HIT:   12754051  MISS:      42271
cpu0_DTLB LOAD      ACCESS:   11236162  HIT:   11228473  MISS:       7689
cpu0_DTLB RFO       ACCESS:    1560160  HIT:    1525578  MISS:      34582
cpu0_DTLB PREFETCH  ACCESS:          0  HIT:          0  MISS:          0
cpu0_DTLB WRITEBACK ACCESS:          0  HIT:          0  MISS:          0
cpu0_ITLB TOTAL     ACCESS:     469742  HIT:     469734  MISS:          8
cpu0_ITLB LOAD      ACCESS:     469742  HIT:     469734  MISS:          8
cpu0_ITLB RFO       ACCESS:          0  HIT:          0  MISS:          0
cpu0_ITLB PREFETCH  ACCESS:          0  HIT:          0  MISS:          0
cpu0_ITLB WRITEBACK ACCESS:          0  HIT:          0  MISS:          0
cpu0_L1I TOTAL     ACCESS:       7271  HIT:       7032  MISS:        239
cpu0_L1I LOAD      ACCESS:       7271  HIT:       7032  MISS:        239
cpu0_L1I RFO       ACCESS:          0  HIT:          0  MISS:          0
cpu0_L1I PREFETCH  ACCESS:          0  HIT:          0  MISS:          0
cpu0_L1I WRITEBACK ACCESS:          0  HIT:          0  MISS:          0
cpu0_STLB TOTAL     ACCESS:      42279  HIT:      31537  MISS:      10742
cpu0_STLB LOAD      ACCESS:       7697  HIT:        355  MISS:       7342
cpu0_STLB RFO       ACCESS:      34582  HIT:      31182  MISS:       3400
cpu0_STLB PREFETCH  ACCESS:          0  HIT:          0  MISS:          0
cpu0_STLB WRITEBACK ACCESS:          0  HIT:          0  MISS:          0
cpu0_L1D TOTAL     ACCESS:   12769690  HIT:   12216245  MISS:     553445
cpu0_L1D LOAD      ACCESS:    9861712  HIT:    9401402  MISS:     460310
cpu0_L1D RFO       ACCESS:    2898329  HIT:    2805356  MISS:      92973
cpu0_L1D PREFETCH  ACCESS:          0  HIT:          0  MISS:          0
cpu0_L1D WRITEBACK ACCESS:          0  HIT:          0  MISS:          0
cpu0_L2C TOTAL     ACCESS:     810162  HIT:     270185  MISS:     539977
cpu0_L2C LOAD      ACCESS:     460549  HIT:       5180  MISS:     455369
cpu0_L2C RFO       ACCESS:      92973  HIT:       8429  MISS:      84544
cpu0_L2C PREFETCH  ACCESS:          0  HIT:          0  MISS:          0
cpu0_L2C WRITEBACK ACCESS:     256478  HIT:     256456  MISS:         22
LLC TOTAL     ACCESS:     786451  HIT:     249271  MISS:     537180
[...]
cpu0_DTLB WRITEBACK ACCESS:          0  HIT:          0  MISS:          0
cpu0_DTLB TRANSLATION ACCESS:          0  HIT:          0  MISS:          0
cpu0_DTLB PREFETCH  REQUESTED:          0  ISSUED:          0  USEFUL:          0  USELESS:          0
cpu0_DTLB AVERAGE MISS LATENCY: 35.6719 cycles
cpu0_ITLB TOTAL     ACCESS:   24488945  HIT:   24488879  MISS:         66
cpu0_ITLB LOAD      ACCESS:   24488945  HIT:   24488879  MISS:         66
cpu0_ITLB RFO       ACCESS:          0  HIT:          0  MISS:          0
cpu0_ITLB PREFETCH  ACCESS:          0  HIT:          0  MISS:          0
cpu0_ITLB WRITEBACK ACCESS:          0  HIT:          0  MISS:          0
cpu0_ITLB TRANSLATION ACCESS:          0  HIT:          0  MISS:          0
cpu0_ITLB PREFETCH  REQUESTED:          0  ISSUED:          0  USEFUL:          0  USELESS:          0
cpu0_ITLB AVERAGE MISS LATENCY: 245 cycles
cpu0_L1I TOTAL     ACCESS:    2802202  HIT:    2797575  MISS:       4627
cpu0_L1I LOAD      ACCESS:    2802202  HIT:    2797575  MISS:       4627
cpu0_L1I RFO       ACCESS:          0  HIT:          0  MISS:          0
cpu0_L1I PREFETCH  ACCESS:          0  HIT:          0  MISS:          0
cpu0_L1I WRITEBACK ACCESS:          0  HIT:          0  MISS:          0
cpu0_L1I TRANSLATION ACCESS:          0  HIT:          0  MISS:          0
cpu0_L1I PREFETCH  REQUESTED:          0  ISSUED:          0  USEFUL:          0  USELESS:          0
cpu0_L1I AVERAGE MISS LATENCY: 418.081 cycles
cpu0_STLB TOTAL     ACCESS:     602258  HIT:     420068  MISS:     182190
cpu0_STLB LOAD      ACCESS:     515046  HIT:     353025  MISS:     162021
cpu0_STLB RFO       ACCESS:      87212  HIT:      67043  MISS:      20169
cpu0_STLB PREFETCH  ACCESS:          0  HIT:          0  MISS:          0
cpu0_STLB WRITEBACK ACCESS:          0  HIT:          0  MISS:          0
cpu0_STLB TRANSLATION ACCESS:          0  HIT:          0  MISS:          0
cpu0_STLB PREFETCH  REQUESTED:          0  ISSUED:          0  USEFUL:          0  USELESS:          0
cpu0_STLB AVERAGE MISS LATENCY: 87.9993 cycles
cpu0_L1D TOTAL     ACCESS:  363620556  HIT:  347994899  MISS:   15625657
cpu0_L1D LOAD      ACCESS:  277075525  HIT:  263663963  MISS:   13411562
cpu0_L1D RFO       ACCESS:   86373483  HIT:   84180732  MISS:    2192751
cpu0_L1D PREFETCH  ACCESS:          0  HIT:          0  MISS:          0
cpu0_L1D WRITEBACK ACCESS:          0  HIT:          0  MISS:          0
cpu0_L1D TRANSLATION ACCESS:     171548  HIT:     150204  MISS:      21344
cpu0_L1D PREFETCH  REQUESTED:          0  ISSUED:          0  USEFUL:          0  USELESS:          0
cpu0_L1D AVERAGE MISS LATENCY: 160.501 cycles
cpu0_L2C TOTAL     ACCESS:   20725550  HIT:   10095812  MISS:   10629738
cpu0_L2C LOAD      ACCESS:   13415899  HIT:    3938505  MISS:    9477394
cpu0_L2C RFO       ACCESS:    2192736  HIT:    1044030  MISS:    1148706
cpu0_L2C PREFETCH  ACCESS:          0  HIT:          0  MISS:          0
cpu0_L2C WRITEBACK ACCESS:    5095571  HIT:    5093551  MISS:       2020
cpu0_L2C TRANSLATION ACCESS:      21344  HIT:      19726  MISS:       1618
cpu0_L2C PREFETCH  REQUESTED:          0  ISSUED:          0  USEFUL:          0  USELESS:          0
cpu0_L2C AVERAGE MISS LATENCY: 219.918 cycles
LLC TOTAL     ACCESS:   14055645  HIT:    4951609  MISS:    9104036
LLC LOAD      ACCESS:    9477387  HIT:    2303640  MISS:    7173747
LLC RFO       ACCESS:    1148706  HIT:      72732  MISS:    1075974
LLC PREFETCH  ACCESS:          0  HIT:          0  MISS:          0
LLC WRITEBACK ACCESS:    3427934  HIT:    2574130  MISS:     853804
LLC TRANSLATION ACCESS:       1618  HIT:       1107  MISS:        511
LLC PREFETCH  REQUESTED:          0  ISSUED:          0  USEFUL:          0  USELESS:          0
LLC AVERAGE MISS LATENCY: 232.254 cycles
~~~~~~~~~~Reuse Distance Profiler output~~~~~~~~~~
0	32403888	6310640
1	25978512	7776752
2	20551808	13086304
3	22610464	16246816
4	20723168	15824960
5	18165712	15042768
6	15377264	13315200
7	13945168	12482992
8	12920064	11721376
9	10450176	9685872
10	10604800	9816752
11	9892208	9137744
12	7996912	7393152
13	7790912	7252416
14	10928720	10094160
15	6529824	6006272
16	4653936	4278928
17	4513968	3991536
18	4257024	3891648
19	4706800	3935968
20	5594256	3758944
21	5414976	4974144
22	5252736	4674208
23	5623648	5111456
24	4656768	4251104
25	3039088	2748672
26	1800272	1645104
27	1597328	1464608
28	1266224	1103824
29	1539488	1081936
30	2216624	1005408
31	1883072	1674768
32	1985184	1913856
33	2865200	2805120
34	6316768	6261616
35	16891776	16835360
36	2935056	2867712
37	2036704	1984528
38	638224	593008
39	682768	632880
40	429072	383040
41	511280	466416
42	300064	267296
43	323968	287776
44	305248	264512
45	340192	311568
46	293408	266528
47	275008	241328
48	220032	193824
49	240672	206208
50	190320	163808
51	183600	149744
52	206464	180848
53	204048	182560
54	206864	187392
55	187440	168480
56	161312	144848
57	177872	157120
58	152512	133488
59	173216	156832
60	165984	145920
61	144576	119920
62	125376	112432
63	109840	95888
64	166768	136272
66	174816	148704
68	168384	150672
70	166720	150880
72	127072	110544
74	129024	108896
76	130880	111392
78	138688	116768
80	117072	97072
82	122544	105104
84	99808	84224
86	106224	97120
88	111536	93728
90	111136	90304
92	86896	71696
94	104256	94800
96	65600	56784
98	78656	64992
100	73312	62432
102	90112	76880
104	69168	62224
106	78816	73136
108	62992	59232
110	65088	61296
112	57376	50272
114	58688	54720
116	51696	48432
118	63008	59136
120	59488	57760
122	45760	44528
124	53968	51632
126	59648	57792
128	72384	70128
132	61632	56464
136	60464	54992
140	42640	41568
144	51744	47728
148	52384	50640
152	49328	45344
156	71728	70272
160	62832	60784
164	53904	53120
168	49168	47968
172	52912	52688
176	72896	72608
180	95696	92560
184	83744	74288
188	43200	40032
192	57152	53552
196	65824	58320
200	43920	40912
204	42080	41920
208	41120	41088
212	40080	40048
216	40304	40160
220	51728	51664
224	64544	64448
228	71648	71536
232	83456	83152
236	100864	100640
240	90944	90800
244	94912	94800
248	93824	93616
252	95296	95104
256	225776	225040
264	240304	240080
272	205808	205568
280	194816	194720
288	215520	215376
296	257120	256816
304	256800	256624
312	294064	293904
320	300400	299920
328	277104	276832
336	216064	215872
344	176080	175152
352	167936	167536
360	124416	124160
368	99632	99456
376	64624	64320
384	46576	46448
392	39456	39200
400	31248	30976
408	13984	13808
416	10720	10576
424	16160	16032
432	31808	31728
440	52688	52688
448	65328	65328
456	66544	66384
464	62608	62528
472	64544	64512
480	68112	68000
488	70144	70032
496	72048	71984
504	72864	72832
512	101552	101520
528	87952	87952
544	126912	126896
560	138192	138112
576	126608	126496
592	127408	127040
608	107984	107808
624	113072	112848
640	155248	155152
656	163648	163504
672	116160	116112
688	107968	107856
704	99152	98976
720	74304	74112
736	70800	70640
752	57808	57728
768	48608	48480
784	42240	42224
800	41216	41120
816	68352	68160
832	80688	80560
848	65872	65856
864	40160	40000
880	33568	33488
896	40624	40560
912	39328	39136
928	38640	38640
944	22112	22096
960	16144	16128
976	25904	25904
992	22272	22144
1008	27872	27568
1024	39232	39008
1056	36320	36128
1088	32848	32832
1120	27952	27680
1152	19568	19472
1184	46304	46144
1216	115488	115472
1248	72144	72144
1280	26528	26528
1312	99920	99760
1344	99744	99712
1376	104256	104256
1408	55040	55024
1440	64784	64624
1472	61936	61920
1504	45280	45232
1536	49312	49312
1568	56144	56144
1600	54592	54576
1632	49936	49936
1664	40688	40672
1696	30832	30832
1728	25568	25552
1760	23920	23920
1792	86176	86144
1824	103984	103984
1856	17200	17168
1888	8896	8896
1920	3392	3376
1952	18256	18256
1984	17632	17616
2016	23104	23104
2048	5600	5504
2112	1552	1520
2176	1136	992
2240	976	928
2304	2528	2416
2368	2448	2400
2432	3824	3776
2496	12464	12320
2560	70944	70848
2624	100848	100848
2688	494288	494192
2752	109568	109552
2816	41632	41520
2880	65440	65440
2944	87152	87152
3008	99520	99520
3072	37040	37040
3136	9408	9312
3200	3632	3520
3264	3936	3680
3328	1904	1664
3392	4208	3648
3456	16976	11904
3520	43104	42464
3584	31424	28448
3648	52480	52464
3712	50592	50560
3776	22896	22896
3840	12080	12080
3904	11152	11136
3968	6832	6832
4032	342560	342512
4096	711296	711216
4224	110336	110144
4352	66400	65536
4480	79824	76720
4608	235088	232464
4736	11504	9888
4864	7408	6432
4992	4464	4272
5120	6736	6736
5248	10896	10896
5376	6848	5824
5504	9600	6992
5632	6672	5648
5760	11200	11184
5888	5008	4640
6016	6240	6128
6144	9984	9984
6272	6032	6016
6400	7472	7376
6528	5488	5472
6656	11872	11808
6784	7456	7440
6912	7792	7760
7040	12592	12336
7168	12928	11760
7296	21504	20400
7424	17264	14416
7552	15792	15168
7680	12912	12208
7808	12896	12272
7936	13968	13328
8064	17328	16384
8192	33776	32928
8448	81952	80736
8704	86528	84272
8960	44272	42048
9216	36896	34272
9472	73376	71776
9728	51792	49760
9984	46704	44256
10240	39920	38128
10496	36128	34240
10752	38592	36944
11008	35664	33792
11264	37920	35632
11520	37824	35840
11776	41360	38912
12032	38688	35568
12288	39904	36576
12544	39168	35824
12800	40048	37200
13056	34944	32048
13312	44176	41232
13568	26832	23792
13824	27680	24800
14080	26672	23824
14336	26192	23632
14592	28176	25360
14848	26656	22880
15104	31184	26672
15360	28128	23568
15616	24976	21520
15872	24624	21312
16128	24288	20464
16384	40400	33808
16896	39920	30720
17408	73600	44016
17920	75888	53680
18432	48448	33840
18944	34720	25360
19456	30032	18336
19968	28624	15168
20480	29152	15744
20992	28096	15136
21504	28000	15344
22016	32064	18528
22528	35216	18368
23040	38112	18592
23552	36800	18720
24064	32688	18176
24576	29984	16704
25088	31536	17456
25600	31072	17632
26112	29328	17104
26624	27552	16544
27136	29056	18080
27648	28592	19056
28160	25216	16224
28672	23136	16416
29184	21440	15648
29696	20480	15424
30208	20096	15168
30720	20816	15808
31232	20608	15488
31744	19632	14368
32256	20304	15504
32768	42320	32160
33792	41264	31280
34816	41920	32160
35840	38144	27696
36864	34512	26192
37888	58176	51200
38912	30560	23680
39936	87728	80976
40960	31232	24784
41984	191680	184624
43008	151056	144912
44032	308000	301072
45056	28144	21408
46080	26624	20032
47104	25008	19024
48128	31632	26192
49152	29280	23664
50176	80032	75232
51200	22992	17904
52224	28400	23680
53248	20560	15872
54272	19552	15968
55296	19712	15424
56320	18576	14480
57344	17280	13200
58368	18320	14160
59392	16800	12544
60416	17264	13120
61440	16320	12224
62464	16768	12768
63488	15696	12000
64512	18352	13456
65536	47008	27280
67584	54496	27440
69632	54672	27088
71680	71776	39984
73728	65504	38832
75776	64048	45424
77824	155472	145008
79872	102224	95072
81920	135904	128096
83968	159776	153984
86016	158864	154624
88064	75920	71232
90112	23488	19184
92160	20448	16000
94208	21600	17616
96256	249712	240592
98304	22208	17664
100352	22112	17456
102400	21264	16800
104448	20032	15776
106496	20512	16160
108544	20016	15744
110592	20256	16128
112640	20624	16416
114688	19408	15280
116736	18496	14416
118784	17200	14528
120832	16560	14384
122880	16528	14176
124928	14464	10528
126976	11936	7264
129024	8704	6240
131072	12720	9504
135168	83744	14464
139264	99456	62624
143360	77376	76800
147456	8000	7520
151552	4864	4272
155648	5440	4528
159744	3056	2544
163840	960	448
167936	1152	656
172032	4288	2800
176128	39568	3504
180224	45776	400
184320	26496	1136
188416	3072	2208
192512	19664	19184
196608	9680	9104
200704	944	432
204800	928	432
208896	896	416
212992	992	464
217088	912	448
221184	976	496
225280	912	448
229376	976	528
233472	1008	544
237568	816	320
241664	784	352
245760	752	304
249856	864	368
253952	544	320
258048	464	432
262144	1744	1744
270336	1648	1648
278528	1312	1280
286720	1664	1664
294912	1520	1504
303104	1744	1728
311296	2176	2160
319488	1680	1648
327680	1504	1488
335872	1696	1680
344064	1712	1680
352256	1888	1856
360448	1632	1616
368640	1664	1664
376832	1680	1664
385024	1760	1744
393216	1904	1904
401408	1728	1728
409600	1888	1888
417792	1616	1616
425984	1536	1520
434176	1440	1424
442368	1936	1920
450560	1664	1648
458752	1552	1488
466944	1904	1872
475136	1552	1552
483328	1664	1664
491520	1568	1568
499712	1920	1904
507904	1520	1520
516096	1664	1664
524288	3008	2976
540672	3456	3456
557056	3312	3296
573440	5200	5168
589824	4640	4592
606208	4864	4832
622592	4256	4224
638976	4480	4448
655360	4496	4496
671744	4704	4704
688128	5584	5552
704512	3456	3424
720896	2352	2320
737280	2640	2640
753664	2256	2224
770048	2640	2640
786432	3120	3104
802816	2240	2240
819200	2944	2912
835584	2288	2256
851968	3120	3104
868352	2608	2608
884736	2496	2496
901120	3104	3024
917504	2784	2784
933888	2272	2240
950272	2640	2624
966656	3024	2992
983040	3408	3344
999424	2768	2752
1015808	2752	2752
1032192	3136	3072
1048576	8672	8656
1081344	8144	8080
1114112	7392	7344
1146880	8016	7984
1179648	6880	6832
1212416	6720	6672
1245184	8464	8448
1277952	8880	8816
1310720	11648	8544
1343488	13792	8912
1376256	12624	8592
1409024	12800	8912
1441792	12752	8512
1474560	12944	8464
1507328	12752	8304
1540096	9728	9696
1572864	9696	9232
1605632	8976	8448
1638400	8704	8496
1671168	10496	10000
1703936	11184	10736
1736704	11072	10176
1769472	9488	9040
1802240	9680	9248
1835008	10144	9824
1867776	9712	9232
1900544	9968	9584
1933312	11104	10736
1966080	10288	10032
1998848	10720	10272
2031616	9200	8800
2064384	10064	9584
2097152	24144	23264
2162688	21360	20656
2228224	22512	21488
2293760	23072	22496
2359296	36528	35744
2424832	28016	27088
2490368	16512	15536
2555904	16000	15216
2621440	18624	17808
2686976	20128	19280
2752512	19200	18352
2818048	16992	16160
2883584	17424	16704
2949120	17312	16544
3014656	17968	17264
3080192	29776	28976
3145728	29184	28480
3211264	17712	17152
3276800	12800	11968
3342336	13248	12416
3407872	13280	12544
3473408	16464	15600
3538944	18032	17248
3604480	16544	15824
3670016	18496	17648
3735552	18064	17552
3801088	18080	17296
3866624	19760	19008
3932160	16880	16096
3997696	18512	17424
4063232	18976	17984
4128768	19040	17920
4194304	36912	35008
4325376	40944	40080
4456448	35328	34896
4587520	43808	43456
4718592	46784	46384
4849664	49424	48976
4980736	57632	57184
5111808	52272	51776
5242880	44608	44176
5373952	34336	33888
5505024	26064	25760
5636096	25504	25232
5767168	26368	25968
5898240	24320	24112
6029312	20240	19840
6160384	26736	24304
6291456	35968	34208
6422528	32848	31056
6553600	27584	25584
6684672	26400	24672
6815744	25232	23744
6946816	21744	20080
7077888	22832	21040
7208960	22576	20592
7340032	22368	20656
7471104	22000	20464
7602176	22176	20384
7733248	25696	24096
7864320	27360	25600
7995392	29312	26032
8126464	28384	26624
8257536	27664	25824
8388608	58464	54656
8650752	58112	54864
8912896	51984	50144
9175040	48928	48304
9437184	49504	48272
9699328	53456	52384
9961472	52128	50896
10223616	58624	57728
10485760	72912	71568
10747904	87888	86048
11010048	86464	84912
11272192	107776	106544
11534336	84080	83008
11796480	75888	74384
12058624	64784	64656
12320768	63776	63776
12582912	74912	74880
12845056	52576	51712
13107200	50960	50960
13369344	53968	53968
13631488	53168	53168
13893632	53152	53152
14155776	52928	52928
14417920	59648	59648
14680064	97248	96096
14942208	54272	54272
15204352	55312	55312
15466496	50272	50272
15728640	54528	54528
15990784	52272	51984
16252928	52544	52544
16515072	51440	51440
16777216	103472	103472
17301504	106576	106576
17825792	97392	97376
18350080	56640	56640
18874368	55344	55344
19398656	46192	46192
19922944	43552	43536
20447232	41168	41168
20971520	39312	39312
21495808	35200	35200
22020096	38160	38160
22544384	42832	42832
23068672	43424	43424
23592960	37808	37808
24117248	27024	27024
24641536	25840	25840
25165824	25536	25536
25690112	20848	20848
26214400	19392	19392
26738688	19584	19584
27262976	21360	21360
27787264	17552	17536
28311552	14624	14624
28835840	27712	27696
29360128	25456	25440
29884416	12720	12704
30408704	17392	17376
30932992	45104	45088
31457280	51632	51600
31981568	17952	17920
32505856	19520	19456
33030144	39008	38848
33554432	35024	34272
34603008	34384	31568
35651584	39616	36720
36700160	41024	38416
37748736	37904	34768
38797312	40528	37776
39845888	41040	38000
40894464	37920	35120
41943040	51152	48576
42991616	88272	85664
44040192	90416	87488
45088768	77104	66912
46137344	82976	65648
47185920	101280	65184
48234496	71744	34688
49283072	59120	14752
50331648	57200	13904
51380224	60112	16944
52428800	67840	23936
53477376	67408	31632
54525952	51376	29520
55574528	48448	30176
56623104	36736	25712
57671680	32400	28656
58720256	42320	38368
59768832	42784	38144
60817408	42160	38368
61865984	45024	40096
62914560	42912	39168
63963136	41872	38016
65011712	45664	42064
66060288	29792	26064
67108864	43344	36464
69206016	55536	55392
71303168	35248	34960
73400320	24896	24704
75497472	1550336	1547088
77594624	313360	311872
79691776	31680	31680
81788928	6384	6384
83886080	6848	6848
85983232	5424	5424
88080384	1280	1280
90177536	0	0
92274688	0	0
94371840	0	0
96468992	0	0
98566144	0	0
100663296	0	0
102760448	0	0
104857600	0	0
106954752	0	0
109051904	0	0
111149056	0	0
113246208	0	0
115343360	0	0
117440512	0	0
119537664	0	0
121634816	0	0
123731968	0	0
125829120	0	0
127926272	0	0
130023424	0	0
132120576	0	0
134217728	0	0
138412032	0	0
142606336	0	0
146800640	0	0
150994944	0	0
155189248	0	0
159383552	0	0
163577856	0	0
167772160	0	0
171966464	0	0
176160768	0	0
180355072	0	0
184549376	0	0
188743680	0	0
192937984	0	0
197132288	0	0
201326592	0	0
205520896	0	0
209715200	0	0
213909504	0	0
218103808	0	0
222298112	0	0
226492416	0	0
230686720	0	0
234881024	0	0
239075328	0	0
243269632	0	0
247463936	0	0
251658240	0	0
255852544	0	0
260046848	0	0
264241152	0	0
268435456	0	0
276824064	0	0
285212672	2576	2576
293601280	0	0
301989888	0	0
310378496	0	0
318767104	32416	30400
327155712	1360	1360
335544320	1744	1744
343932928	0	0
352321536	1040	0
360710144	27344	0
369098752	0	0
377487360	0	0
385875968	0	0
394264576	0	0
402653184	0	0
411041792	0	0
419430400	0	0
427819008	0	0
436207616	0	0
444596224	0	0
452984832	0	0
461373440	0	0
469762048	0	0
478150656	0	0
486539264	0	0
494927872	0	0
503316480	0	0
511705088	0	0
520093696	0	0
528482304	0	0
536870912	0	0
553648128	0	0
570425344	0	0
587202560	0	0
603979776	0	0
620756992	0	0
637534208	0	0
654311424	0	0
671088640	0	0
687865856	0	0
704643072	0	0
721420288	0	0
738197504	0	0
754974720	0	0
771751936	0	0
788529152	0	0
805306368	0	0
822083584	0	0
838860800	0	0
855638016	0	0
872415232	0	0
889192448	0	0
905969664	0	0
922746880	0	0
939524096	0	0
956301312	0	0
973078528	0	0
989855744	0	0
1006632960	0	0
1023410176	0	0
1040187392	0	0
1056964608	0	0
1073741824	0	0
1107296256	0	0
1140850688	0	0
1174405120	0	0
1207959552	0	0
1241513984	0	0
1275068416	0	0
1308622848	0	0
1342177280	0	0
1375731712	0	0
1409286144	0	0
1442840576	0	0
1476395008	0	0
1509949440	0	0
1543503872	0	0
1577058304	0	0
1610612736	0	0
1644167168	0	0
1677721600	0	0
1711276032	0	0
1744830464	0	0
1778384896	0	0
1811939328	0	0
1845493760	0	0
1879048192	0	0
1912602624	0	0
1946157056	0	0
1979711488	0	0
2013265920	0	0
2046820352	0	0
2080374784	0	0
2113929216	0	0
2147483648	0	0
2214592512	0	0
2281701376	0	0
2348810240	0	0
2415919104	0	0
2483027968	0	0
2550136832	0	0
2617245696	0	0
2684354560	0	0
2751463424	0	0
2818572288	0	0
2885681152	0	0
2952790016	0	0
3019898880	0	0
3087007744	0	0
3154116608	0	0
3221225472	0	0
3288334336	0	0
3355443200	0	0
3422552064	0	0
3489660928	0	0
3556769792	0	0
3623878656	0	0
3690987520	0	0
3758096384	0	0
3825205248	0	0
3892314112	0	0
3959422976	0	0
4026531840	0	0
4093640704	0	0
4160749568	0	0
4227858432	0	0
~~~~~~~~~~Reuse Distance Profiler output end~~~~~~~~~~

Sampler size:103803

DRAM Statistics
 CHANNEL 0
 RQ ROW_BUFFER_HIT:     575126  ROW_BUFFER_MISS:    7674851
 DBUS AVG_CONGESTED_CYCLE:    3.95265
 WQ ROW_BUFFER_HIT:     291085  ROW_BUFFER_MISS:    2537280  FULL:      75171


CPU 0 Branch Prediction Accuracy: 98.4998% MPKI: 0.701472 Average ROB Occupancy at Mispredict: 308.452
Branch type MPKI
BRANCH_DIRECT_JUMP: 0.000124667
BRANCH_INDIRECT: 0
BRANCH_CONDITIONAL: 0.701244
BRANCH_DIRECT_CALL: 5.2e-05
BRANCH_INDIRECT_CALL: 0
BRANCH_RETURN: 5.13333e-05

