
*** ChampSim Multicore Out-of-Order Simulator ***

Warmup Instructions: 50000000
Simulation Instructions: 1500000000
Number of CPUs: 1
Off-chip DRAM Size: 4 GiB Channels: 1 Width: 64-bit Data Rate: 3200 MT/s

VirtualMemory physical capacity: 8588881920 num_ppages: 2096895
VirtualMemory page size: 4096 log2_page_size: 12

CPU 0 runs /s/traces/champsim_traces/482.sphinx3-1100B.champsimtrace.xz
CPU 0 Bimodal branch predictor
Basic BTB sets: 1024 ways: 8 indirect buffer size: 4096 RAS size: 64
Initializing LRU.
Initializing LRU.
Initializing LRU.
Initializing LRU.
Initializing rdLRU.
Initializing LRU.
Heartbeat CPU 0 instructions: 2000001 cycles: 504691 heartbeat IPC: 3.96282 cumulative IPC: 3.96282 (Simulation time: 0 hr 0 min 44 sec) 
Heartbeat CPU 0 instructions: 4000003 cycles: 1024520 heartbeat IPC: 3.84742 cumulative IPC: 3.90427 (Simulation time: 0 hr 1 min 35 sec) 
Heartbeat CPU 0 instructions: 6000001 cycles: 1549540 heartbeat IPC: 3.80937 cumulative IPC: 3.87212 (Simulation time: 0 hr 2 min 23 sec) 
Heartbeat CPU 0 instructions: 8000004 cycles: 2058653 heartbeat IPC: 3.92841 cumulative IPC: 3.88604 (Simulation time: 0 hr 3 min 14 sec) 
Heartbeat CPU 0 instructions: 10000000 cycles: 2592009 heartbeat IPC: 3.74983 cumulative IPC: 3.85801 (Simulation time: 0 hr 4 min 8 sec) 
Heartbeat CPU 0 instructions: 12000001 cycles: 3098760 heartbeat IPC: 3.94671 cumulative IPC: 3.87252 (Simulation time: 0 hr 4 min 53 sec) 
Heartbeat CPU 0 instructions: 14000001 cycles: 3612222 heartbeat IPC: 3.89513 cumulative IPC: 3.87573 (Simulation time: 0 hr 5 min 46 sec) 
Heartbeat CPU 0 instructions: 16000001 cycles: 4149229 heartbeat IPC: 3.72435 cumulative IPC: 3.85614 (Simulation time: 0 hr 6 min 36 sec) 
Heartbeat CPU 0 instructions: 18000002 cycles: 4653019 heartbeat IPC: 3.96991 cumulative IPC: 3.86846 (Simulation time: 0 hr 7 min 22 sec) 
Heartbeat CPU 0 instructions: 20000003 cycles: 5169125 heartbeat IPC: 3.87517 cumulative IPC: 3.86913 (Simulation time: 0 hr 8 min 16 sec) 
Heartbeat CPU 0 instructions: 22000001 cycles: 5699137 heartbeat IPC: 3.7735 cumulative IPC: 3.86023 (Simulation time: 0 hr 9 min 7 sec) 
Heartbeat CPU 0 instructions: 24000003 cycles: 6207396 heartbeat IPC: 3.93501 cumulative IPC: 3.86636 (Simulation time: 0 hr 9 min 53 sec) 
Heartbeat CPU 0 instructions: 26000003 cycles: 6726796 heartbeat IPC: 3.8506 cumulative IPC: 3.86514 (Simulation time: 0 hr 10 min 47 sec) 
Heartbeat CPU 0 instructions: 28000002 cycles: 7249278 heartbeat IPC: 3.82788 cumulative IPC: 3.86245 (Simulation time: 0 hr 11 min 33 sec) 
Heartbeat CPU 0 instructions: 30000004 cycles: 7762418 heartbeat IPC: 3.89758 cumulative IPC: 3.86478 (Simulation time: 0 hr 12 min 24 sec) 
Heartbeat CPU 0 instructions: 32000001 cycles: 8284057 heartbeat IPC: 3.83406 cumulative IPC: 3.86284 (Simulation time: 0 hr 13 min 17 sec) 
Heartbeat CPU 0 instructions: 34000002 cycles: 8806684 heartbeat IPC: 3.82682 cumulative IPC: 3.8607 (Simulation time: 0 hr 14 min 4 sec) 
Heartbeat CPU 0 instructions: 36000004 cycles: 9319229 heartbeat IPC: 3.9021 cumulative IPC: 3.86298 (Simulation time: 0 hr 14 min 55 sec) 
Heartbeat CPU 0 instructions: 38000002 cycles: 9842543 heartbeat IPC: 3.82179 cumulative IPC: 3.86079 (Simulation time: 0 hr 15 min 50 sec) 
Heartbeat CPU 0 instructions: 40000000 cycles: 10365179 heartbeat IPC: 3.82675 cumulative IPC: 3.85907 (Simulation time: 0 hr 16 min 36 sec) 
Heartbeat CPU 0 instructions: 42000003 cycles: 10876993 heartbeat IPC: 3.90768 cumulative IPC: 3.86136 (Simulation time: 0 hr 17 min 28 sec) 
Heartbeat CPU 0 instructions: 44000002 cycles: 11400525 heartbeat IPC: 3.8202 cumulative IPC: 3.85947 (Simulation time: 0 hr 18 min 22 sec) 
Heartbeat CPU 0 instructions: 46000000 cycles: 11923137 heartbeat IPC: 3.82693 cumulative IPC: 3.85805 (Simulation time: 0 hr 19 min 8 sec) 
Heartbeat CPU 0 instructions: 48000003 cycles: 12434369 heartbeat IPC: 3.91212 cumulative IPC: 3.86027 (Simulation time: 0 hr 20 min 0 sec) 
Heartbeat CPU 0 instructions: 50000004 cycles: 12963353 heartbeat IPC: 3.78083 cumulative IPC: 3.85703 (Simulation time: 0 hr 20 min 51 sec) 

Warmup complete CPU 0 instructions: 50000004 cycles: 12963353 (Simulation time: 0 hr 20 min 51 sec) 

Heartbeat CPU 0 instructions: 52000000 cycles: 14873059 heartbeat IPC: 1.04728 cumulative IPC: 1.04728 (Simulation time: 0 hr 22 min 31 sec) 

Region of Interest Statistics
cpu0_DTLB TOTAL     ACCESS:     343478  HIT:     342666  MISS:        812
cpu0_DTLB LOAD      ACCESS:     305299  HIT:     304601  MISS:        698
cpu0_DTLB RFO       ACCESS:      38179  HIT:      38065  MISS:        114
cpu0_DTLB PREFETCH  ACCESS:          0  HIT:          0  MISS:          0
cpu0_DTLB WRITEBACK ACCESS:          0  HIT:          0  MISS:          0
cpu0_ITLB TOTAL     ACCESS:     166052  HIT:     166050  MISS:          2
cpu0_ITLB LOAD      ACCESS:     166052  HIT:     166050  MISS:          2
cpu0_ITLB RFO       ACCESS:          0  HIT:          0  MISS:          0
cpu0_ITLB PREFETCH  ACCESS:          0  HIT:          0  MISS:          0
cpu0_ITLB WRITEBACK ACCESS:          0  HIT:          0  MISS:          0
cpu0_L1I TOTAL     ACCESS:       9730  HIT:       9663  MISS:         67
cpu0_L1I LOAD      ACCESS:       9730  HIT:       9663  MISS:         67
cpu0_L1I RFO       ACCESS:          0  HIT:          0  MISS:          0
cpu0_L1I PREFETCH  ACCESS:          0  HIT:          0  MISS:          0
cpu0_L1I WRITEBACK ACCESS:          0  HIT:          0  MISS:          0
cpu0_STLB TOTAL     ACCESS:        814  HIT:        510  MISS:        304
cpu0_STLB LOAD      ACCESS:        700  HIT:        428  MISS:        272
cpu0_STLB RFO       ACCESS:        114  HIT:         82  MISS:         32
cpu0_STLB PREFETCH  ACCESS:          0  HIT:          0  MISS:          0
cpu0_STLB WRITEBACK ACCESS:          0  HIT:          0  MISS:          0
cpu0_L1D TOTAL     ACCESS:     263352  HIT:     239442  MISS:      23910
cpu0_L1D LOAD      ACCESS:     197499  HIT:     176962  MISS:      20537
cpu0_L1D RFO       ACCESS:      65557  HIT:      62196  MISS:       3361
cpu0_L1D PREFETCH  ACCESS:          0  HIT:          0  MISS:          0
cpu0_L1D WRITEBACK ACCESS:          0  HIT:          0  MISS:          0
cpu0_L2C TOTAL     ACCESS:      27830  HIT:       7065  MISS:      20765
cpu0_L2C LOAD      ACCESS:      20604  HIT:       2676  MISS:      17928
cpu0_L2C RFO       ACCESS:       3360  HIT:        529  MISS:       2831
cpu0_L2C PREFETCH  ACCESS:          0  HIT:          0  MISS:          0
cpu0_L2C WRITEBACK ACCESS:       3854  HIT:       3850  MISS:          4
LLC TOTAL     ACCESS:      25796  HIT:       5917  MISS:      19879
LLC LOAD      ACCESS:      17928  HIT:       2776  MISS:      15152
LLC RFO       ACCESS:       2831  HIT:        897  MISS:       1934
LLC PREFETCH  ACCESS:          0  HIT:          0  MISS:          0
LLC WRITEBACK ACCESS:       5035  HIT:       2244  MISS:       2791
Heartbeat CPU 0 instructions: 54000002 cycles: 17069272 heartbeat IPC: 0.910659 cumulative IPC: 0.974203 (Simulation time: 0 hr 24 min 10 sec) 

Region of Interest Statistics
cpu0_DTLB TOTAL     ACCESS:     684448  HIT:     682365  MISS:       2083
cpu0_DTLB LOAD      ACCESS:     630490  HIT:     628552  MISS:       1938
cpu0_DTLB RFO       ACCESS:      53958  HIT:      53813  MISS:        145
cpu0_DTLB PREFETCH  ACCESS:          0  HIT:          0  MISS:          0
cpu0_DTLB WRITEBACK ACCESS:          0  HIT:          0  MISS:          0
cpu0_ITLB TOTAL     ACCESS:     344775  HIT:     344773  MISS:          2
cpu0_ITLB LOAD      ACCESS:     344775  HIT:     344773  MISS:          2
cpu0_ITLB RFO       ACCESS:          0  HIT:          0  MISS:          0
cpu0_ITLB PREFETCH  ACCESS:          0  HIT:          0  MISS:          0
cpu0_ITLB WRITEBACK ACCESS:          0  HIT:          0  MISS:          0
cpu0_L1I TOTAL     ACCESS:       9730  HIT:       9663  MISS:         67
cpu0_L1I LOAD      ACCESS:       9730  HIT:       9663  MISS:         67
cpu0_L1I RFO       ACCESS:          0  HIT:          0  MISS:          0
cpu0_L1I PREFETCH  ACCESS:          0  HIT:          0  MISS:          0
cpu0_L1I WRITEBACK ACCESS:          0  HIT:          0  MISS:          0
cpu0_STLB TOTAL     ACCESS:       2085  HIT:       1139  MISS:        946
cpu0_STLB LOAD      ACCESS:       1940  HIT:       1027  MISS:        913
cpu0_STLB RFO       ACCESS:        145  HIT:        112  MISS:         33
cpu0_STLB PREFETCH  ACCESS:          0  HIT:          0  MISS:          0
cpu0_STLB WRITEBACK ACCESS:          0  HIT:          0  MISS:          0
cpu0_L1D TOTAL     ACCESS:     488436  HIT:     436732  MISS:      51704
cpu0_L1D LOAD      ACCESS:     398353  HIT:     350627  MISS:      47726
cpu0_L1D RFO       ACCESS:      89164  HIT:      85216  MISS:       3948
cpu0_L1D PREFETCH  ACCESS:          0  HIT:          0  MISS:          0
cpu0_L1D WRITEBACK ACCESS:          0  HIT:          0  MISS:          0
cpu0_L2C TOTAL     ACCESS:      56240  HIT:      10230  MISS:      46010
cpu0_L2C LOAD      ACCESS:      47793  HIT:       5212  MISS:      42581
cpu0_L2C RFO       ACCESS:       3947  HIT:        529  MISS:       3418
cpu0_L2C PREFETCH  ACCESS:          0  HIT:          0  MISS:          0
cpu0_L2C WRITEBACK ACCESS:       4470  HIT:       4465  MISS:          5
LLC TOTAL     ACCESS:      51841  HIT:      14963  MISS:      36878
LLC LOAD      ACCESS:      42581  HIT:      10680  MISS:      31901
LLC RFO       ACCESS:       3418  HIT:       1415  MISS:       2003
LLC PREFETCH  ACCESS:          0  HIT:          0  MISS:          0
LLC WRITEBACK ACCESS:       5836  HIT:       2866  MISS:       2970
Heartbeat CPU 0 instructions: 56000001 cycles: 19851852 heartbeat IPC: 0.718757 cumulative IPC: 0.871017 (Simulation time: 0 hr 26 min 1 sec) 

Region of Interest Statistics
cpu0_DTLB TOTAL     ACCESS:    1053096  HIT:    1047839  MISS:       5257
cpu0_DTLB LOAD      ACCESS:     978418  HIT:     973404  MISS:       5014
cpu0_DTLB RFO       ACCESS:      74678  HIT:      74435  MISS:        243
cpu0_DTLB PREFETCH  ACCESS:          0  HIT:          0  MISS:          0
cpu0_DTLB WRITEBACK ACCESS:          0  HIT:          0  MISS:          0
cpu0_ITLB TOTAL     ACCESS:     509190  HIT:     509188  MISS:          2
cpu0_ITLB LOAD      ACCESS:     509190  HIT:     509188  MISS:          2
cpu0_ITLB RFO       ACCESS:          0  HIT:          0  MISS:          0
cpu0_ITLB PREFETCH  ACCESS:          0  HIT:          0  MISS:          0
cpu0_ITLB WRITEBACK ACCESS:          0  HIT:          0  MISS:          0
cpu0_L1I TOTAL     ACCESS:       9730  HIT:       9663  MISS:         67
cpu0_L1I LOAD      ACCESS:       9730  HIT:       9663  MISS:         67
cpu0_L1I RFO       ACCESS:          0  HIT:          0  MISS:          0
cpu0_L1I PREFETCH  ACCESS:          0  HIT:          0  MISS:          0
cpu0_L1I WRITEBACK ACCESS:          0  HIT:          0  MISS:          0
cpu0_STLB TOTAL     ACCESS:       5259  HIT:       3321  MISS:       1938
cpu0_STLB LOAD      ACCESS:       5016  HIT:       3119  MISS:       1897
cpu0_STLB RFO       ACCESS:        243  HIT:        202  MISS:         41
cpu0_STLB PREFETCH  ACCESS:          0  HIT:          0  MISS:          0
cpu0_STLB WRITEBACK ACCESS:          0  HIT:          0  MISS:          0
cpu0_L1D TOTAL     ACCESS:     721632  HIT:     640810  MISS:      80822
cpu0_L1D LOAD      ACCESS:     595677  HIT:     519241  MISS:      76436
cpu0_L1D RFO       ACCESS:     124092  HIT:     119764  MISS:       4328
cpu0_L1D PREFETCH  ACCESS:          0  HIT:          0  MISS:          0
cpu0_L1D WRITEBACK ACCESS:          0  HIT:          0  MISS:          0
cpu0_L2C TOTAL     ACCESS:      85723  HIT:      16521  MISS:      69202
cpu0_L2C LOAD      ACCESS:      76503  HIT:      11111  MISS:      65392
cpu0_L2C RFO       ACCESS:       4327  HIT:        529  MISS:       3798
cpu0_L2C PREFETCH  ACCESS:          0  HIT:          0  MISS:          0
cpu0_L2C WRITEBACK ACCESS:       4835  HIT:       4830  MISS:          5
LLC TOTAL     ACCESS:      75399  HIT:      18557  MISS:      56842
LLC LOAD      ACCESS:      65392  HIT:      13656  MISS:      51736
LLC RFO       ACCESS:       3798  HIT:       1672  MISS:       2126
LLC PREFETCH  ACCESS:          0  HIT:          0  MISS:          0
LLC WRITEBACK ACCESS:       6202  HIT:       3226  MISS:       2976
Heartbeat CPU 0 instructions: 58000002 cycles: 22119600 heartbeat IPC: 0.881933 cumulative IPC: 0.87372 (Simulation time: 0 hr 27 min 49 sec) 

Region of Interest Statistics
cpu0_DTLB TOTAL     ACCESS:    1406036  HIT:    1398430  MISS:       7606
cpu0_DTLB LOAD      ACCESS:    1307942  HIT:    1300844  MISS:       7098
cpu0_DTLB RFO       ACCESS:      98094  HIT:      97586  MISS:        508
cpu0_DTLB PREFETCH  ACCESS:          0  HIT:          0  MISS:          0
cpu0_DTLB WRITEBACK ACCESS:          0  HIT:          0  MISS:          0
cpu0_ITLB TOTAL     ACCESS:     687337  HIT:     687335  MISS:          2
cpu0_ITLB LOAD      ACCESS:     687337  HIT:     687335  MISS:          2
cpu0_ITLB RFO       ACCESS:          0  HIT:          0  MISS:          0
cpu0_ITLB PREFETCH  ACCESS:          0  HIT:          0  MISS:          0
cpu0_ITLB WRITEBACK ACCESS:          0  HIT:          0  MISS:          0
cpu0_L1I TOTAL     ACCESS:      13024  HIT:      12952  MISS:         72
cpu0_L1I LOAD      ACCESS:      13024  HIT:      12952  MISS:         72
cpu0_L1I RFO       ACCESS:          0  HIT:          0  MISS:          0
cpu0_L1I PREFETCH  ACCESS:          0  HIT:          0  MISS:          0
cpu0_L1I WRITEBACK ACCESS:          0  HIT:          0  MISS:          0
cpu0_STLB TOTAL     ACCESS:       7608  HIT:       4935  MISS:       2673
cpu0_STLB LOAD      ACCESS:       7100  HIT:       4517  MISS:       2583
cpu0_STLB RFO       ACCESS:        508  HIT:        418  MISS:         90
cpu0_STLB PREFETCH  ACCESS:          0  HIT:          0  MISS:          0
cpu0_STLB WRITEBACK ACCESS:          0  HIT:          0  MISS:          0
cpu0_L1D TOTAL     ACCESS:     947783  HIT:     835237  MISS:     112546
cpu0_L1D LOAD      ACCESS:     791468  HIT:     686690  MISS:     104778
cpu0_L1D RFO       ACCESS:     153728  HIT:     146035  MISS:       7693
cpu0_L1D PREFETCH  ACCESS:          0  HIT:          0  MISS:          0
cpu0_L1D WRITEBACK ACCESS:          0  HIT:          0  MISS:          0
cpu0_L2C TOTAL     ACCESS:     123290  HIT:      28056  MISS:      95234
cpu0_L2C LOAD      ACCESS:     104850  HIT:      16418  MISS:      88432
cpu0_L2C RFO       ACCESS:       7691  HIT:        919  MISS:       6772
cpu0_L2C PREFETCH  ACCESS:          0  HIT:          0  MISS:          0
cpu0_L2C WRITEBACK ACCESS:      10674  HIT:      10656  MISS:         18
LLC TOTAL     ACCESS:     105967  HIT:      26161  MISS:      79806
LLC LOAD      ACCESS:      88432  HIT:      18308  MISS:      70124
LLC RFO       ACCESS:       6772  HIT:       2665  MISS:       4107
LLC PREFETCH  ACCESS:          0  HIT:          0  MISS:          0
LLC WRITEBACK ACCESS:      10751  HIT:       5183  MISS:       5568
Heartbeat CPU 0 instructions: 60000001 cycles: 24301698 heartbeat IPC: 0.916549 cumulative IPC: 0.881963 (Simulation time: 0 hr 29 min 28 sec) 

Region of Interest Statistics
cpu0_DTLB TOTAL     ACCESS:    1747409  HIT:    1738573  MISS:       8836
cpu0_DTLB LOAD      ACCESS:    1633760  HIT:    1625456  MISS:       8304
cpu0_DTLB RFO       ACCESS:     113649  HIT:     113117  MISS:        532
cpu0_DTLB PREFETCH  ACCESS:          0  HIT:          0  MISS:          0
cpu0_DTLB WRITEBACK ACCESS:          0  HIT:          0  MISS:          0
cpu0_ITLB TOTAL     ACCESS:     867463  HIT:     867461  MISS:          2
cpu0_ITLB LOAD      ACCESS:     867463  HIT:     867461  MISS:          2
cpu0_ITLB RFO       ACCESS:          0  HIT:          0  MISS:          0
cpu0_ITLB PREFETCH  ACCESS:          0  HIT:          0  MISS:          0
cpu0_ITLB WRITEBACK ACCESS:          0  HIT:          0  MISS:          0
cpu0_L1I TOTAL     ACCESS:      13024  HIT:      12952  MISS:         72
cpu0_L1I LOAD      ACCESS:      13024  HIT:      12952  MISS:         72
cpu0_L1I RFO       ACCESS:          0  HIT:          0  MISS:          0
cpu0_L1I PREFETCH  ACCESS:          0  HIT:          0  MISS:          0
cpu0_L1I WRITEBACK ACCESS:          0  HIT:          0  MISS:          0
cpu0_STLB TOTAL     ACCESS:       8838  HIT:       5541  MISS:       3297
cpu0_STLB LOAD      ACCESS:       8306  HIT:       5100  MISS:       3206
cpu0_STLB RFO       ACCESS:        532  HIT:        441  MISS:         91
cpu0_STLB PREFETCH  ACCESS:          0  HIT:          0  MISS:          0
cpu0_STLB WRITEBACK ACCESS:          0  HIT:          0  MISS:          0
cpu0_L1D TOTAL     ACCESS:    1172158  HIT:    1031905  MISS:     140253
cpu0_L1D LOAD      ACCESS:     992921  HIT:     861078  MISS:     131843
cpu0_L1D RFO       ACCESS:     176048  HIT:     167729  MISS:       8319
cpu0_L1D PREFETCH  ACCESS:          0  HIT:          0  MISS:          0
cpu0_L1D WRITEBACK ACCESS:          0  HIT:          0  MISS:          0
cpu0_L2C TOTAL     ACCESS:     151651  HIT:      30985  MISS:     120666
cpu0_L2C LOAD      ACCESS:     131915  HIT:      18682  MISS:     113233
cpu0_L2C RFO       ACCESS:       8317  HIT:        919  MISS:       7398
cpu0_L2C PREFETCH  ACCESS:          0  HIT:          0  MISS:          0
cpu0_L2C WRITEBACK ACCESS:      11328  HIT:      11309  MISS:         19
LLC TOTAL     ACCESS:     132472  HIT:      35112  MISS:      97360
LLC LOAD      ACCESS:     113233  HIT:      25886  MISS:      87347
LLC RFO       ACCESS:       7398  HIT:       3227  MISS:       4171
LLC PREFETCH  ACCESS:          0  HIT:          0  MISS:          0
LLC WRITEBACK ACCESS:      11825  HIT:       5992  MISS:       5833
Heartbeat CPU 0 instructions: 62000002 cycles: 27045704 heartbeat IPC: 0.728862 cumulative IPC: 0.85213 (Simulation time: 0 hr 31 min 20 sec) 

Region of Interest Statistics
cpu0_DTLB TOTAL     ACCESS:    2115929  HIT:    2103985  MISS:      11944
cpu0_DTLB LOAD      ACCESS:    1981646  HIT:    1970324  MISS:      11322
cpu0_DTLB RFO       ACCESS:     134283  HIT:     133661  MISS:        622
cpu0_DTLB PREFETCH  ACCESS:          0  HIT:          0  MISS:          0
cpu0_DTLB WRITEBACK ACCESS:          0  HIT:          0  MISS:          0
cpu0_ITLB TOTAL     ACCESS:    1033004  HIT:    1033002  MISS:          2
cpu0_ITLB LOAD      ACCESS:    1033004  HIT:    1033002  MISS:          2
cpu0_ITLB RFO       ACCESS:          0  HIT:          0  MISS:          0
cpu0_ITLB PREFETCH  ACCESS:          0  HIT:          0  MISS:          0
cpu0_ITLB WRITEBACK ACCESS:          0  HIT:          0  MISS:          0
cpu0_L1I TOTAL     ACCESS:      13024  HIT:      12952  MISS:         72
cpu0_L1I LOAD      ACCESS:      13024  HIT:      12952  MISS:         72
cpu0_L1I RFO       ACCESS:          0  HIT:          0  MISS:          0
cpu0_L1I PREFETCH  ACCESS:          0  HIT:          0  MISS:          0
cpu0_L1I WRITEBACK ACCESS:          0  HIT:          0  MISS:          0
cpu0_STLB TOTAL     ACCESS:      11946  HIT:       7696  MISS:       4250
cpu0_STLB LOAD      ACCESS:      11324  HIT:       7173  MISS:       4151
cpu0_STLB RFO       ACCESS:        622  HIT:        523  MISS:         99
cpu0_STLB PREFETCH  ACCESS:          0  HIT:          0  MISS:          0
cpu0_STLB WRITEBACK ACCESS:          0  HIT:          0  MISS:          0
cpu0_L1D TOTAL     ACCESS:    1405096  HIT:    1235809  MISS:     169287
cpu0_L1D LOAD      ACCESS:    1190071  HIT:    1029577  MISS:     160494
cpu0_L1D RFO       ACCESS:     210930  HIT:     202255  MISS:       8675
cpu0_L1D PREFETCH  ACCESS:          0  HIT:          0  MISS:          0
cpu0_L1D WRITEBACK ACCESS:          0  HIT:          0  MISS:          0
cpu0_L2C TOTAL     ACCESS:     181048  HIT:      37250  MISS:     143798
cpu0_L2C LOAD      ACCESS:     160566  HIT:      24558  MISS:     136008
cpu0_L2C RFO       ACCESS:       8673  HIT:        919  MISS:       7754
cpu0_L2C PREFETCH  ACCESS:          0  HIT:          0  MISS:          0
cpu0_L2C WRITEBACK ACCESS:      11691  HIT:      11672  MISS:         19
LLC TOTAL     ACCESS:     155962  HIT:      39127  MISS:     116835
LLC LOAD      ACCESS:     136009  HIT:      29306  MISS:     106703
LLC RFO       ACCESS:       7754  HIT:       3470  MISS:       4284
LLC PREFETCH  ACCESS:          0  HIT:          0  MISS:          0
LLC WRITEBACK ACCESS:      12182  HIT:       6343  MISS:       5839
Heartbeat CPU 0 instructions: 64000002 cycles: 29282800 heartbeat IPC: 0.894016 cumulative IPC: 0.857872 (Simulation time: 0 hr 33 min 11 sec) 

Region of Interest Statistics
cpu0_DTLB TOTAL     ACCESS:    2472041  HIT:    2457444  MISS:      14597
cpu0_DTLB LOAD      ACCESS:    2313510  HIT:    2299811  MISS:      13699
cpu0_DTLB RFO       ACCESS:     158531  HIT:     157633  MISS:        898
cpu0_DTLB PREFETCH  ACCESS:          0  HIT:          0  MISS:          0
cpu0_DTLB WRITEBACK ACCESS:          0  HIT:          0  MISS:          0
cpu0_ITLB TOTAL     ACCESS:    1209157  HIT:    1209155  MISS:          2
cpu0_ITLB LOAD      ACCESS:    1209157  HIT:    1209155  MISS:          2
cpu0_ITLB RFO       ACCESS:          0  HIT:          0  MISS:          0
cpu0_ITLB PREFETCH  ACCESS:          0  HIT:          0  MISS:          0
cpu0_ITLB WRITEBACK ACCESS:          0  HIT:          0  MISS:          0
cpu0_L1I TOTAL     ACCESS:      16877  HIT:      16805  MISS:         72
cpu0_L1I LOAD      ACCESS:      16877  HIT:      16805  MISS:         72
cpu0_L1I RFO       ACCESS:          0  HIT:          0  MISS:          0
cpu0_L1I PREFETCH  ACCESS:          0  HIT:          0  MISS:          0
cpu0_L1I WRITEBACK ACCESS:          0  HIT:          0  MISS:          0
cpu0_STLB TOTAL     ACCESS:      14599  HIT:       9564  MISS:       5035
cpu0_STLB LOAD      ACCESS:      13701  HIT:       8808  MISS:       4893
cpu0_STLB RFO       ACCESS:        898  HIT:        756  MISS:        142
cpu0_STLB PREFETCH  ACCESS:          0  HIT:          0  MISS:          0
cpu0_STLB WRITEBACK ACCESS:          0  HIT:          0  MISS:          0
cpu0_L1D TOTAL     ACCESS:    1634652  HIT:    1432964  MISS:     201688
cpu0_L1D LOAD      ACCESS:    1387126  HIT:    1197555  MISS:     189571
cpu0_L1D RFO       ACCESS:     242660  HIT:     230683  MISS:      11977
cpu0_L1D PREFETCH  ACCESS:          0  HIT:          0  MISS:          0
cpu0_L1D WRITEBACK ACCESS:          0  HIT:          0  MISS:          0
cpu0_L2C TOTAL     ACCESS:     219367  HIT:      49788  MISS:     169579
cpu0_L2C LOAD      ACCESS:     189643  HIT:      30803  MISS:     158840
cpu0_L2C RFO       ACCESS:      11974  HIT:       1289  MISS:      10685
cpu0_L2C PREFETCH  ACCESS:          0  HIT:          0  MISS:          0
cpu0_L2C WRITEBACK ACCESS:      17610  HIT:      17578  MISS:         32
LLC TOTAL     ACCESS:     185781  HIT:      47084  MISS:     138697
LLC LOAD      ACCESS:     158840  HIT:      34464  MISS:     124376
LLC RFO       ACCESS:      10685  HIT:       4508  MISS:       6177
LLC PREFETCH  ACCESS:          0  HIT:          0  MISS:          0
LLC WRITEBACK ACCESS:      16234  HIT:       8102  MISS:       8132
Heartbeat CPU 0 instructions: 66000003 cycles: 31413549 heartbeat IPC: 0.938638 cumulative IPC: 0.867199 (Simulation time: 0 hr 34 min 47 sec) 

Region of Interest Statistics
cpu0_DTLB TOTAL     ACCESS:    2808149  HIT:    2792537  MISS:      15612
cpu0_DTLB LOAD      ACCESS:    2634964  HIT:    2620268  MISS:      14696
cpu0_DTLB RFO       ACCESS:     173185  HIT:     172269  MISS:        916
cpu0_DTLB PREFETCH  ACCESS:          0  HIT:          0  MISS:          0
cpu0_DTLB WRITEBACK ACCESS:          0  HIT:          0  MISS:          0
cpu0_ITLB TOTAL     ACCESS:    1390761  HIT:    1390759  MISS:          2
cpu0_ITLB LOAD      ACCESS:    1390761  HIT:    1390759  MISS:          2
cpu0_ITLB RFO       ACCESS:          0  HIT:          0  MISS:          0
cpu0_ITLB PREFETCH  ACCESS:          0  HIT:          0  MISS:          0
cpu0_ITLB WRITEBACK ACCESS:          0  HIT:          0  MISS:          0
cpu0_L1I TOTAL     ACCESS:      16877  HIT:      16805  MISS:         72
cpu0_L1I LOAD      ACCESS:      16877  HIT:      16805  MISS:         72
cpu0_L1I RFO       ACCESS:          0  HIT:          0  MISS:          0
cpu0_L1I PREFETCH  ACCESS:          0  HIT:          0  MISS:          0
cpu0_L1I WRITEBACK ACCESS:          0  HIT:          0  MISS:          0
cpu0_STLB TOTAL     ACCESS:      15614  HIT:      10009  MISS:       5605
cpu0_STLB LOAD      ACCESS:      14698  HIT:       9236  MISS:       5462
cpu0_STLB RFO       ACCESS:        916  HIT:        773  MISS:        143
cpu0_STLB PREFETCH  ACCESS:          0  HIT:          0  MISS:          0
cpu0_STLB WRITEBACK ACCESS:          0  HIT:          0  MISS:          0
cpu0_L1D TOTAL     ACCESS:    1857527  HIT:    1628455  MISS:     229072
cpu0_L1D LOAD      ACCESS:    1588941  HIT:    1372660  MISS:     216281
cpu0_L1D RFO       ACCESS:     263172  HIT:     250535  MISS:      12637
cpu0_L1D PREFETCH  ACCESS:          0  HIT:          0  MISS:          0
cpu0_L1D WRITEBACK ACCESS:          0  HIT:          0  MISS:          0
cpu0_L2C TOTAL     ACCESS:     247448  HIT:      52283  MISS:     195165
cpu0_L2C LOAD      ACCESS:     216353  HIT:      32592  MISS:     183761
cpu0_L2C RFO       ACCESS:      12634  HIT:       1289  MISS:      11345
cpu0_L2C PREFETCH  ACCESS:          0  HIT:          0  MISS:          0
cpu0_L2C WRITEBACK ACCESS:      18307  HIT:      18274  MISS:         33
LLC TOTAL     ACCESS:     212986  HIT:      56790  MISS:     156196
LLC LOAD      ACCESS:     183762  HIT:      42586  MISS:     141176
LLC RFO       ACCESS:      11345  HIT:       5119  MISS:       6226
LLC PREFETCH  ACCESS:          0  HIT:          0  MISS:          0
LLC WRITEBACK ACCESS:      17853  HIT:       9074  MISS:       8779
Heartbeat CPU 0 instructions: 68000003 cycles: 34172397 heartbeat IPC: 0.72494 cumulative IPC: 0.848695 (Simulation time: 0 hr 36 min 40 sec) 

Region of Interest Statistics
cpu0_DTLB TOTAL     ACCESS:    3177174  HIT:    3158294  MISS:      18880
cpu0_DTLB LOAD      ACCESS:    2983167  HIT:    2965309  MISS:      17858
cpu0_DTLB RFO       ACCESS:     194007  HIT:     192985  MISS:       1022
cpu0_DTLB PREFETCH  ACCESS:          0  HIT:          0  MISS:          0
cpu0_DTLB WRITEBACK ACCESS:          0  HIT:          0  MISS:          0
cpu0_ITLB TOTAL     ACCESS:    1556112  HIT:    1556110  MISS:          2
cpu0_ITLB LOAD      ACCESS:    1556112  HIT:    1556110  MISS:          2
cpu0_ITLB RFO       ACCESS:          0  HIT:          0  MISS:          0
cpu0_ITLB PREFETCH  ACCESS:          0  HIT:          0  MISS:          0
cpu0_ITLB WRITEBACK ACCESS:          0  HIT:          0  MISS:          0
cpu0_L1I TOTAL     ACCESS:      16877  HIT:      16805  MISS:         72
cpu0_L1I LOAD      ACCESS:      16877  HIT:      16805  MISS:         72
cpu0_L1I RFO       ACCESS:          0  HIT:          0  MISS:          0
cpu0_L1I PREFETCH  ACCESS:          0  HIT:          0  MISS:          0
cpu0_L1I WRITEBACK ACCESS:          0  HIT:          0  MISS:          0
cpu0_STLB TOTAL     ACCESS:      18882  HIT:      12282  MISS:       6600
cpu0_STLB LOAD      ACCESS:      17860  HIT:      11411  MISS:       6449
cpu0_STLB RFO       ACCESS:       1022  HIT:        871  MISS:        151
cpu0_STLB PREFETCH  ACCESS:          0  HIT:          0  MISS:          0
cpu0_STLB WRITEBACK ACCESS:          0  HIT:          0  MISS:          0
cpu0_L1D TOTAL     ACCESS:    2091161  HIT:    1832704  MISS:     258457
cpu0_L1D LOAD      ACCESS:    1786248  HIT:    1540985  MISS:     245263
cpu0_L1D RFO       ACCESS:     298552  HIT:     285541  MISS:      13011
cpu0_L1D PREFETCH  ACCESS:          0  HIT:          0  MISS:          0
cpu0_L1D WRITEBACK ACCESS:          0  HIT:          0  MISS:          0
cpu0_L2C TOTAL     ACCESS:     277195  HIT:      58699  MISS:     218496
cpu0_L2C LOAD      ACCESS:     245335  HIT:      38618  MISS:     206717
cpu0_L2C RFO       ACCESS:      13008  HIT:       1289  MISS:      11719
cpu0_L2C PREFETCH  ACCESS:          0  HIT:          0  MISS:          0
cpu0_L2C WRITEBACK ACCESS:      18669  HIT:      18636  MISS:         33
LLC TOTAL     ACCESS:     236690  HIT:      60789  MISS:     175901
LLC LOAD      ACCESS:     206717  HIT:      45964  MISS:     160753
LLC RFO       ACCESS:      11719  HIT:       5372  MISS:       6347
LLC PREFETCH  ACCESS:          0  HIT:          0  MISS:          0
LLC WRITEBACK ACCESS:      18227  HIT:       9442  MISS:       8785
Heartbeat CPU 0 instructions: 70000002 cycles: 36397085 heartbeat IPC: 0.899002 cumulative IPC: 0.85347 (Simulation time: 0 hr 38 min 29 sec) 

Region of Interest Statistics
cpu0_DTLB TOTAL     ACCESS:    3535113  HIT:    3513624  MISS:      21489
cpu0_DTLB LOAD      ACCESS:    3317116  HIT:    3296916  MISS:      20200
cpu0_DTLB RFO       ACCESS:     217997  HIT:     216708  MISS:       1289
cpu0_DTLB PREFETCH  ACCESS:          0  HIT:          0  MISS:          0
cpu0_DTLB WRITEBACK ACCESS:          0  HIT:          0  MISS:          0
cpu0_ITLB TOTAL     ACCESS:    1731613  HIT:    1731611  MISS:          2
cpu0_ITLB LOAD      ACCESS:    1731613  HIT:    1731611  MISS:          2
cpu0_ITLB RFO       ACCESS:          0  HIT:          0  MISS:          0
cpu0_ITLB PREFETCH  ACCESS:          0  HIT:          0  MISS:          0
cpu0_ITLB WRITEBACK ACCESS:          0  HIT:          0  MISS:          0
cpu0_L1I TOTAL     ACCESS:      19490  HIT:      19418  MISS:         72
cpu0_L1I LOAD      ACCESS:      19490  HIT:      19418  MISS:         72
cpu0_L1I RFO       ACCESS:          0  HIT:          0  MISS:          0
cpu0_L1I PREFETCH  ACCESS:          0  HIT:          0  MISS:          0
cpu0_L1I WRITEBACK ACCESS:          0  HIT:          0  MISS:          0
cpu0_STLB TOTAL     ACCESS:      21491  HIT:      14092  MISS:       7399
cpu0_STLB LOAD      ACCESS:      20202  HIT:      12995  MISS:       7207
cpu0_STLB RFO       ACCESS:       1289  HIT:       1097  MISS:        192
cpu0_STLB PREFETCH  ACCESS:          0  HIT:          0  MISS:          0
cpu0_STLB WRITEBACK ACCESS:          0  HIT:          0  MISS:          0
cpu0_L1D TOTAL     ACCESS:    2320467  HIT:    2030190  MISS:     290277
cpu0_L1D LOAD      ACCESS:    1983050  HIT:    1709256  MISS:     273794
cpu0_L1D RFO       ACCESS:     330270  HIT:     313991  MISS:      16279
cpu0_L1D PREFETCH  ACCESS:          0  HIT:          0  MISS:          0
cpu0_L1D WRITEBACK ACCESS:          0  HIT:          0  MISS:          0
cpu0_L2C TOTAL     ACCESS:     314622  HIT:      70727  MISS:     243895
cpu0_L2C LOAD      ACCESS:     273866  HIT:      44656  MISS:     229210
cpu0_L2C RFO       ACCESS:      16276  HIT:       1669  MISS:      14607
cpu0_L2C PREFETCH  ACCESS:          0  HIT:          0  MISS:          0
cpu0_L2C WRITEBACK ACCESS:      24276  HIT:      24230  MISS:         46
LLC TOTAL     ACCESS:     265432  HIT:      68422  MISS:     197010
LLC LOAD      ACCESS:     229210  HIT:      51049  MISS:     178161
LLC RFO       ACCESS:      14607  HIT:       6374  MISS:       8233
LLC PREFETCH  ACCESS:          0  HIT:          0  MISS:          0
LLC WRITEBACK ACCESS:      21583  HIT:      10985  MISS:      10598
Heartbeat CPU 0 instructions: 72000003 cycles: 38487808 heartbeat IPC: 0.956607 cumulative IPC: 0.861918 (Simulation time: 0 hr 40 min 2 sec) 

Region of Interest Statistics
cpu0_DTLB TOTAL     ACCESS:    3869453  HIT:    3847073  MISS:      22380
cpu0_DTLB LOAD      ACCESS:    3637157  HIT:    3616085  MISS:      21072
cpu0_DTLB RFO       ACCESS:     232296  HIT:     230988  MISS:       1308
cpu0_DTLB PREFETCH  ACCESS:          0  HIT:          0  MISS:          0
cpu0_DTLB WRITEBACK ACCESS:          0  HIT:          0  MISS:          0
cpu0_ITLB TOTAL     ACCESS:    1914448  HIT:    1914446  MISS:          2
cpu0_ITLB LOAD      ACCESS:    1914448  HIT:    1914446  MISS:          2
cpu0_ITLB RFO       ACCESS:          0  HIT:          0  MISS:          0
cpu0_ITLB PREFETCH  ACCESS:          0  HIT:          0  MISS:          0
cpu0_ITLB WRITEBACK ACCESS:          0  HIT:          0  MISS:          0
cpu0_L1I TOTAL     ACCESS:      19490  HIT:      19418  MISS:         72
cpu0_L1I LOAD      ACCESS:      19490  HIT:      19418  MISS:         72
cpu0_L1I RFO       ACCESS:          0  HIT:          0  MISS:          0
cpu0_L1I PREFETCH  ACCESS:          0  HIT:          0  MISS:          0
cpu0_L1I WRITEBACK ACCESS:          0  HIT:          0  MISS:          0
cpu0_STLB TOTAL     ACCESS:      22382  HIT:      14435  MISS:       7947
cpu0_STLB LOAD      ACCESS:      21074  HIT:      13320  MISS:       7754
cpu0_STLB RFO       ACCESS:       1308  HIT:       1115  MISS:        193
cpu0_STLB PREFETCH  ACCESS:          0  HIT:          0  MISS:          0
cpu0_STLB WRITEBACK ACCESS:          0  HIT:          0  MISS:          0
cpu0_L1D TOTAL     ACCESS:    2543423  HIT:    2225952  MISS:     317471
cpu0_L1D LOAD      ACCESS:    2186137  HIT:    1885857  MISS:     300280
cpu0_L1D RFO       ACCESS:     349614  HIT:     332639  MISS:      16975
cpu0_L1D PREFETCH  ACCESS:          0  HIT:          0  MISS:          0
cpu0_L1D WRITEBACK ACCESS:          0  HIT:          0  MISS:          0
cpu0_L2C TOTAL     ACCESS:     342541  HIT:      72926  MISS:     269615
cpu0_L2C LOAD      ACCESS:     300352  HIT:      46123  MISS:     254229
cpu0_L2C RFO       ACCESS:      16972  HIT:       1669  MISS:      15303
cpu0_L2C PREFETCH  ACCESS:          0  HIT:          0  MISS:          0
cpu0_L2C WRITEBACK ACCESS:      25001  HIT:      24954  MISS:         47
LLC TOTAL     ACCESS:     293247  HIT:      78247  MISS:     215000
LLC LOAD      ACCESS:     254229  HIT:      59162  MISS:     195067
LLC RFO       ACCESS:      15303  HIT:       7038  MISS:       8265
LLC PREFETCH  ACCESS:          0  HIT:          0  MISS:          0
LLC WRITEBACK ACCESS:      23679  HIT:      12031  MISS:      11648
Heartbeat CPU 0 instructions: 74000001 cycles: 41243935 heartbeat IPC: 0.725655 cumulative IPC: 0.848639 (Simulation time: 0 hr 41 min 51 sec) 

Region of Interest Statistics
cpu0_DTLB TOTAL     ACCESS:    4239323  HIT:    4213834  MISS:      25489
cpu0_DTLB LOAD      ACCESS:    3986302  HIT:    3962202  MISS:      24100
cpu0_DTLB RFO       ACCESS:     253021  HIT:     251632  MISS:       1389
cpu0_DTLB PREFETCH  ACCESS:          0  HIT:          0  MISS:          0
cpu0_DTLB WRITEBACK ACCESS:          0  HIT:          0  MISS:          0
cpu0_ITLB TOTAL     ACCESS:    2079822  HIT:    2079820  MISS:          2
cpu0_ITLB LOAD      ACCESS:    2079822  HIT:    2079820  MISS:          2
cpu0_ITLB RFO       ACCESS:          0  HIT:          0  MISS:          0
cpu0_ITLB PREFETCH  ACCESS:          0  HIT:          0  MISS:          0
cpu0_ITLB WRITEBACK ACCESS:          0  HIT:          0  MISS:          0
cpu0_L1I TOTAL     ACCESS:      19490  HIT:      19418  MISS:         72
cpu0_L1I LOAD      ACCESS:      19490  HIT:      19418  MISS:         72
cpu0_L1I RFO       ACCESS:          0  HIT:          0  MISS:          0
cpu0_L1I PREFETCH  ACCESS:          0  HIT:          0  MISS:          0
cpu0_L1I WRITEBACK ACCESS:          0  HIT:          0  MISS:          0
cpu0_STLB TOTAL     ACCESS:      25491  HIT:      16561  MISS:       8930
cpu0_STLB LOAD      ACCESS:      24102  HIT:      15372  MISS:       8730
cpu0_STLB RFO       ACCESS:       1389  HIT:       1189  MISS:        200
cpu0_STLB PREFETCH  ACCESS:          0  HIT:          0  MISS:          0
cpu0_STLB WRITEBACK ACCESS:          0  HIT:          0  MISS:          0
cpu0_L1D TOTAL     ACCESS:    2781366  HIT:    2434565  MISS:     346801
cpu0_L1D LOAD      ACCESS:    2387956  HIT:    2058738  MISS:     329218
cpu0_L1D RFO       ACCESS:     384799  HIT:     367459  MISS:      17340
cpu0_L1D PREFETCH  ACCESS:          0  HIT:          0  MISS:          0
cpu0_L1D WRITEBACK ACCESS:          0  HIT:          0  MISS:          0
cpu0_L2C TOTAL     ACCESS:     372226  HIT:      79273  MISS:     292953
cpu0_L2C LOAD      ACCESS:     329290  HIT:      52089  MISS:     277201
cpu0_L2C RFO       ACCESS:      17337  HIT:       1669  MISS:      15668
cpu0_L2C PREFETCH  ACCESS:          0  HIT:          0  MISS:          0
cpu0_L2C WRITEBACK ACCESS:      25356  HIT:      25309  MISS:         47
LLC TOTAL     ACCESS:     317003  HIT:      82335  MISS:     234668
LLC LOAD      ACCESS:     277201  HIT:      62583  MISS:     214618
LLC RFO       ACCESS:      15668  HIT:       7292  MISS:       8376
LLC PREFETCH  ACCESS:          0  HIT:          0  MISS:          0
LLC WRITEBACK ACCESS:      24097  HIT:      12443  MISS:      11654
Heartbeat CPU 0 instructions: 76000002 cycles: 43498661 heartbeat IPC: 0.887026 cumulative IPC: 0.851473 (Simulation time: 0 hr 43 min 36 sec) 

Region of Interest Statistics
cpu0_DTLB TOTAL     ACCESS:    4598883  HIT:    4570706  MISS:      28177
cpu0_DTLB LOAD      ACCESS:    4321210  HIT:    4294682  MISS:      26528
cpu0_DTLB RFO       ACCESS:     277673  HIT:     276024  MISS:       1649
cpu0_DTLB PREFETCH  ACCESS:          0  HIT:          0  MISS:          0
cpu0_DTLB WRITEBACK ACCESS:          0  HIT:          0  MISS:          0
cpu0_ITLB TOTAL     ACCESS:    2254654  HIT:    2254652  MISS:          2
cpu0_ITLB LOAD      ACCESS:    2254654  HIT:    2254652  MISS:          2
cpu0_ITLB RFO       ACCESS:          0  HIT:          0  MISS:          0
cpu0_ITLB PREFETCH  ACCESS:          0  HIT:          0  MISS:          0
cpu0_ITLB WRITEBACK ACCESS:          0  HIT:          0  MISS:          0
cpu0_L1I TOTAL     ACCESS:      22665  HIT:      22593  MISS:         72
cpu0_L1I LOAD      ACCESS:      22665  HIT:      22593  MISS:         72
cpu0_L1I RFO       ACCESS:          0  HIT:          0  MISS:          0
cpu0_L1I PREFETCH  ACCESS:          0  HIT:          0  MISS:          0
cpu0_L1I WRITEBACK ACCESS:          0  HIT:          0  MISS:          0
cpu0_STLB TOTAL     ACCESS:      28179  HIT:      18421  MISS:       9758
cpu0_STLB LOAD      ACCESS:      26530  HIT:      17015  MISS:       9515
cpu0_STLB RFO       ACCESS:       1649  HIT:       1406  MISS:        243
cpu0_STLB PREFETCH  ACCESS:          0  HIT:          0  MISS:          0
cpu0_STLB WRITEBACK ACCESS:          0  HIT:          0  MISS:          0
cpu0_L1D TOTAL     ACCESS:    3013802  HIT:    2634840  MISS:     378962
cpu0_L1D LOAD      ACCESS:    2586189  HIT:    2228186  MISS:     358003
cpu0_L1D RFO       ACCESS:     418192  HIT:     397496  MISS:      20696
cpu0_L1D PREFETCH  ACCESS:          0  HIT:          0  MISS:          0
cpu0_L1D WRITEBACK ACCESS:          0  HIT:          0  MISS:          0
cpu0_L2C TOTAL     ACCESS:     410199  HIT:      91904  MISS:     318295
cpu0_L2C LOAD      ACCESS:     358075  HIT:      58429  MISS:     299646
cpu0_L2C RFO       ACCESS:      20693  HIT:       2145  MISS:      18548
cpu0_L2C PREFETCH  ACCESS:          0  HIT:          0  MISS:          0
cpu0_L2C WRITEBACK ACCESS:      31168  HIT:      31108  MISS:         60
LLC TOTAL     ACCESS:     345240  HIT:      89633  MISS:     255607
LLC LOAD      ACCESS:     299646  HIT:      67578  MISS:     232068
LLC RFO       ACCESS:      18548  HIT:       8258  MISS:      10290
LLC PREFETCH  ACCESS:          0  HIT:          0  MISS:          0
LLC WRITEBACK ACCESS:      27005  HIT:      13778  MISS:      13227
Heartbeat CPU 0 instructions: 78000001 cycles: 45593889 heartbeat IPC: 0.95455 cumulative IPC: 0.858092 (Simulation time: 0 hr 45 min 14 sec) 

Region of Interest Statistics
cpu0_DTLB TOTAL     ACCESS:    4930696  HIT:    4901616  MISS:      29080
cpu0_DTLB LOAD      ACCESS:    4639135  HIT:    4611719  MISS:      27416
cpu0_DTLB RFO       ACCESS:     291561  HIT:     289897  MISS:       1664
cpu0_DTLB PREFETCH  ACCESS:          0  HIT:          0  MISS:          0
cpu0_DTLB WRITEBACK ACCESS:          0  HIT:          0  MISS:          0
cpu0_ITLB TOTAL     ACCESS:    2437991  HIT:    2437989  MISS:          2
cpu0_ITLB LOAD      ACCESS:    2437991  HIT:    2437989  MISS:          2
cpu0_ITLB RFO       ACCESS:          0  HIT:          0  MISS:          0
cpu0_ITLB PREFETCH  ACCESS:          0  HIT:          0  MISS:          0
cpu0_ITLB WRITEBACK ACCESS:          0  HIT:          0  MISS:          0
cpu0_L1I TOTAL     ACCESS:      22665  HIT:      22593  MISS:         72
cpu0_L1I LOAD      ACCESS:      22665  HIT:      22593  MISS:         72
cpu0_L1I RFO       ACCESS:          0  HIT:          0  MISS:          0
cpu0_L1I PREFETCH  ACCESS:          0  HIT:          0  MISS:          0
cpu0_L1I WRITEBACK ACCESS:          0  HIT:          0  MISS:          0
cpu0_STLB TOTAL     ACCESS:      29082  HIT:      18805  MISS:      10277
cpu0_STLB LOAD      ACCESS:      27418  HIT:      17385  MISS:      10033
cpu0_STLB RFO       ACCESS:       1664  HIT:       1420  MISS:        244
cpu0_STLB PREFETCH  ACCESS:          0  HIT:          0  MISS:          0
cpu0_STLB WRITEBACK ACCESS:          0  HIT:          0  MISS:          0
cpu0_L1D TOTAL     ACCESS:    3234584  HIT:    2828585  MISS:     405999
cpu0_L1D LOAD      ACCESS:    2787957  HIT:    2403637  MISS:     384320
cpu0_L1D RFO       ACCESS:     436705  HIT:     415299  MISS:      21406
cpu0_L1D PREFETCH  ACCESS:          0  HIT:          0  MISS:          0
cpu0_L1D WRITEBACK ACCESS:          0  HIT:          0  MISS:          0
cpu0_L2C TOTAL     ACCESS:     437976  HIT:      93877  MISS:     344099
cpu0_L2C LOAD      ACCESS:     384392  HIT:      59657  MISS:     324735
cpu0_L2C RFO       ACCESS:      21403  HIT:       2145  MISS:      19258
cpu0_L2C PREFETCH  ACCESS:          0  HIT:          0  MISS:          0
cpu0_L2C WRITEBACK ACCESS:      31908  HIT:      31847  MISS:         61
LLC TOTAL     ACCESS:     373568  HIT:      99883  MISS:     273685
LLC LOAD      ACCESS:     324735  HIT:      75946  MISS:     248789
LLC RFO       ACCESS:      19258  HIT:       8930  MISS:      10328
LLC PREFETCH  ACCESS:          0  HIT:          0  MISS:          0
LLC WRITEBACK ACCESS:      29530  HIT:      14986  MISS:      14544
Heartbeat CPU 0 instructions: 80000000 cycles: 48393345 heartbeat IPC: 0.714424 cumulative IPC: 0.84674 (Simulation time: 0 hr 47 min 7 sec) 

Region of Interest Statistics
cpu0_DTLB TOTAL     ACCESS:    5298039  HIT:    5265751  MISS:      32288
cpu0_DTLB LOAD      ACCESS:    4985929  HIT:    4955394  MISS:      30535
cpu0_DTLB RFO       ACCESS:     312110  HIT:     310357  MISS:       1753
cpu0_DTLB PREFETCH  ACCESS:          0  HIT:          0  MISS:          0
cpu0_DTLB WRITEBACK ACCESS:          0  HIT:          0  MISS:          0
cpu0_ITLB TOTAL     ACCESS:    2603550  HIT:    2603548  MISS:          2
cpu0_ITLB LOAD      ACCESS:    2603550  HIT:    2603548  MISS:          2
cpu0_ITLB RFO       ACCESS:          0  HIT:          0  MISS:          0
cpu0_ITLB PREFETCH  ACCESS:          0  HIT:          0  MISS:          0
cpu0_ITLB WRITEBACK ACCESS:          0  HIT:          0  MISS:          0
cpu0_L1I TOTAL     ACCESS:      22665  HIT:      22593  MISS:         72
cpu0_L1I LOAD      ACCESS:      22665  HIT:      22593  MISS:         72
cpu0_L1I RFO       ACCESS:          0  HIT:          0  MISS:          0
cpu0_L1I PREFETCH  ACCESS:          0  HIT:          0  MISS:          0
cpu0_L1I WRITEBACK ACCESS:          0  HIT:          0  MISS:          0
cpu0_STLB TOTAL     ACCESS:      32290  HIT:      21103  MISS:      11187
cpu0_STLB LOAD      ACCESS:      30537  HIT:      19599  MISS:      10938
cpu0_STLB RFO       ACCESS:       1753  HIT:       1504  MISS:        249
cpu0_STLB PREFETCH  ACCESS:          0  HIT:          0  MISS:          0
cpu0_STLB WRITEBACK ACCESS:          0  HIT:          0  MISS:          0
cpu0_L1D TOTAL     ACCESS:    3464614  HIT:    3029323  MISS:     435291
cpu0_L1D LOAD      ACCESS:    2982220  HIT:    2568952  MISS:     413268
cpu0_L1D RFO       ACCESS:     471594  HIT:     449873  MISS:      21721
cpu0_L1D PREFETCH  ACCESS:          0  HIT:          0  MISS:          0
cpu0_L1D WRITEBACK ACCESS:          0  HIT:          0  MISS:          0
cpu0_L2C TOTAL     ACCESS:     467571  HIT:     100191  MISS:     367380
cpu0_L2C LOAD      ACCESS:     413340  HIT:      65639  MISS:     347701
cpu0_L2C RFO       ACCESS:      21718  HIT:       2145  MISS:      19573
cpu0_L2C PREFETCH  ACCESS:          0  HIT:          0  MISS:          0
cpu0_L2C WRITEBACK ACCESS:      32211  HIT:      32150  MISS:         61
LLC TOTAL     ACCESS:     397244  HIT:     103513  MISS:     293731
LLC LOAD      ACCESS:     347701  HIT:      78981  MISS:     268720
LLC RFO       ACCESS:      19573  HIT:       9135  MISS:      10438
LLC PREFETCH  ACCESS:          0  HIT:          0  MISS:          0
LLC WRITEBACK ACCESS:      29925  HIT:      15376  MISS:      14549
Heartbeat CPU 0 instructions: 82000004 cycles: 50853468 heartbeat IPC: 0.812969 cumulative IPC: 0.844547 (Simulation time: 0 hr 49 min 0 sec) 

Region of Interest Statistics
cpu0_DTLB TOTAL     ACCESS:    5664480  HIT:    5629179  MISS:      35301
cpu0_DTLB LOAD      ACCESS:    5325779  HIT:    5292494  MISS:      33285
cpu0_DTLB RFO       ACCESS:     338701  HIT:     336685  MISS:       2016
cpu0_DTLB PREFETCH  ACCESS:          0  HIT:          0  MISS:          0
cpu0_DTLB WRITEBACK ACCESS:          0  HIT:          0  MISS:          0
cpu0_ITLB TOTAL     ACCESS:    2766772  HIT:    2766770  MISS:          2
cpu0_ITLB LOAD      ACCESS:    2766772  HIT:    2766770  MISS:          2
cpu0_ITLB RFO       ACCESS:          0  HIT:          0  MISS:          0
cpu0_ITLB PREFETCH  ACCESS:          0  HIT:          0  MISS:          0
cpu0_ITLB WRITEBACK ACCESS:          0  HIT:          0  MISS:          0
cpu0_L1I TOTAL     ACCESS:      25754  HIT:      25682  MISS:         72
cpu0_L1I LOAD      ACCESS:      25754  HIT:      25682  MISS:         72
cpu0_L1I RFO       ACCESS:          0  HIT:          0  MISS:          0
cpu0_L1I PREFETCH  ACCESS:          0  HIT:          0  MISS:          0
cpu0_L1I WRITEBACK ACCESS:          0  HIT:          0  MISS:          0
cpu0_STLB TOTAL     ACCESS:      35303  HIT:      23179  MISS:      12124
cpu0_STLB LOAD      ACCESS:      33287  HIT:      21456  MISS:      11831
cpu0_STLB RFO       ACCESS:       2016  HIT:       1723  MISS:        293
cpu0_STLB PREFETCH  ACCESS:          0  HIT:          0  MISS:          0
cpu0_STLB WRITEBACK ACCESS:          0  HIT:          0  MISS:          0
cpu0_L1D TOTAL     ACCESS:    3702290  HIT:    3234475  MISS:     467815
cpu0_L1D LOAD      ACCESS:    3181611  HIT:    2738897  MISS:     442714
cpu0_L1D RFO       ACCESS:     508965  HIT:     484194  MISS:      24771
cpu0_L1D PREFETCH  ACCESS:          0  HIT:          0  MISS:          0
cpu0_L1D WRITEBACK ACCESS:          0  HIT:          0  MISS:          0
cpu0_L2C TOTAL     ACCESS:     505420  HIT:     112306  MISS:     393114
cpu0_L2C LOAD      ACCESS:     442786  HIT:      72164  MISS:     370622
cpu0_L2C RFO       ACCESS:      24768  HIT:       2399  MISS:      22369
cpu0_L2C PREFETCH  ACCESS:          0  HIT:          0  MISS:          0
cpu0_L2C WRITEBACK ACCESS:      37536  HIT:      37462  MISS:         74
LLC TOTAL     ACCESS:     424881  HIT:     110538  MISS:     314343
LLC LOAD      ACCESS:     370622  HIT:      84126  MISS:     286496
LLC RFO       ACCESS:      22369  HIT:       9937  MISS:      12432
LLC PREFETCH  ACCESS:          0  HIT:          0  MISS:          0
LLC WRITEBACK ACCESS:      31841  HIT:      16451  MISS:      15390
Heartbeat CPU 0 instructions: 84000003 cycles: 52713745 heartbeat IPC: 1.07511 cumulative IPC: 0.855337 (Simulation time: 0 hr 50 min 27 sec) 

Region of Interest Statistics
cpu0_DTLB TOTAL     ACCESS:    5990576  HIT:    5954743  MISS:      35833
cpu0_DTLB LOAD      ACCESS:    5639906  HIT:    5606111  MISS:      33795
cpu0_DTLB RFO       ACCESS:     350670  HIT:     348632  MISS:       2038
cpu0_DTLB PREFETCH  ACCESS:          0  HIT:          0  MISS:          0
cpu0_DTLB WRITEBACK ACCESS:          0  HIT:          0  MISS:          0
cpu0_ITLB TOTAL     ACCESS:    2959079  HIT:    2959077  MISS:          2
cpu0_ITLB LOAD      ACCESS:    2959079  HIT:    2959077  MISS:          2
cpu0_ITLB RFO       ACCESS:          0  HIT:          0  MISS:          0
cpu0_ITLB PREFETCH  ACCESS:          0  HIT:          0  MISS:          0
cpu0_ITLB WRITEBACK ACCESS:          0  HIT:          0  MISS:          0
cpu0_L1I TOTAL     ACCESS:      25772  HIT:      25700  MISS:         72
cpu0_L1I LOAD      ACCESS:      25772  HIT:      25700  MISS:         72
cpu0_L1I RFO       ACCESS:          0  HIT:          0  MISS:          0
cpu0_L1I PREFETCH  ACCESS:          0  HIT:          0  MISS:          0
cpu0_L1I WRITEBACK ACCESS:          0  HIT:          0  MISS:          0
cpu0_STLB TOTAL     ACCESS:      35835  HIT:      23331  MISS:      12504
cpu0_STLB LOAD      ACCESS:      33797  HIT:      21586  MISS:      12211
cpu0_STLB RFO       ACCESS:       2038  HIT:       1745  MISS:        293
cpu0_STLB PREFETCH  ACCESS:          0  HIT:          0  MISS:          0
cpu0_STLB WRITEBACK ACCESS:          0  HIT:          0  MISS:          0
cpu0_L1D TOTAL     ACCESS:    3916448  HIT:    3422483  MISS:     493965
cpu0_L1D LOAD      ACCESS:    3382038  HIT:    2914115  MISS:     467923
cpu0_L1D RFO       ACCESS:     522328  HIT:     496620  MISS:      25708
cpu0_L1D PREFETCH  ACCESS:          0  HIT:          0  MISS:          0
cpu0_L1D WRITEBACK ACCESS:          0  HIT:          0  MISS:          0
cpu0_L2C TOTAL     ACCESS:     532530  HIT:     114281  MISS:     418249
cpu0_L2C LOAD      ACCESS:     467995  HIT:      73035  MISS:     394960
cpu0_L2C RFO       ACCESS:      25705  HIT:       2542  MISS:      23163
cpu0_L2C PREFETCH  ACCESS:          0  HIT:          0  MISS:          0
cpu0_L2C WRITEBACK ACCESS:      38496  HIT:      38422  MISS:         74
LLC TOTAL     ACCESS:     453490  HIT:     120639  MISS:     332851
LLC LOAD      ACCESS:     394960  HIT:      92007  MISS:     302953
LLC RFO       ACCESS:      23163  HIT:      10708  MISS:      12455
LLC PREFETCH  ACCESS:          0  HIT:          0  MISS:          0
LLC WRITEBACK ACCESS:      35315  HIT:      17899  MISS:      17416
Heartbeat CPU 0 instructions: 86000003 cycles: 55519895 heartbeat IPC: 0.71272 cumulative IPC: 0.845933 (Simulation time: 0 hr 52 min 19 sec) 

Region of Interest Statistics
cpu0_DTLB TOTAL     ACCESS:    6360987  HIT:    6322265  MISS:      38722
cpu0_DTLB LOAD      ACCESS:    5989973  HIT:    5953364  MISS:      36609
cpu0_DTLB RFO       ACCESS:     371014  HIT:     368901  MISS:       2113
cpu0_DTLB PREFETCH  ACCESS:          0  HIT:          0  MISS:          0
cpu0_DTLB WRITEBACK ACCESS:          0  HIT:          0  MISS:          0
cpu0_ITLB TOTAL     ACCESS:    3125705  HIT:    3125703  MISS:          2
cpu0_ITLB LOAD      ACCESS:    3125705  HIT:    3125703  MISS:          2
cpu0_ITLB RFO       ACCESS:          0  HIT:          0  MISS:          0
cpu0_ITLB PREFETCH  ACCESS:          0  HIT:          0  MISS:          0
cpu0_ITLB WRITEBACK ACCESS:          0  HIT:          0  MISS:          0
cpu0_L1I TOTAL     ACCESS:      25772  HIT:      25700  MISS:         72
cpu0_L1I LOAD      ACCESS:      25772  HIT:      25700  MISS:         72
cpu0_L1I RFO       ACCESS:          0  HIT:          0  MISS:          0
cpu0_L1I PREFETCH  ACCESS:          0  HIT:          0  MISS:          0
cpu0_L1I WRITEBACK ACCESS:          0  HIT:          0  MISS:          0
cpu0_STLB TOTAL     ACCESS:      38724  HIT:      25305  MISS:      13419
cpu0_STLB LOAD      ACCESS:      36611  HIT:      23489  MISS:      13122
cpu0_STLB RFO       ACCESS:       2113  HIT:       1816  MISS:        297
cpu0_STLB PREFETCH  ACCESS:          0  HIT:          0  MISS:          0
cpu0_STLB WRITEBACK ACCESS:          0  HIT:          0  MISS:          0
cpu0_L1D TOTAL     ACCESS:    4150410  HIT:    3627101  MISS:     523309
cpu0_L1D LOAD      ACCESS:    3580293  HIT:    3083363  MISS:     496930
cpu0_L1D RFO       ACCESS:     557153  HIT:     531137  MISS:      26016
cpu0_L1D PREFETCH  ACCESS:          0  HIT:          0  MISS:          0
cpu0_L1D WRITEBACK ACCESS:          0  HIT:          0  MISS:          0
cpu0_L2C TOTAL     ACCESS:     562207  HIT:     120370  MISS:     441837
cpu0_L2C LOAD      ACCESS:     497002  HIT:      78764  MISS:     418238
cpu0_L2C RFO       ACCESS:      26013  HIT:       2542  MISS:      23471
cpu0_L2C PREFETCH  ACCESS:          0  HIT:          0  MISS:          0
cpu0_L2C WRITEBACK ACCESS:      38829  HIT:      38754  MISS:         75
LLC TOTAL     ACCESS:     477444  HIT:     124537  MISS:     352907
LLC LOAD      ACCESS:     418238  HIT:      95346  MISS:     322892
LLC RFO       ACCESS:      23471  HIT:      10901  MISS:      12570
LLC PREFETCH  ACCESS:          0  HIT:          0  MISS:          0
LLC WRITEBACK ACCESS:      35682  HIT:      18264  MISS:      17418
Heartbeat CPU 0 instructions: 88000001 cycles: 58140767 heartbeat IPC: 0.763104 cumulative IPC: 0.841128 (Simulation time: 0 hr 54 min 11 sec) 

Region of Interest Statistics
cpu0_DTLB TOTAL     ACCESS:    6733155  HIT:    6691152  MISS:      42003
cpu0_DTLB LOAD      ACCESS:    6339751  HIT:    6300030  MISS:      39721
cpu0_DTLB RFO       ACCESS:     393404  HIT:     391122  MISS:       2282
cpu0_DTLB PREFETCH  ACCESS:          0  HIT:          0  MISS:          0
cpu0_DTLB WRITEBACK ACCESS:          0  HIT:          0  MISS:          0
cpu0_ITLB TOTAL     ACCESS:    3290981  HIT:    3290979  MISS:          2
cpu0_ITLB LOAD      ACCESS:    3290981  HIT:    3290979  MISS:          2
cpu0_ITLB RFO       ACCESS:          0  HIT:          0  MISS:          0
cpu0_ITLB PREFETCH  ACCESS:          0  HIT:          0  MISS:          0
cpu0_ITLB WRITEBACK ACCESS:          0  HIT:          0  MISS:          0
cpu0_L1I TOTAL     ACCESS:      27893  HIT:      27821  MISS:         72
cpu0_L1I LOAD      ACCESS:      27893  HIT:      27821  MISS:         72
cpu0_L1I RFO       ACCESS:          0  HIT:          0  MISS:          0
cpu0_L1I PREFETCH  ACCESS:          0  HIT:          0  MISS:          0
cpu0_L1I WRITEBACK ACCESS:          0  HIT:          0  MISS:          0
cpu0_STLB TOTAL     ACCESS:      42005  HIT:      27558  MISS:      14447
cpu0_STLB LOAD      ACCESS:      39723  HIT:      25586  MISS:      14137
cpu0_STLB RFO       ACCESS:       2282  HIT:       1972  MISS:        310
cpu0_STLB PREFETCH  ACCESS:          0  HIT:          0  MISS:          0
cpu0_STLB WRITEBACK ACCESS:          0  HIT:          0  MISS:          0
cpu0_L1D TOTAL     ACCESS:    4398069  HIT:    3844085  MISS:     553984
cpu0_L1D LOAD      ACCESS:    3787691  HIT:    3260664  MISS:     527027
cpu0_L1D RFO       ACCESS:     596418  HIT:     569855  MISS:      26563
cpu0_L1D PREFETCH  ACCESS:          0  HIT:          0  MISS:          0
cpu0_L1D WRITEBACK ACCESS:          0  HIT:          0  MISS:          0
cpu0_L2C TOTAL     ACCESS:     595709  HIT:     129690  MISS:     466019
cpu0_L2C LOAD      ACCESS:     527099  HIT:      85091  MISS:     442008
cpu0_L2C RFO       ACCESS:      26560  HIT:       2692  MISS:      23868
cpu0_L2C PREFETCH  ACCESS:          0  HIT:          0  MISS:          0
cpu0_L2C WRITEBACK ACCESS:      41656  HIT:      41570  MISS:         86
LLC TOTAL     ACCESS:     502248  HIT:     130020  MISS:     372228
LLC LOAD      ACCESS:     442008  HIT:     100078  MISS:     341930
LLC RFO       ACCESS:      23868  HIT:      11147  MISS:      12721
LLC PREFETCH  ACCESS:          0  HIT:          0  MISS:          0
LLC WRITEBACK ACCESS:      36315  HIT:      18766  MISS:      17549
Heartbeat CPU 0 instructions: 90000000 cycles: 60098507 heartbeat IPC: 1.02159 cumulative IPC: 0.848623 (Simulation time: 0 hr 55 min 52 sec) 

Region of Interest Statistics
cpu0_DTLB TOTAL     ACCESS:    7065635  HIT:    7022763  MISS:      42872
cpu0_DTLB LOAD      ACCESS:    6654531  HIT:    6614049  MISS:      40482
cpu0_DTLB RFO       ACCESS:     411104  HIT:     408714  MISS:       2390
cpu0_DTLB PREFETCH  ACCESS:          0  HIT:          0  MISS:          0
cpu0_DTLB WRITEBACK ACCESS:          0  HIT:          0  MISS:          0
cpu0_ITLB TOTAL     ACCESS:    3479683  HIT:    3479681  MISS:          2
cpu0_ITLB LOAD      ACCESS:    3479683  HIT:    3479681  MISS:          2
cpu0_ITLB RFO       ACCESS:          0  HIT:          0  MISS:          0
cpu0_ITLB PREFETCH  ACCESS:          0  HIT:          0  MISS:          0
cpu0_ITLB WRITEBACK ACCESS:          0  HIT:          0  MISS:          0
cpu0_L1I TOTAL     ACCESS:      28509  HIT:      28437  MISS:         72
cpu0_L1I LOAD      ACCESS:      28509  HIT:      28437  MISS:         72
cpu0_L1I RFO       ACCESS:          0  HIT:          0  MISS:          0
cpu0_L1I PREFETCH  ACCESS:          0  HIT:          0  MISS:          0
cpu0_L1I WRITEBACK ACCESS:          0  HIT:          0  MISS:          0
cpu0_STLB TOTAL     ACCESS:      42874  HIT:      28033  MISS:      14841
cpu0_STLB LOAD      ACCESS:      40484  HIT:      25986  MISS:      14498
cpu0_STLB RFO       ACCESS:       2390  HIT:       2047  MISS:        343
cpu0_STLB PREFETCH  ACCESS:          0  HIT:          0  MISS:          0
cpu0_STLB WRITEBACK ACCESS:          0  HIT:          0  MISS:          0
cpu0_L1D TOTAL     ACCESS:    4606245  HIT:    4023667  MISS:     582578
cpu0_L1D LOAD      ACCESS:    3979810  HIT:    3427550  MISS:     552260
cpu0_L1D RFO       ACCESS:     612092  HIT:     582174  MISS:      29918
cpu0_L1D PREFETCH  ACCESS:          0  HIT:          0  MISS:          0
cpu0_L1D WRITEBACK ACCESS:          0  HIT:          0  MISS:          0
cpu0_L2C TOTAL     ACCESS:     627817  HIT:     136073  MISS:     491744
cpu0_L2C LOAD      ACCESS:     552332  HIT:      87678  MISS:     464654
cpu0_L2C RFO       ACCESS:      29915  HIT:       2970  MISS:      26945
cpu0_L2C PREFETCH  ACCESS:          0  HIT:          0  MISS:          0
cpu0_L2C WRITEBACK ACCESS:      45170  HIT:      45082  MISS:         88
LLC TOTAL     ACCESS:     532709  HIT:     139063  MISS:     393646
LLC LOAD      ACCESS:     464653  HIT:     105933  MISS:     358720
LLC RFO       ACCESS:      26945  HIT:      12357  MISS:      14588
LLC PREFETCH  ACCESS:          0  HIT:          0  MISS:          0
LLC WRITEBACK ACCESS:      41054  HIT:      20744  MISS:      20310
Heartbeat CPU 0 instructions: 92000002 cycles: 62612639 heartbeat IPC: 0.795504 cumulative IPC: 0.845934 (Simulation time: 0 hr 57 min 38 sec) 

Region of Interest Statistics
cpu0_DTLB TOTAL     ACCESS:    7425994  HIT:    7380563  MISS:      45431
cpu0_DTLB LOAD      ACCESS:    6995574  HIT:    6952595  MISS:      42979
cpu0_DTLB RFO       ACCESS:     430420  HIT:     427968  MISS:       2452
cpu0_DTLB PREFETCH  ACCESS:          0  HIT:          0  MISS:          0
cpu0_DTLB WRITEBACK ACCESS:          0  HIT:          0  MISS:          0
cpu0_ITLB TOTAL     ACCESS:    3649894  HIT:    3649892  MISS:          2
cpu0_ITLB LOAD      ACCESS:    3649894  HIT:    3649892  MISS:          2
cpu0_ITLB RFO       ACCESS:          0  HIT:          0  MISS:          0
cpu0_ITLB PREFETCH  ACCESS:          0  HIT:          0  MISS:          0
cpu0_ITLB WRITEBACK ACCESS:          0  HIT:          0  MISS:          0
cpu0_L1I TOTAL     ACCESS:      28509  HIT:      28437  MISS:         72
cpu0_L1I LOAD      ACCESS:      28509  HIT:      28437  MISS:         72
cpu0_L1I RFO       ACCESS:          0  HIT:          0  MISS:          0
cpu0_L1I PREFETCH  ACCESS:          0  HIT:          0  MISS:          0
cpu0_L1I WRITEBACK ACCESS:          0  HIT:          0  MISS:          0
cpu0_STLB TOTAL     ACCESS:      45433  HIT:      29717  MISS:      15716
cpu0_STLB LOAD      ACCESS:      42981  HIT:      27612  MISS:      15369
cpu0_STLB RFO       ACCESS:       2452  HIT:       2105  MISS:        347
cpu0_STLB PREFETCH  ACCESS:          0  HIT:          0  MISS:          0
cpu0_STLB WRITEBACK ACCESS:          0  HIT:          0  MISS:          0
cpu0_L1D TOTAL     ACCESS:    4838987  HIT:    4227639  MISS:     611348
cpu0_L1D LOAD      ACCESS:    4180400  HIT:    3599867  MISS:     580533
cpu0_L1D RFO       ACCESS:     643405  HIT:     613010  MISS:      30395
cpu0_L1D PREFETCH  ACCESS:          0  HIT:          0  MISS:          0
cpu0_L1D WRITEBACK ACCESS:          0  HIT:          0  MISS:          0
cpu0_L2C TOTAL     ACCESS:     657094  HIT:     141096  MISS:     515998
cpu0_L2C LOAD      ACCESS:     580605  HIT:      92179  MISS:     488426
cpu0_L2C RFO       ACCESS:      30392  HIT:       2970  MISS:      27422
cpu0_L2C PREFETCH  ACCESS:          0  HIT:          0  MISS:          0
cpu0_L2C WRITEBACK ACCESS:      45677  HIT:      45588  MISS:         89
LLC TOTAL     ACCESS:     557396  HIT:     145908  MISS:     411488
LLC LOAD      ACCESS:     488425  HIT:     111966  MISS:     376459
LLC RFO       ACCESS:      27422  HIT:      12735  MISS:      14687
LLC PREFETCH  ACCESS:          0  HIT:          0  MISS:          0
LLC WRITEBACK ACCESS:      41488  HIT:      21176  MISS:      20312
Heartbeat CPU 0 instructions: 94000002 cycles: 65156245 heartbeat IPC: 0.786285 cumulative IPC: 0.843027 (Simulation time: 0 hr 59 min 27 sec) 

Region of Interest Statistics
cpu0_DTLB TOTAL     ACCESS:    7793523  HIT:    7744892  MISS:      48631
cpu0_DTLB LOAD      ACCESS:    7335675  HIT:    7289735  MISS:      45940
cpu0_DTLB RFO       ACCESS:     457848  HIT:     455157  MISS:       2691
cpu0_DTLB PREFETCH  ACCESS:          0  HIT:          0  MISS:          0
cpu0_DTLB WRITEBACK ACCESS:          0  HIT:          0  MISS:          0
cpu0_ITLB TOTAL     ACCESS:    3808024  HIT:    3808022  MISS:          2
cpu0_ITLB LOAD      ACCESS:    3808024  HIT:    3808022  MISS:          2
cpu0_ITLB RFO       ACCESS:          0  HIT:          0  MISS:          0
cpu0_ITLB PREFETCH  ACCESS:          0  HIT:          0  MISS:          0
cpu0_ITLB WRITEBACK ACCESS:          0  HIT:          0  MISS:          0
cpu0_L1I TOTAL     ACCESS:      31276  HIT:      31204  MISS:         72
cpu0_L1I LOAD      ACCESS:      31276  HIT:      31204  MISS:         72
cpu0_L1I RFO       ACCESS:          0  HIT:          0  MISS:          0
cpu0_L1I PREFETCH  ACCESS:          0  HIT:          0  MISS:          0
cpu0_L1I WRITEBACK ACCESS:          0  HIT:          0  MISS:          0
cpu0_STLB TOTAL     ACCESS:      48633  HIT:      31900  MISS:      16733
cpu0_STLB LOAD      ACCESS:      45942  HIT:      29600  MISS:      16342
cpu0_STLB RFO       ACCESS:       2691  HIT:       2300  MISS:        391
cpu0_STLB PREFETCH  ACCESS:          0  HIT:          0  MISS:          0
cpu0_STLB WRITEBACK ACCESS:          0  HIT:          0  MISS:          0
cpu0_L1D TOTAL     ACCESS:    5080704  HIT:    4436951  MISS:     643753
cpu0_L1D LOAD      ACCESS:    4382599  HIT:    3772712  MISS:     609887
cpu0_L1D RFO       ACCESS:     681936  HIT:     648520  MISS:      33416
cpu0_L1D PREFETCH  ACCESS:          0  HIT:          0  MISS:          0
cpu0_L1D WRITEBACK ACCESS:          0  HIT:          0  MISS:          0
cpu0_L2C TOTAL     ACCESS:     694122  HIT:     151876  MISS:     542246
cpu0_L2C LOAD      ACCESS:     609959  HIT:      98145  MISS:     511814
cpu0_L2C RFO       ACCESS:      33413  HIT:       3148  MISS:      30265
cpu0_L2C PREFETCH  ACCESS:          0  HIT:          0  MISS:          0
cpu0_L2C WRITEBACK ACCESS:      50300  HIT:      50198  MISS:        102
LLC TOTAL     ACCESS:     585302  HIT:     152724  MISS:     432578
LLC LOAD      ACCESS:     511813  HIT:     116830  MISS:     394983
LLC RFO       ACCESS:      30265  HIT:      13581  MISS:      16684
LLC PREFETCH  ACCESS:          0  HIT:          0  MISS:          0
LLC WRITEBACK ACCESS:      43159  HIT:      22280  MISS:      20879
Heartbeat CPU 0 instructions: 96000004 cycles: 67001765 heartbeat IPC: 1.08371 cumulative IPC: 0.851246 (Simulation time: 1 hr 0 min 52 sec) 

Region of Interest Statistics
cpu0_DTLB TOTAL     ACCESS:    8122991  HIT:    8073850  MISS:      49141
cpu0_DTLB LOAD      ACCESS:    7654358  HIT:    7607928  MISS:      46430
cpu0_DTLB RFO       ACCESS:     468633  HIT:     465922  MISS:       2711
cpu0_DTLB PREFETCH  ACCESS:          0  HIT:          0  MISS:          0
cpu0_DTLB WRITEBACK ACCESS:          0  HIT:          0  MISS:          0
cpu0_ITLB TOTAL     ACCESS:    4006529  HIT:    4006527  MISS:          2
cpu0_ITLB LOAD      ACCESS:    4006529  HIT:    4006527  MISS:          2
cpu0_ITLB RFO       ACCESS:          0  HIT:          0  MISS:          0
cpu0_ITLB PREFETCH  ACCESS:          0  HIT:          0  MISS:          0
cpu0_ITLB WRITEBACK ACCESS:          0  HIT:          0  MISS:          0
cpu0_L1I TOTAL     ACCESS:      31294  HIT:      31222  MISS:         72
cpu0_L1I LOAD      ACCESS:      31294  HIT:      31222  MISS:         72
cpu0_L1I RFO       ACCESS:          0  HIT:          0  MISS:          0
cpu0_L1I PREFETCH  ACCESS:          0  HIT:          0  MISS:          0
cpu0_L1I WRITEBACK ACCESS:          0  HIT:          0  MISS:          0
cpu0_STLB TOTAL     ACCESS:      49143  HIT:      32065  MISS:      17078
cpu0_STLB LOAD      ACCESS:      46432  HIT:      29745  MISS:      16687
cpu0_STLB RFO       ACCESS:       2711  HIT:       2320  MISS:        391
cpu0_STLB PREFETCH  ACCESS:          0  HIT:          0  MISS:          0
cpu0_STLB WRITEBACK ACCESS:          0  HIT:          0  MISS:          0
cpu0_L1D TOTAL     ACCESS:    5288335  HIT:    4618917  MISS:     669418
cpu0_L1D LOAD      ACCESS:    4578150  HIT:    3943507  MISS:     634643
cpu0_L1D RFO       ACCESS:     693679  HIT:     659355  MISS:      34324
cpu0_L1D PREFETCH  ACCESS:          0  HIT:          0  MISS:          0
cpu0_L1D WRITEBACK ACCESS:          0  HIT:          0  MISS:          0
cpu0_L2C TOTAL     ACCESS:     721095  HIT:     155208  MISS:     565887
cpu0_L2C LOAD      ACCESS:     634715  HIT:      99991  MISS:     534724
cpu0_L2C RFO       ACCESS:      34321  HIT:       3325  MISS:      30996
cpu0_L2C PREFETCH  ACCESS:          0  HIT:          0  MISS:          0
cpu0_L2C WRITEBACK ACCESS:      51608  HIT:      51506  MISS:        102
LLC TOTAL     ACCESS:     612371  HIT:     161125  MISS:     451246
LLC LOAD      ACCESS:     534723  HIT:     123194  MISS:     411529
LLC RFO       ACCESS:      30996  HIT:      14310  MISS:      16686
LLC PREFETCH  ACCESS:          0  HIT:          0  MISS:          0
LLC WRITEBACK ACCESS:      46587  HIT:      23588  MISS:      22999
Heartbeat CPU 0 instructions: 98000003 cycles: 69669104 heartbeat IPC: 0.749811 cumulative IPC: 0.846475 (Simulation time: 1 hr 2 min 35 sec) 

Region of Interest Statistics
cpu0_DTLB TOTAL     ACCESS:    8491487  HIT:    8439299  MISS:      52188
cpu0_DTLB LOAD      ACCESS:    8001840  HIT:    7952431  MISS:      49409
cpu0_DTLB RFO       ACCESS:     489647  HIT:     486868  MISS:       2779
cpu0_DTLB PREFETCH  ACCESS:          0  HIT:          0  MISS:          0
cpu0_DTLB WRITEBACK ACCESS:          0  HIT:          0  MISS:          0
cpu0_ITLB TOTAL     ACCESS:    4172925  HIT:    4172923  MISS:          2
cpu0_ITLB LOAD      ACCESS:    4172925  HIT:    4172923  MISS:          2
cpu0_ITLB RFO       ACCESS:          0  HIT:          0  MISS:          0
cpu0_ITLB PREFETCH  ACCESS:          0  HIT:          0  MISS:          0
cpu0_ITLB WRITEBACK ACCESS:          0  HIT:          0  MISS:          0
cpu0_L1I TOTAL     ACCESS:      31294  HIT:      31222  MISS:         72
cpu0_L1I LOAD      ACCESS:      31294  HIT:      31222  MISS:         72
cpu0_L1I RFO       ACCESS:          0  HIT:          0  MISS:          0
cpu0_L1I PREFETCH  ACCESS:          0  HIT:          0  MISS:          0
cpu0_L1I WRITEBACK ACCESS:          0  HIT:          0  MISS:          0
cpu0_STLB TOTAL     ACCESS:      52190  HIT:      34151  MISS:      18039
cpu0_STLB LOAD      ACCESS:      49411  HIT:      31769  MISS:      17642
cpu0_STLB RFO       ACCESS:       2779  HIT:       2382  MISS:        397
cpu0_STLB PREFETCH  ACCESS:          0  HIT:          0  MISS:          0
cpu0_STLB WRITEBACK ACCESS:          0  HIT:          0  MISS:          0
cpu0_L1D TOTAL     ACCESS:    5525150  HIT:    4826675  MISS:     698475
cpu0_L1D LOAD      ACCESS:    4779438  HIT:    4116208  MISS:     663230
cpu0_L1D RFO       ACCESS:     728284  HIT:     693514  MISS:      34770
cpu0_L1D PREFETCH  ACCESS:          0  HIT:          0  MISS:          0
cpu0_L1D WRITEBACK ACCESS:          0  HIT:          0  MISS:          0
cpu0_L2C TOTAL     ACCESS:     750612  HIT:     161060  MISS:     589552
cpu0_L2C LOAD      ACCESS:     663302  HIT:     105364  MISS:     557938
cpu0_L2C RFO       ACCESS:      34767  HIT:       3325  MISS:      31442
cpu0_L2C PREFETCH  ACCESS:          0  HIT:          0  MISS:          0
cpu0_L2C WRITEBACK ACCESS:      52068  HIT:      51965  MISS:        103
LLC TOTAL     ACCESS:     636492  HIT:     166408  MISS:     470084
LLC LOAD      ACCESS:     557937  HIT:     127636  MISS:     430301
LLC RFO       ACCESS:      31442  HIT:      14697  MISS:      16745
LLC PREFETCH  ACCESS:          0  HIT:          0  MISS:          0
LLC WRITEBACK ACCESS:      47044  HIT:      24040  MISS:      23004
Heartbeat CPU 0 instructions: 100000000 cycles: 71778036 heartbeat IPC: 0.948346 cumulative IPC: 0.850128 (Simulation time: 1 hr 4 min 23 sec) 

Region of Interest Statistics
cpu0_DTLB TOTAL     ACCESS:    8878444  HIT:    8823847  MISS:      54597
cpu0_DTLB LOAD      ACCESS:    8298819  HIT:    8247445  MISS:      51374
cpu0_DTLB RFO       ACCESS:     579625  HIT:     576402  MISS:       3223
cpu0_DTLB PREFETCH  ACCESS:          0  HIT:          0  MISS:          0
cpu0_DTLB WRITEBACK ACCESS:          0  HIT:          0  MISS:          0
cpu0_ITLB TOTAL     ACCESS:    4323068  HIT:    4323042  MISS:         26
cpu0_ITLB LOAD      ACCESS:    4323068  HIT:    4323042  MISS:         26
cpu0_ITLB RFO       ACCESS:          0  HIT:          0  MISS:          0
cpu0_ITLB PREFETCH  ACCESS:          0  HIT:          0  MISS:          0
cpu0_ITLB WRITEBACK ACCESS:          0  HIT:          0  MISS:          0
cpu0_L1I TOTAL     ACCESS:      65102  HIT:      64612  MISS:        490
cpu0_L1I LOAD      ACCESS:      65102  HIT:      64612  MISS:        490
cpu0_L1I RFO       ACCESS:          0  HIT:          0  MISS:          0
cpu0_L1I PREFETCH  ACCESS:          0  HIT:          0  MISS:          0
cpu0_L1I WRITEBACK ACCESS:          0  HIT:          0  MISS:          0
cpu0_STLB TOTAL     ACCESS:      54623  HIT:      35683  MISS:      18940
cpu0_STLB LOAD      ACCESS:      51400  HIT:      33017  MISS:      18383
cpu0_STLB RFO       ACCESS:       3223  HIT:       2666  MISS:        557
cpu0_STLB PREFETCH  ACCESS:          0  HIT:          0  MISS:          0
cpu0_STLB WRITEBACK ACCESS:          0  HIT:          0  MISS:          0
cpu0_L1D TOTAL     ACCESS:    5900392  HIT:    5173063  MISS:     727329
cpu0_L1D LOAD      ACCESS:    4998724  HIT:    4317824  MISS:     680900
cpu0_L1D RFO       ACCESS:     883366  HIT:     837435  MISS:      45931
cpu0_L1D PREFETCH  ACCESS:          0  HIT:          0  MISS:          0
cpu0_L1D WRITEBACK ACCESS:          0  HIT:          0  MISS:          0
cpu0_L2C TOTAL     ACCESS:     792909  HIT:     180091  MISS:     612818
cpu0_L2C LOAD      ACCESS:     681390  HIT:     110347  MISS:     571043
cpu0_L2C RFO       ACCESS:      45928  HIT:       4343  MISS:      41585
cpu0_L2C PREFETCH  ACCESS:          0  HIT:          0  MISS:          0
cpu0_L2C WRITEBACK ACCESS:      65093  HIT:      64979  MISS:        114
LLC TOTAL     ACCESS:     664251  HIT:     171753  MISS:     492498
LLC LOAD      ACCESS:     571042  HIT:     131463  MISS:     439579
LLC RFO       ACCESS:      41585  HIT:      14916  MISS:      26669
LLC PREFETCH  ACCESS:          0  HIT:          0  MISS:          0
LLC WRITEBACK ACCESS:      51548  HIT:      25337  MISS:      26211
Heartbeat CPU 0 instructions: 102000003 cycles: 74270110 heartbeat IPC: 0.802546 cumulative IPC: 0.848194 (Simulation time: 1 hr 6 min 21 sec) 

Region of Interest Statistics
cpu0_DTLB TOTAL     ACCESS:    9207182  HIT:    9151914  MISS:      55268
cpu0_DTLB LOAD      ACCESS:    8608677  HIT:    8556696  MISS:      51981
cpu0_DTLB RFO       ACCESS:     598505  HIT:     595218  MISS:       3287
cpu0_DTLB PREFETCH  ACCESS:          0  HIT:          0  MISS:          0
cpu0_DTLB WRITEBACK ACCESS:          0  HIT:          0  MISS:          0
cpu0_ITLB TOTAL     ACCESS:    4499394  HIT:    4499366  MISS:         28
cpu0_ITLB LOAD      ACCESS:    4499394  HIT:    4499366  MISS:         28
cpu0_ITLB RFO       ACCESS:          0  HIT:          0  MISS:          0
cpu0_ITLB PREFETCH  ACCESS:          0  HIT:          0  MISS:          0
cpu0_ITLB WRITEBACK ACCESS:          0  HIT:          0  MISS:          0
cpu0_L1I TOTAL     ACCESS:      67593  HIT:      67032  MISS:        561
cpu0_L1I LOAD      ACCESS:      67593  HIT:      67032  MISS:        561
cpu0_L1I RFO       ACCESS:          0  HIT:          0  MISS:          0
cpu0_L1I PREFETCH  ACCESS:          0  HIT:          0  MISS:          0
cpu0_L1I WRITEBACK ACCESS:          0  HIT:          0  MISS:          0
cpu0_STLB TOTAL     ACCESS:      55296  HIT:      35991  MISS:      19305
cpu0_STLB LOAD      ACCESS:      52009  HIT:      33293  MISS:      18716
cpu0_STLB RFO       ACCESS:       3287  HIT:       2698  MISS:        589
cpu0_STLB PREFETCH  ACCESS:          0  HIT:          0  MISS:          0
cpu0_STLB WRITEBACK ACCESS:          0  HIT:          0  MISS:          0
cpu0_L1D TOTAL     ACCESS:    6109854  HIT:    5355778  MISS:     754076
cpu0_L1D LOAD      ACCESS:    5186362  HIT:    4481885  MISS:     704477
cpu0_L1D RFO       ACCESS:     904835  HIT:     855746  MISS:      49089
cpu0_L1D PREFETCH  ACCESS:          0  HIT:          0  MISS:          0
cpu0_L1D WRITEBACK ACCESS:          0  HIT:          0  MISS:          0
cpu0_L2C TOTAL     ACCESS:     823245  HIT:     186057  MISS:     637188
cpu0_L2C LOAD      ACCESS:     705038  HIT:     112614  MISS:     592424
cpu0_L2C RFO       ACCESS:      49086  HIT:       4519  MISS:      44567
cpu0_L2C PREFETCH  ACCESS:          0  HIT:          0  MISS:          0
cpu0_L2C WRITEBACK ACCESS:      68611  HIT:      68493  MISS:        118
LLC TOTAL     ACCESS:     698864  HIT:     177064  MISS:     521800
LLC LOAD      ACCESS:     592423  HIT:     134769  MISS:     457654
LLC RFO       ACCESS:      44567  HIT:      15913  MISS:      28654
LLC PREFETCH  ACCESS:          0  HIT:          0  MISS:          0
LLC WRITEBACK ACCESS:      61795  HIT:      26343  MISS:      35452
Heartbeat CPU 0 instructions: 104000003 cycles: 76562626 heartbeat IPC: 0.872404 cumulative IPC: 0.849066 (Simulation time: 1 hr 7 min 57 sec) 

Region of Interest Statistics
cpu0_DTLB TOTAL     ACCESS:    9558477  HIT:    9500832  MISS:      57645
cpu0_DTLB LOAD      ACCESS:    8941699  HIT:    8887393  MISS:      54306
cpu0_DTLB RFO       ACCESS:     616778  HIT:     613439  MISS:       3339
cpu0_DTLB PREFETCH  ACCESS:          0  HIT:          0  MISS:          0
cpu0_DTLB WRITEBACK ACCESS:          0  HIT:          0  MISS:          0
cpu0_ITLB TOTAL     ACCESS:    4671201  HIT:    4671173  MISS:         28
cpu0_ITLB LOAD      ACCESS:    4671201  HIT:    4671173  MISS:         28
cpu0_ITLB RFO       ACCESS:          0  HIT:          0  MISS:          0
cpu0_ITLB PREFETCH  ACCESS:          0  HIT:          0  MISS:          0
cpu0_ITLB WRITEBACK ACCESS:          0  HIT:          0  MISS:          0
cpu0_L1I TOTAL     ACCESS:      67593  HIT:      67032  MISS:        561
cpu0_L1I LOAD      ACCESS:      67593  HIT:      67032  MISS:        561
cpu0_L1I RFO       ACCESS:          0  HIT:          0  MISS:          0
cpu0_L1I PREFETCH  ACCESS:          0  HIT:          0  MISS:          0
cpu0_L1I WRITEBACK ACCESS:          0  HIT:          0  MISS:          0
cpu0_STLB TOTAL     ACCESS:      57673  HIT:      37424  MISS:      20249
cpu0_STLB LOAD      ACCESS:      54334  HIT:      34682  MISS:      19652
cpu0_STLB RFO       ACCESS:       3339  HIT:       2742  MISS:        597
cpu0_STLB PREFETCH  ACCESS:          0  HIT:          0  MISS:          0
cpu0_STLB WRITEBACK ACCESS:          0  HIT:          0  MISS:          0
cpu0_L1D TOTAL     ACCESS:    6343871  HIT:    5561766  MISS:     782105
cpu0_L1D LOAD      ACCESS:    5391978  HIT:    4660171  MISS:     731807
cpu0_L1D RFO       ACCESS:     932340  HIT:     882565  MISS:      49775
cpu0_L1D PREFETCH  ACCESS:          0  HIT:          0  MISS:          0
cpu0_L1D WRITEBACK ACCESS:          0  HIT:          0  MISS:          0
cpu0_L2C TOTAL     ACCESS:     851981  HIT:     190229  MISS:     661752
cpu0_L2C LOAD      ACCESS:     732368  HIT:     116071  MISS:     616297
cpu0_L2C RFO       ACCESS:      49772  HIT:       4519  MISS:      45253
cpu0_L2C PREFETCH  ACCESS:          0  HIT:          0  MISS:          0
cpu0_L2C WRITEBACK ACCESS:      69318  HIT:      69199  MISS:        119
LLC TOTAL     ACCESS:     723994  HIT:     185594  MISS:     538400
LLC LOAD      ACCESS:     616296  HIT:     142199  MISS:     474097
LLC RFO       ACCESS:      45253  HIT:      16445  MISS:      28808
LLC PREFETCH  ACCESS:          0  HIT:          0  MISS:          0
LLC WRITEBACK ACCESS:      62362  HIT:      26908  MISS:      35454
Heartbeat CPU 0 instructions: 106000000 cycles: 78676061 heartbeat IPC: 0.946325 cumulative IPC: 0.852194 (Simulation time: 1 hr 9 min 39 sec) 

Region of Interest Statistics
cpu0_DTLB TOTAL     ACCESS:    9907828  HIT:    9848767  MISS:      59061
cpu0_DTLB LOAD      ACCESS:    9271255  HIT:    9215651  MISS:      55604
cpu0_DTLB RFO       ACCESS:     636573  HIT:     633116  MISS:       3457
cpu0_DTLB PREFETCH  ACCESS:          0  HIT:          0  MISS:          0
cpu0_DTLB WRITEBACK ACCESS:          0  HIT:          0  MISS:          0
cpu0_ITLB TOTAL     ACCESS:    4848242  HIT:    4848213  MISS:         29
cpu0_ITLB LOAD      ACCESS:    4848242  HIT:    4848213  MISS:         29
cpu0_ITLB RFO       ACCESS:          0  HIT:          0  MISS:          0
cpu0_ITLB PREFETCH  ACCESS:          0  HIT:          0  MISS:          0
cpu0_ITLB WRITEBACK ACCESS:          0  HIT:          0  MISS:          0
cpu0_L1I TOTAL     ACCESS:      68929  HIT:      68327  MISS:        602
cpu0_L1I LOAD      ACCESS:      68929  HIT:      68327  MISS:        602
cpu0_L1I RFO       ACCESS:          0  HIT:          0  MISS:          0
cpu0_L1I PREFETCH  ACCESS:          0  HIT:          0  MISS:          0
cpu0_L1I WRITEBACK ACCESS:          0  HIT:          0  MISS:          0
cpu0_STLB TOTAL     ACCESS:      59090  HIT:      38253  MISS:      20837
cpu0_STLB LOAD      ACCESS:      55633  HIT:      35426  MISS:      20207
cpu0_STLB RFO       ACCESS:       3457  HIT:       2827  MISS:        630
cpu0_STLB PREFETCH  ACCESS:          0  HIT:          0  MISS:          0
cpu0_STLB WRITEBACK ACCESS:          0  HIT:          0  MISS:          0
cpu0_L1D TOTAL     ACCESS:    6556566  HIT:    5746605  MISS:     809961
cpu0_L1D LOAD      ACCESS:    5583049  HIT:    4826534  MISS:     756515
cpu0_L1D RFO       ACCESS:     953401  HIT:     900491  MISS:      52910
cpu0_L1D PREFETCH  ACCESS:          0  HIT:          0  MISS:          0
cpu0_L1D WRITEBACK ACCESS:          0  HIT:          0  MISS:          0
cpu0_L2C TOTAL     ACCESS:     883433  HIT:     197807  MISS:     685626
cpu0_L2C LOAD      ACCESS:     757117  HIT:     119916  MISS:     637201
cpu0_L2C RFO       ACCESS:      52907  HIT:       4700  MISS:      48207
cpu0_L2C PREFETCH  ACCESS:          0  HIT:          0  MISS:          0
[...]
cpu0_DTLB TOTAL     ACCESS:  264371580  HIT:  262676724  MISS:    1694856
cpu0_DTLB LOAD      ACCESS:  248186897  HIT:  246585917  MISS:    1600980
cpu0_DTLB RFO       ACCESS:   16184683  HIT:   16090807  MISS:      93876
cpu0_DTLB PREFETCH  ACCESS:          0  HIT:          0  MISS:          0
cpu0_DTLB WRITEBACK ACCESS:          0  HIT:          0  MISS:          0
cpu0_DTLB TRANSLATION ACCESS:          0  HIT:          0  MISS:          0
cpu0_DTLB PREFETCH  REQUESTED:          0  ISSUED:          0  USEFUL:          0  USELESS:          0
cpu0_DTLB AVERAGE MISS LATENCY: 12.1367 cycles
cpu0_ITLB TOTAL     ACCESS:  129994174  HIT:  129994137  MISS:         37
cpu0_ITLB LOAD      ACCESS:  129994174  HIT:  129994137  MISS:         37
cpu0_ITLB RFO       ACCESS:          0  HIT:          0  MISS:          0
cpu0_ITLB PREFETCH  ACCESS:          0  HIT:          0  MISS:          0
cpu0_ITLB WRITEBACK ACCESS:          0  HIT:          0  MISS:          0
cpu0_ITLB TRANSLATION ACCESS:          0  HIT:          0  MISS:          0
cpu0_ITLB PREFETCH  REQUESTED:          0  ISSUED:          0  USEFUL:          0  USELESS:          0
cpu0_ITLB AVERAGE MISS LATENCY: 143.378 cycles
cpu0_L1I TOTAL     ACCESS:    1489639  HIT:    1487730  MISS:       1909
cpu0_L1I LOAD      ACCESS:    1489639  HIT:    1487730  MISS:       1909
cpu0_L1I RFO       ACCESS:          0  HIT:          0  MISS:          0
cpu0_L1I PREFETCH  ACCESS:          0  HIT:          0  MISS:          0
cpu0_L1I WRITEBACK ACCESS:          0  HIT:          0  MISS:          0
cpu0_L1I TRANSLATION ACCESS:          0  HIT:          0  MISS:          0
cpu0_L1I PREFETCH  REQUESTED:          0  ISSUED:          0  USEFUL:          0  USELESS:          0
cpu0_L1I AVERAGE MISS LATENCY: 232.335 cycles
cpu0_STLB TOTAL     ACCESS:    1694893  HIT:    1126793  MISS:     568100
cpu0_STLB LOAD      ACCESS:    1601017  HIT:    1045802  MISS:     555215
cpu0_STLB RFO       ACCESS:      93876  HIT:      80991  MISS:      12885
cpu0_STLB PREFETCH  ACCESS:          0  HIT:          0  MISS:          0
cpu0_STLB WRITEBACK ACCESS:          0  HIT:          0  MISS:          0
cpu0_STLB TRANSLATION ACCESS:          0  HIT:          0  MISS:          0
cpu0_STLB PREFETCH  REQUESTED:          0  ISSUED:          0  USEFUL:          0  USELESS:          0
cpu0_STLB AVERAGE MISS LATENCY: 9.27637 cycles
cpu0_L1D TOTAL     ACCESS:  175204951  HIT:  153361228  MISS:   21843723
cpu0_L1D LOAD      ACCESS:  150214479  HIT:  129547187  MISS:   20667292
cpu0_L1D RFO       ACCESS:   24441823  HIT:   23279660  MISS:    1162163
cpu0_L1D PREFETCH  ACCESS:          0  HIT:          0  MISS:          0
cpu0_L1D WRITEBACK ACCESS:          0  HIT:          0  MISS:          0
cpu0_L1D TRANSLATION ACCESS:     548649  HIT:     534381  MISS:      14268
cpu0_L1D PREFETCH  REQUESTED:          0  ISSUED:          0  USEFUL:          0  USELESS:          0
cpu0_L1D AVERAGE MISS LATENCY: 173.642 cycles
cpu0_L2C TOTAL     ACCESS:   23548034  HIT:    5138412  MISS:   18409622
cpu0_L2C LOAD      ACCESS:   20669113  HIT:    3314141  MISS:   17354972
cpu0_L2C RFO       ACCESS:    1162030  HIT:     113242  MISS:    1048788
cpu0_L2C PREFETCH  ACCESS:          0  HIT:          0  MISS:          0
cpu0_L2C WRITEBACK ACCESS:    1702623  HIT:    1699084  MISS:       3539
cpu0_L2C TRANSLATION ACCESS:      14268  HIT:      11945  MISS:       2323
cpu0_L2C PREFETCH  REQUESTED:          0  ISSUED:          0  USEFUL:          0  USELESS:          0
cpu0_L2C AVERAGE MISS LATENCY: 192.961 cycles
LLC TOTAL     ACCESS:   19869103  HIT:    5271125  MISS:   14597978
LLC LOAD      ACCESS:   17354952  HIT:    4139364  MISS:   13215588
LLC RFO       ACCESS:    1048788  HIT:     426096  MISS:     622692
LLC PREFETCH  ACCESS:          0  HIT:          0  MISS:          0
LLC WRITEBACK ACCESS:    1463040  HIT:     704594  MISS:     758446
LLC TRANSLATION ACCESS:       2323  HIT:       1071  MISS:       1252
LLC PREFETCH  REQUESTED:          0  ISSUED:          0  USEFUL:          0  USELESS:          0
LLC AVERAGE MISS LATENCY: 216.866 cycles
~~~~~~~~~~Reuse Distance Profiler output~~~~~~~~~~
0	29428832	17007504
1	28099984	25154080
2	19513776	18530576
3	13218688	12394752
4	10402064	9885104
5	6059008	5708288
6	4442000	4107632
7	3005088	2700976
8	2032624	1860832
9	1551936	1411104
10	1317648	1051376
11	783168	642928
12	686224	583344
13	547280	457888
14	445696	361888
15	562224	422512
16	558704	482384
17	537376	458512
18	484144	397552
19	409024	299904
20	392272	282400
21	410464	301952
22	482240	344656
23	481680	385760
24	519216	423008
25	535888	424848
26	578928	473344
27	619968	537552
28	616112	519728
29	724640	587040
30	722816	607904
31	766096	649424
32	797328	729104
33	850384	766288
34	935296	860224
35	877072	814048
36	901376	822464
37	938528	860192
38	1035024	953856
39	1005280	961968
40	937328	891808
41	873968	844224
42	856032	829104
43	843216	820000
44	817184	794448
45	770112	715936
46	684416	652480
47	638176	619424
48	671136	653584
49	686912	669408
50	602144	591536
51	546256	529824
52	523072	511072
53	456480	446032
54	379296	369344
55	320096	310096
56	290320	280384
57	263344	255104
58	223632	217424
59	184192	175728
60	162912	156768
61	164848	158480
62	203488	183248
63	204992	166800
64	300144	280000
66	197152	171088
68	191728	169104
70	164384	151152
72	156880	148064
74	180928	172800
76	260224	253136
78	287440	280560
80	226176	219024
82	157216	150720
84	134128	128144
86	147328	142176
88	152752	146112
90	190064	168640
92	154048	142032
94	128688	109808
96	112912	92752
98	97200	85808
100	104752	85792
102	96880	82720
104	85264	76784
106	86080	76400
108	88736	79616
110	84704	73552
112	80512	61648
114	71728	44464
116	49968	35584
118	50976	31280
120	41488	26096
122	35760	25552
124	36768	25360
126	70624	29280
128	122736	106448
132	78896	63088
136	69456	58208
140	96544	85088
144	134128	124112
148	162224	153376
152	173440	165168
156	173664	166032
160	151696	144176
164	117568	111808
168	89568	83872
172	69792	64608
176	56336	50848
180	51808	46704
184	54432	49280
188	56528	51856
192	60560	55888
196	66384	60960
200	73888	68624
204	72832	67936
208	67808	63440
212	60944	56864
216	49104	44928
220	40080	35664
224	36272	32272
228	33008	29104
232	32544	28288
236	33744	28576
240	38752	31808
244	42624	32320
248	43040	31696
252	48256	29920
256	90512	69712
264	52304	40848
272	45776	38224
280	53200	43248
288	64976	47264
296	64544	43504
304	54720	32976
312	50432	32464
320	56528	40096
328	66224	50096
336	70336	56640
344	75152	61280
352	79280	64480
360	88752	74736
368	102544	88800
376	127328	113792
384	142432	131488
392	152464	143616
400	143792	135760
408	129232	121392
416	112768	106016
424	101856	93888
432	91520	81328
440	84368	71408
448	78880	66288
456	89760	76448
464	127104	109648
472	188336	164272
480	254032	221248
488	293600	256144
496	282880	247312
504	225104	193792
512	237808	202800
528	98992	83232
544	57440	46496
560	40688	33152
576	33424	24800
592	33648	26640
608	27488	21744
624	27072	17424
640	23008	17632
656	18544	15184
672	18656	14704
688	16400	13216
704	16080	12608
720	15120	12048
736	15312	12560
752	15456	12576
768	15296	12240
784	17072	14032
800	17280	14256
816	18960	15072
832	20208	14448
848	17760	14496
864	19424	16832
880	24272	20784
896	21872	18736
912	18096	15392
928	20160	17456
944	22592	19392
960	24992	22288
976	33760	30720
992	45120	41680
1008	51184	46528
1024	65904	58000
1056	33328	28512
1088	23456	19728
1120	21216	18128
1152	19792	16208
1184	18960	15456
1216	18336	14912
1248	16816	13872
1280	16064	12912
1312	16384	13216
1344	15840	12752
1376	16992	14080
1408	17536	15024
1440	20320	18256
1472	27808	25936
1504	31088	29024
1536	23952	22352
1568	21280	19264
1600	20128	18672
1632	13296	12144
1664	11904	10752
1696	12096	11104
1728	13376	12224
1760	11904	10544
1792	11344	10272
1824	12752	11568
1856	13296	12256
1888	13712	12736
1920	15712	14656
1952	19168	18096
1984	23136	22048
2016	24288	23296
2048	41856	40048
2112	28880	27344
2176	25632	24320
2240	26176	24192
2304	26368	24480
2368	25216	23360
2432	31264	29536
2496	33680	31648
2560	28064	25440
2624	27808	21088
2688	25568	18128
2752	21248	17216
2816	18000	16576
2880	20576	19024
2944	26048	24320
3008	26496	24672
3072	23472	21888
3136	19568	18688
3200	16688	15712
3264	15360	14592
3328	15232	14592
3392	18144	17968
3456	21120	21024
3520	21440	21248
3584	20160	20032
3648	17152	16992
3712	14832	14768
3776	13952	13856
3840	14960	14832
3904	17312	17088
3968	18496	18304
4032	19968	19888
4096	35024	34656
4224	32672	31872
4352	32800	32192
4480	38816	38560
4608	34512	33776
4736	31328	30752
4864	31728	31152
4992	36080	35696
5120	33296	33088
5248	31808	31456
5376	31888	31344
5504	33664	32688
5632	31568	30400
5760	28112	27248
5888	29056	28720
6016	30736	29728
6144	30624	29904
6272	27568	27120
6400	26816	26224
6528	29232	28592
6656	24816	24464
6784	26352	25728
6912	25088	24544
7040	26960	26432
7168	26576	26208
7296	24112	23136
7424	25856	24496
7552	25808	24672
7680	24352	23712
7808	23664	23120
7936	29840	22752
8064	24224	22800
8192	46608	44016
8448	47776	44448
8704	47824	43888
8960	45904	42816
9216	44128	43040
9472	44208	42896
9728	41488	40576
9984	42528	40640
10240	40720	38960
10496	40336	37760
10752	48688	38400
11008	40960	38160
11264	36688	35552
11520	37728	35136
11776	38288	34432
12032	37952	34592
12288	34992	34208
12544	36048	35040
12800	34800	33968
13056	33584	32416
13312	36336	32368
13568	34224	33136
13824	32144	31136
14080	31456	30624
14336	30176	29584
14592	30288	29472
14848	28928	28192
15104	29584	29088
15360	31120	29856
15616	29344	28608
15872	29856	29296
16128	29344	28400
16384	57632	54656
16896	55424	53952
17408	65952	54192
17920	55424	52528
18432	64144	50032
18944	55520	50560
19456	52576	48592
19968	54912	51840
20480	75856	72176
20992	48896	45952
21504	38832	36896
22016	36496	34192
22528	34016	32656
23040	30320	29360
23552	28368	28064
24064	25856	25552
24576	26048	25904
25088	23696	23440
25600	23296	23104
26112	22112	22016
26624	22592	22272
27136	22144	22048
27648	20080	19968
28160	19904	19776
28672	20736	20528
29184	19088	18944
29696	18496	18368
30208	18960	18832
30720	17904	17696
31232	18288	17872
31744	17888	17648
32256	18800	18656
32768	31440	31344
33792	31568	31152
34816	29872	29680
35840	28816	28656
36864	27152	27056
37888	26144	26064
38912	23984	23728
39936	24256	23968
40960	25744	25392
41984	23024	22784
43008	21536	21328
44032	20352	20064
45056	19024	18832
46080	17600	17440
47104	16944	16800
48128	16512	16096
49152	16464	16256
50176	14880	14816
51200	14208	14160
52224	16192	15840
53248	19584	19056
54272	20976	20672
55296	19968	19856
56320	24048	23968
57344	24512	24416
58368	22928	22832
59392	18816	18752
60416	21488	21456
61440	21328	21248
62464	19296	19264
63488	16688	16624
64512	15168	15168
65536	30912	30880
67584	25616	25616
69632	23824	23824
71680	21616	20720
73728	20832	19520
75776	20896	18016
77824	24000	16880
79872	24976	15936
81920	22944	16608
83968	19888	14816
86016	19376	14496
88064	18080	14240
90112	16304	12848
92160	16400	13056
94208	16032	12624
96256	15008	11776
98304	12960	11136
100352	13536	10752
102400	12384	9936
104448	13168	9920
106496	12016	9296
108544	10640	8304
110592	10016	7520
112640	10608	8032
114688	9520	7056
116736	9168	6752
118784	8880	7184
120832	8656	6960
122880	7840	6464
124928	9360	7504
126976	7584	6224
129024	7456	6368
131072	16448	13248
135168	15552	11936
139264	15952	13024
143360	14496	11728
147456	12256	9344
151552	12800	9664
155648	12976	10000
159744	13536	9872
163840	13408	10080
167936	12336	9184
172032	12240	8704
176128	12928	9824
180224	12240	9200
184320	12912	9328
188416	13120	8832
192512	13568	8912
196608	13696	9856
200704	12288	8544
204800	11376	7536
208896	10144	6336
212992	10416	6896
217088	10736	6352
221184	12160	8144
225280	13248	9808
229376	13376	9536
233472	12048	8176
237568	10608	7312
241664	10048	6768
245760	9664	6080
249856	10176	6656
253952	10384	6512
258048	9808	6096
262144	21104	13008
270336	20432	12208
278528	19536	11504
286720	17360	9152
294912	16848	7872
303104	17168	8496
311296	18032	10720
319488	15776	9120
327680	17088	10912
335872	16832	10464
344064	15552	9472
352256	16000	9056
360448	82208	76864
368640	14192	9824
376832	14384	8528
385024	44992	39072
393216	84720	82144
401408	10368	8080
409600	12480	9424
417792	12896	9824
425984	40288	34928
434176	36288	31088
442368	104016	100560
450560	38768	35264
458752	17184	11488
466944	63296	55296
475136	73392	62384
483328	268080	241536
491520	230928	200080
499712	949584	924032
507904	356688	345616
516096	183136	170032
524288	532112	505568
540672	497648	468512
557056	455248	434672
573440	513808	486864
589824	472928	460304
606208	234688	216176
622592	453312	433920
638976	422272	398400
655360	636592	610736
671744	545376	521856
688128	807856	777424
704512	767040	743152
720896	685184	656704
737280	720224	687456
753664	950560	918656
770048	767312	741136
786432	611216	592480
802816	522384	503776
819200	427888	412800
835584	557936	542384
851968	343664	336256
868352	211216	201696
884736	222448	217760
901120	101408	96688
917504	159248	148976
933888	443216	427328
950272	343936	337760
966656	186592	181264
983040	150896	147136
999424	41984	41504
1015808	13216	13008
1032192	18864	18608
1048576	31136	27360
1081344	144800	143312
1114112	8336	8144
1146880	34112	31776
1179648	16432	12576
1212416	126688	121440
1245184	147504	146672
1277952	10576	10368
1310720	14256	14096
1343488	13984	11200
1376256	67248	62768
1409024	158528	156160
1441792	4848	4128
1474560	7408	7408
1507328	7840	7824
1540096	2816	2816
1572864	3856	3840
1605632	4864	4848
1638400	4272	4272
1671168	7040	7024
1703936	2928	2928
1736704	2624	2592
1769472	1552	1536
1802240	1408	1360
1835008	2048	2048
1867776	1328	1312
1900544	1856	1856
1933312	864	864
1966080	1248	1200
1998848	1504	1504
2031616	1552	1552
2064384	1840	1840
2097152	3712	3712
2162688	3504	3440
2228224	5440	5376
2293760	7904	7904
2359296	11216	11216
2424832	5744	5712
2490368	11840	11840
2555904	10448	10448
2621440	3712	3680
2686976	2864	2832
2752512	4192	4144
2818048	2768	2752
2883584	2016	1984
2949120	3152	3136
3014656	6320	6304
3080192	3712	3712
3145728	4000	3968
3211264	2368	2352
3276800	2496	2496
3342336	1040	1040
3407872	3504	3488
3473408	7344	7312
3538944	2688	2688
3604480	1776	1776
3670016	1408	1408
3735552	6592	6560
3801088	2256	2224
3866624	2080	2064
3932160	960	944
3997696	3648	3616
4063232	3536	3504
4128768	3872	3824
4194304	5360	5312
4325376	3072	3024
4456448	2096	2096
4587520	1200	1136
4718592	9648	9600
4849664	4352	4288
4980736	2944	2880
5111808	1104	1056
5242880	960	880
5373952	3232	2672
5505024	6784	6128
5636096	4128	3328
5767168	560	528
5898240	1648	1536
6029312	3040	2704
6160384	6608	6304
6291456	3648	3296
6422528	1104	1104
6553600	4032	2512
6684672	4112	3472
6815744	4544	3792
6946816	1184	944
7077888	2128	1680
7208960	2192	2128
7340032	3888	3824
7471104	1888	1824
7602176	1120	1056
7733248	1376	1328
7864320	2528	1440
7995392	3424	2704
8126464	5696	5040
8257536	1680	1440
8388608	3600	2160
8650752	4240	2592
8912896	5168	4112
9175040	3552	3328
9437184	2384	2384
9699328	6336	5856
9961472	3328	3120
10223616	2032	1568
10485760	2240	1440
10747904	2288	1888
11010048	1168	1168
11272192	1488	1472
11534336	848	832
11796480	704	704
12058624	1536	1520
12320768	448	416
12582912	2160	2144
12845056	3200	3152
13107200	2224	2192
13369344	1520	1520
13631488	1536	1536
13893632	1104	1104
14155776	640	624
14417920	1248	1232
14680064	2880	2864
14942208	4672	4608
15204352	896	896
15466496	1552	1392
15728640	400	400
15990784	2432	2416
16252928	2592	2592
16515072	2768	2768
16777216	2528	2528
17301504	3136	3120
17825792	4896	4880
18350080	5536	5504
18874368	8496	8496
19398656	5984	5920
19922944	4768	4768
20447232	3152	3136
20971520	2064	2048
21495808	2784	2736
22020096	2896	2736
22544384	3232	3232
23068672	4656	4592
23592960	4736	4720
24117248	672	672
24641536	736	704
25165824	1104	1104
25690112	1392	1344
26214400	1216	1200
26738688	256	240
27262976	1168	1168
27787264	2912	2896
28311552	336	320
28835840	176	176
29360128	624	608
29884416	96	96
30408704	6896	6864
30932992	544	544
31457280	112	112
31981568	320	304
32505856	208	192
33030144	272	272
33554432	848	768
34603008	592	560
35651584	5040	5040
36700160	384	352
37748736	368	336
38797312	192	160
39845888	336	336
40894464	448	400
41943040	272	256
42991616	576	560
44040192	112	96
45088768	48	16
46137344	32	32
47185920	80	64
48234496	80	48
49283072	80	80
50331648	112	112
51380224	208	208
52428800	112	64
53477376	16	16
54525952	48	48
55574528	96	96
56623104	96	80
57671680	112	112
58720256	896	880
59768832	16	16
60817408	0	0
61865984	0	0
62914560	16	0
63963136	32	16
65011712	16	0
66060288	16	0
67108864	32	16
69206016	80	64
71303168	112	48
73400320	336	320
75497472	336	288
77594624	48	32
79691776	448	432
81788928	128	80
83886080	384	352
85983232	64	48
88080384	96	64
90177536	48	32
92274688	16	0
94371840	32	0
96468992	16	16
98566144	0	0
100663296	16	0
102760448	0	0
104857600	32	32
106954752	64	32
109051904	400	368
111149056	752	752
113246208	3280	3280
115343360	496	464
117440512	80	64
119537664	224	208
121634816	16	16
123731968	16	0
125829120	80	32
127926272	8752	144
130023424	1040	1040
132120576	16	16
134217728	32	32
138412032	0	0
142606336	0	0
146800640	0	0
150994944	0	0
155189248	0	0
159383552	0	0
163577856	0	0
167772160	0	0
171966464	0	0
176160768	0	0
180355072	0	0
184549376	0	0
188743680	0	0
192937984	0	0
197132288	0	0
201326592	0	0
205520896	0	0
209715200	0	0
213909504	0	0
218103808	0	0
222298112	0	0
226492416	0	0
230686720	0	0
234881024	0	0
239075328	0	0
243269632	0	0
247463936	0	0
251658240	0	0
255852544	0	0
260046848	0	0
264241152	0	0
268435456	0	0
276824064	0	0
285212672	0	0
293601280	0	0
301989888	0	0
310378496	0	0
318767104	0	0
327155712	0	0
335544320	0	0
343932928	0	0
352321536	0	0
360710144	0	0
369098752	0	0
377487360	0	0
385875968	0	0
394264576	0	0
402653184	0	0
411041792	0	0
419430400	0	0
427819008	0	0
436207616	0	0
444596224	0	0
452984832	0	0
461373440	0	0
469762048	0	0
478150656	0	0
486539264	0	0
494927872	0	0
503316480	0	0
511705088	0	0
520093696	0	0
528482304	0	0
536870912	0	0
553648128	0	0
570425344	0	0
587202560	0	0
603979776	0	0
620756992	0	0
637534208	0	0
654311424	0	0
671088640	0	0
687865856	0	0
704643072	0	0
721420288	0	0
738197504	0	0
754974720	0	0
771751936	0	0
788529152	0	0
805306368	0	0
822083584	0	0
838860800	0	0
855638016	0	0
872415232	0	0
889192448	0	0
905969664	0	0
922746880	0	0
939524096	0	0
956301312	0	0
973078528	0	0
989855744	0	0
1006632960	0	0
1023410176	0	0
1040187392	0	0
1056964608	0	0
1073741824	0	0
1107296256	0	0
1140850688	0	0
1174405120	0	0
1207959552	0	0
1241513984	0	0
1275068416	0	0
1308622848	0	0
1342177280	0	0
1375731712	0	0
1409286144	0	0
1442840576	0	0
1476395008	0	0
1509949440	0	0
1543503872	0	0
1577058304	0	0
1610612736	0	0
1644167168	0	0
1677721600	0	0
1711276032	0	0
1744830464	0	0
1778384896	0	0
1811939328	0	0
1845493760	0	0
1879048192	0	0
1912602624	0	0
1946157056	0	0
1979711488	0	0
2013265920	0	0
2046820352	0	0
2080374784	0	0
2113929216	0	0
2147483648	0	0
2214592512	0	0
2281701376	0	0
2348810240	0	0
2415919104	0	0
2483027968	0	0
2550136832	0	0
2617245696	0	0
2684354560	0	0
2751463424	0	0
2818572288	0	0
2885681152	0	0
2952790016	0	0
3019898880	0	0
3087007744	0	0
3154116608	0	0
3221225472	0	0
3288334336	0	0
3355443200	0	0
3422552064	0	0
3489660928	0	0
3556769792	0	0
3623878656	0	0
3690987520	0	0
3758096384	0	0
3825205248	0	0
3892314112	0	0
3959422976	0	0
4026531840	0	0
4093640704	0	0
4160749568	0	0
4227858432	0	0
~~~~~~~~~~Reuse Distance Profiler output end~~~~~~~~~~

Sampler size:9390

DRAM Statistics
 CHANNEL 0
 RQ ROW_BUFFER_HIT:    1321393  ROW_BUFFER_MISS:   12517302
 DBUS AVG_CONGESTED_CYCLE:    3.91398
 WQ ROW_BUFFER_HIT:     146502  ROW_BUFFER_MISS:     735885  FULL:          0


CPU 0 Branch Prediction Accuracy: 93.0427% MPKI: 6.39137 Average ROB Occupancy at Mispredict: 192.774
Branch type MPKI
BRANCH_DIRECT_JUMP: 5e-05
BRANCH_INDIRECT: 0.000114667
BRANCH_CONDITIONAL: 6.39098
BRANCH_DIRECT_CALL: 8.26667e-05
BRANCH_INDIRECT_CALL: 6.06667e-05
BRANCH_RETURN: 7.93333e-05

