
*** ChampSim Multicore Out-of-Order Simulator ***

Warmup Instructions: 50000000
Simulation Instructions: 1500000000
Number of CPUs: 1
Off-chip DRAM Size: 4 GiB Channels: 1 Width: 64-bit Data Rate: 3200 MT/s

VirtualMemory physical capacity: 8588881920 num_ppages: 2096895
VirtualMemory page size: 4096 log2_page_size: 12

CPU 0 runs /s/traces/champsim_traces/482.sphinx3-1522B.champsimtrace.xz
CPU 0 Bimodal branch predictor
Basic BTB sets: 1024 ways: 8 indirect buffer size: 4096 RAS size: 64
Initializing LRU.
Initializing LRU.
Initializing LRU.
Initializing LRU.
Initializing rdLRU.
Initializing LRU.
Initializing mockingjay of size: 4096
Heartbeat CPU 0 instructions: 2000003 cycles: 531726 heartbeat IPC: 3.76134 cumulative IPC: 3.76134 (Simulation time: 0 hr 0 min 48 sec) 
Heartbeat CPU 0 instructions: 4000002 cycles: 1036007 heartbeat IPC: 3.96604 cumulative IPC: 3.86098 (Simulation time: 0 hr 1 min 49 sec) 
Heartbeat CPU 0 instructions: 6000002 cycles: 1564704 heartbeat IPC: 3.78289 cumulative IPC: 3.83459 (Simulation time: 0 hr 2 min 58 sec) 
Heartbeat CPU 0 instructions: 8000001 cycles: 2072508 heartbeat IPC: 3.93853 cumulative IPC: 3.86006 (Simulation time: 0 hr 3 min 58 sec) 
Heartbeat CPU 0 instructions: 10000004 cycles: 2584510 heartbeat IPC: 3.90624 cumulative IPC: 3.86921 (Simulation time: 0 hr 5 min 5 sec) 
Heartbeat CPU 0 instructions: 12000002 cycles: 3113010 heartbeat IPC: 3.78429 cumulative IPC: 3.85479 (Simulation time: 0 hr 6 min 9 sec) 
Heartbeat CPU 0 instructions: 14000000 cycles: 3620417 heartbeat IPC: 3.94161 cumulative IPC: 3.86696 (Simulation time: 0 hr 7 min 9 sec) 
Heartbeat CPU 0 instructions: 16000002 cycles: 4169203 heartbeat IPC: 3.64441 cumulative IPC: 3.83766 (Simulation time: 0 hr 8 min 25 sec) 
Heartbeat CPU 0 instructions: 18000000 cycles: 4690626 heartbeat IPC: 3.83565 cumulative IPC: 3.83744 (Simulation time: 0 hr 9 min 26 sec) 
Heartbeat CPU 0 instructions: 20000003 cycles: 5205525 heartbeat IPC: 3.88426 cumulative IPC: 3.84207 (Simulation time: 0 hr 10 min 33 sec) 
Heartbeat CPU 0 instructions: 22000003 cycles: 5726950 heartbeat IPC: 3.83564 cumulative IPC: 3.84149 (Simulation time: 0 hr 11 min 36 sec) 
Heartbeat CPU 0 instructions: 24000003 cycles: 6239985 heartbeat IPC: 3.89837 cumulative IPC: 3.84616 (Simulation time: 0 hr 12 min 41 sec) 
Heartbeat CPU 0 instructions: 26000001 cycles: 6761255 heartbeat IPC: 3.83678 cumulative IPC: 3.84544 (Simulation time: 0 hr 13 min 45 sec) 
Heartbeat CPU 0 instructions: 28000000 cycles: 7272966 heartbeat IPC: 3.90845 cumulative IPC: 3.84987 (Simulation time: 0 hr 14 min 53 sec) 
Heartbeat CPU 0 instructions: 30000003 cycles: 7794156 heartbeat IPC: 3.83738 cumulative IPC: 3.84904 (Simulation time: 0 hr 15 min 54 sec) 
Heartbeat CPU 0 instructions: 32000001 cycles: 8305090 heartbeat IPC: 3.9144 cumulative IPC: 3.85306 (Simulation time: 0 hr 16 min 58 sec) 
Heartbeat CPU 0 instructions: 34000001 cycles: 8826076 heartbeat IPC: 3.83887 cumulative IPC: 3.85222 (Simulation time: 0 hr 18 min 1 sec) 
Heartbeat CPU 0 instructions: 36000001 cycles: 9340675 heartbeat IPC: 3.88652 cumulative IPC: 3.85411 (Simulation time: 0 hr 19 min 6 sec) 
Heartbeat CPU 0 instructions: 38000001 cycles: 9860366 heartbeat IPC: 3.84844 cumulative IPC: 3.85381 (Simulation time: 0 hr 20 min 9 sec) 
Heartbeat CPU 0 instructions: 40000000 cycles: 10375505 heartbeat IPC: 3.88245 cumulative IPC: 3.85523 (Simulation time: 0 hr 21 min 14 sec) 
Heartbeat CPU 0 instructions: 42000003 cycles: 10896861 heartbeat IPC: 3.83616 cumulative IPC: 3.85432 (Simulation time: 0 hr 22 min 14 sec) 
Heartbeat CPU 0 instructions: 44000001 cycles: 11406438 heartbeat IPC: 3.92482 cumulative IPC: 3.85747 (Simulation time: 0 hr 23 min 21 sec) 
Heartbeat CPU 0 instructions: 46000002 cycles: 11936437 heartbeat IPC: 3.77359 cumulative IPC: 3.85375 (Simulation time: 0 hr 24 min 25 sec) 
Heartbeat CPU 0 instructions: 48000004 cycles: 12442092 heartbeat IPC: 3.95527 cumulative IPC: 3.85787 (Simulation time: 0 hr 25 min 26 sec) 
Heartbeat CPU 0 instructions: 50000001 cycles: 12976272 heartbeat IPC: 3.74405 cumulative IPC: 3.85319 (Simulation time: 0 hr 26 min 32 sec) 

Warmup complete CPU 0 instructions: 50000001 cycles: 12976272 (Simulation time: 0 hr 26 min 32 sec) 

Heartbeat CPU 0 instructions: 52000002 cycles: 13890290 heartbeat IPC: 2.18814 cumulative IPC: 2.18814 (Simulation time: 0 hr 27 min 41 sec) 

Region of Interest Statistics
cpu0_DTLB TOTAL     ACCESS:     324713  HIT:     323562  MISS:       1151
cpu0_DTLB LOAD      ACCESS:     312580  HIT:     311456  MISS:       1124
cpu0_DTLB RFO       ACCESS:      12133  HIT:      12106  MISS:         27
cpu0_DTLB PREFETCH  ACCESS:          0  HIT:          0  MISS:          0
cpu0_DTLB WRITEBACK ACCESS:          0  HIT:          0  MISS:          0
cpu0_ITLB TOTAL     ACCESS:     184695  HIT:     184695  MISS:          0
cpu0_ITLB LOAD      ACCESS:     184695  HIT:     184695  MISS:          0
cpu0_ITLB RFO       ACCESS:          0  HIT:          0  MISS:          0
cpu0_ITLB PREFETCH  ACCESS:          0  HIT:          0  MISS:          0
cpu0_ITLB WRITEBACK ACCESS:          0  HIT:          0  MISS:          0
cpu0_L1I TOTAL     ACCESS:         48  HIT:         48  MISS:          0
cpu0_L1I LOAD      ACCESS:         48  HIT:         48  MISS:          0
cpu0_L1I RFO       ACCESS:          0  HIT:          0  MISS:          0
cpu0_L1I PREFETCH  ACCESS:          0  HIT:          0  MISS:          0
cpu0_L1I WRITEBACK ACCESS:          0  HIT:          0  MISS:          0
cpu0_STLB TOTAL     ACCESS:       1151  HIT:        618  MISS:        533
cpu0_STLB LOAD      ACCESS:       1124  HIT:        592  MISS:        532
cpu0_STLB RFO       ACCESS:         27  HIT:         26  MISS:          1
cpu0_STLB PREFETCH  ACCESS:          0  HIT:          0  MISS:          0
cpu0_STLB WRITEBACK ACCESS:          0  HIT:          0  MISS:          0
cpu0_L1D TOTAL     ACCESS:     234337  HIT:     207058  MISS:      27279
cpu0_L1D LOAD      ACCESS:     215782  HIT:     189313  MISS:      26469
cpu0_L1D RFO       ACCESS:      18057  HIT:      17251  MISS:        806
cpu0_L1D PREFETCH  ACCESS:          0  HIT:          0  MISS:          0
cpu0_L1D WRITEBACK ACCESS:          0  HIT:          0  MISS:          0
cpu0_L2C TOTAL     ACCESS:      28114  HIT:       1764  MISS:      26350
cpu0_L2C LOAD      ACCESS:      26469  HIT:        929  MISS:      25540
cpu0_L2C RFO       ACCESS:        806  HIT:          0  MISS:        806
cpu0_L2C PREFETCH  ACCESS:          0  HIT:          0  MISS:          0
cpu0_L2C WRITEBACK ACCESS:        835  HIT:        834  MISS:          1
LLC TOTAL     ACCESS:      29433  HIT:      28135  MISS:       1298
LLC LOAD      ACCESS:      25540  HIT:      24276  MISS:       1264
LLC RFO       ACCESS:        806  HIT:        799  MISS:          7
LLC PREFETCH  ACCESS:          0  HIT:          0  MISS:          0
LLC WRITEBACK ACCESS:       3084  HIT:       3057  MISS:         27
Heartbeat CPU 0 instructions: 54000001 cycles: 14995825 heartbeat IPC: 1.80908 cumulative IPC: 1.98064 (Simulation time: 0 hr 29 min 0 sec) 

Region of Interest Statistics
cpu0_DTLB TOTAL     ACCESS:     677091  HIT:     671488  MISS:       5603
cpu0_DTLB LOAD      ACCESS:     642795  HIT:     637384  MISS:       5411
cpu0_DTLB RFO       ACCESS:      34296  HIT:      34104  MISS:        192
cpu0_DTLB PREFETCH  ACCESS:          0  HIT:          0  MISS:          0
cpu0_DTLB WRITEBACK ACCESS:          0  HIT:          0  MISS:          0
cpu0_ITLB TOTAL     ACCESS:     352121  HIT:     352121  MISS:          0
cpu0_ITLB LOAD      ACCESS:     352121  HIT:     352121  MISS:          0
cpu0_ITLB RFO       ACCESS:          0  HIT:          0  MISS:          0
cpu0_ITLB PREFETCH  ACCESS:          0  HIT:          0  MISS:          0
cpu0_ITLB WRITEBACK ACCESS:          0  HIT:          0  MISS:          0
cpu0_L1I TOTAL     ACCESS:       1571  HIT:       1571  MISS:          0
cpu0_L1I LOAD      ACCESS:       1571  HIT:       1571  MISS:          0
cpu0_L1I RFO       ACCESS:          0  HIT:          0  MISS:          0
cpu0_L1I PREFETCH  ACCESS:          0  HIT:          0  MISS:          0
cpu0_L1I WRITEBACK ACCESS:          0  HIT:          0  MISS:          0
cpu0_STLB TOTAL     ACCESS:       5603  HIT:       3945  MISS:       1658
cpu0_STLB LOAD      ACCESS:       5411  HIT:       3780  MISS:       1631
cpu0_STLB RFO       ACCESS:        192  HIT:        165  MISS:         27
cpu0_STLB PREFETCH  ACCESS:          0  HIT:          0  MISS:          0
cpu0_STLB WRITEBACK ACCESS:          0  HIT:          0  MISS:          0
cpu0_L1D TOTAL     ACCESS:     490816  HIT:     433927  MISS:      56889
cpu0_L1D LOAD      ACCESS:     435752  HIT:     381042  MISS:      54710
cpu0_L1D RFO       ACCESS:      53504  HIT:      51343  MISS:       2161
cpu0_L1D PREFETCH  ACCESS:          0  HIT:          0  MISS:          0
cpu0_L1D WRITEBACK ACCESS:          0  HIT:          0  MISS:          0
cpu0_L2C TOTAL     ACCESS:      59156  HIT:       8140  MISS:      51016
cpu0_L2C LOAD      ACCESS:      54710  HIT:       5874  MISS:      48836
cpu0_L2C RFO       ACCESS:       2161  HIT:          7  MISS:       2154
cpu0_L2C PREFETCH  ACCESS:          0  HIT:          0  MISS:          0
cpu0_L2C WRITEBACK ACCESS:       2267  HIT:       2251  MISS:         16
LLC TOTAL     ACCESS:      55147  HIT:      52338  MISS:       2809
LLC LOAD      ACCESS:      48836  HIT:      46114  MISS:       2722
LLC RFO       ACCESS:       2154  HIT:       2109  MISS:         45
LLC PREFETCH  ACCESS:          0  HIT:          0  MISS:          0
LLC WRITEBACK ACCESS:       4147  HIT:       4107  MISS:         40
Heartbeat CPU 0 instructions: 56000001 cycles: 15806896 heartbeat IPC: 2.46588 cumulative IPC: 2.11967 (Simulation time: 0 hr 30 min 11 sec) 

Region of Interest Statistics
cpu0_DTLB TOTAL     ACCESS:     999234  HIT:     993008  MISS:       6226
cpu0_DTLB LOAD      ACCESS:     952578  HIT:     946600  MISS:       5978
cpu0_DTLB RFO       ACCESS:      46656  HIT:      46408  MISS:        248
cpu0_DTLB PREFETCH  ACCESS:          0  HIT:          0  MISS:          0
cpu0_DTLB WRITEBACK ACCESS:          0  HIT:          0  MISS:          0
cpu0_ITLB TOTAL     ACCESS:     550662  HIT:     550662  MISS:          0
cpu0_ITLB LOAD      ACCESS:     550662  HIT:     550662  MISS:          0
cpu0_ITLB RFO       ACCESS:          0  HIT:          0  MISS:          0
cpu0_ITLB PREFETCH  ACCESS:          0  HIT:          0  MISS:          0
cpu0_ITLB WRITEBACK ACCESS:          0  HIT:          0  MISS:          0
cpu0_L1I TOTAL     ACCESS:       1662  HIT:       1662  MISS:          0
cpu0_L1I LOAD      ACCESS:       1662  HIT:       1662  MISS:          0
cpu0_L1I RFO       ACCESS:          0  HIT:          0  MISS:          0
cpu0_L1I PREFETCH  ACCESS:          0  HIT:          0  MISS:          0
cpu0_L1I WRITEBACK ACCESS:          0  HIT:          0  MISS:          0
cpu0_STLB TOTAL     ACCESS:       6226  HIT:       4239  MISS:       1987
cpu0_STLB LOAD      ACCESS:       5978  HIT:       4034  MISS:       1944
cpu0_STLB RFO       ACCESS:        248  HIT:        205  MISS:         43
cpu0_STLB PREFETCH  ACCESS:          0  HIT:          0  MISS:          0
cpu0_STLB WRITEBACK ACCESS:          0  HIT:          0  MISS:          0
cpu0_L1D TOTAL     ACCESS:     712047  HIT:     628104  MISS:      83943
cpu0_L1D LOAD      ACCESS:     643836  HIT:     564600  MISS:      79236
cpu0_L1D RFO       ACCESS:      66343  HIT:      61655  MISS:       4688
cpu0_L1D PREFETCH  ACCESS:          0  HIT:          0  MISS:          0
cpu0_L1D WRITEBACK ACCESS:          0  HIT:          0  MISS:          0
cpu0_L2C TOTAL     ACCESS:      89489  HIT:      13946  MISS:      75543
cpu0_L2C LOAD      ACCESS:      79236  HIT:       8147  MISS:      71089
cpu0_L2C RFO       ACCESS:       4688  HIT:        260  MISS:       4428
cpu0_L2C PREFETCH  ACCESS:          0  HIT:          0  MISS:          0
cpu0_L2C WRITEBACK ACCESS:       5546  HIT:       5530  MISS:         16
LLC TOTAL     ACCESS:      83115  HIT:      79678  MISS:       3437
LLC LOAD      ACCESS:      71089  HIT:      67799  MISS:       3290
LLC RFO       ACCESS:       4428  HIT:       4357  MISS:         71
LLC PREFETCH  ACCESS:          0  HIT:          0  MISS:          0
LLC WRITEBACK ACCESS:       7588  HIT:       7514  MISS:         74
Heartbeat CPU 0 instructions: 58000002 cycles: 16969728 heartbeat IPC: 1.71994 cumulative IPC: 2.00328 (Simulation time: 0 hr 31 min 29 sec) 

Region of Interest Statistics
cpu0_DTLB TOTAL     ACCESS:    1363930  HIT:    1352783  MISS:      11147
cpu0_DTLB LOAD      ACCESS:    1293927  HIT:    1283190  MISS:      10737
cpu0_DTLB RFO       ACCESS:      70003  HIT:      69593  MISS:        410
cpu0_DTLB PREFETCH  ACCESS:          0  HIT:          0  MISS:          0
cpu0_DTLB WRITEBACK ACCESS:          0  HIT:          0  MISS:          0
cpu0_ITLB TOTAL     ACCESS:     726721  HIT:     726721  MISS:          0
cpu0_ITLB LOAD      ACCESS:     726721  HIT:     726721  MISS:          0
cpu0_ITLB RFO       ACCESS:          0  HIT:          0  MISS:          0
cpu0_ITLB PREFETCH  ACCESS:          0  HIT:          0  MISS:          0
cpu0_ITLB WRITEBACK ACCESS:          0  HIT:          0  MISS:          0
cpu0_L1I TOTAL     ACCESS:       2399  HIT:       2399  MISS:          0
cpu0_L1I LOAD      ACCESS:       2399  HIT:       2399  MISS:          0
cpu0_L1I RFO       ACCESS:          0  HIT:          0  MISS:          0
cpu0_L1I PREFETCH  ACCESS:          0  HIT:          0  MISS:          0
cpu0_L1I WRITEBACK ACCESS:          0  HIT:          0  MISS:          0
cpu0_STLB TOTAL     ACCESS:      11147  HIT:       7885  MISS:       3262
cpu0_STLB LOAD      ACCESS:      10737  HIT:       7532  MISS:       3205
cpu0_STLB RFO       ACCESS:        410  HIT:        353  MISS:         57
cpu0_STLB PREFETCH  ACCESS:          0  HIT:          0  MISS:          0
cpu0_STLB WRITEBACK ACCESS:          0  HIT:          0  MISS:          0
cpu0_L1D TOTAL     ACCESS:     970438  HIT:     856313  MISS:     114125
cpu0_L1D LOAD      ACCESS:     862633  HIT:     753937  MISS:     108696
cpu0_L1D RFO       ACCESS:     104745  HIT:      99349  MISS:       5396
cpu0_L1D PREFETCH  ACCESS:          0  HIT:          0  MISS:          0
cpu0_L1D WRITEBACK ACCESS:          0  HIT:          0  MISS:          0
cpu0_L2C TOTAL     ACCESS:     120811  HIT:      20752  MISS:     100059
cpu0_L2C LOAD      ACCESS:     108696  HIT:      13813  MISS:      94883
cpu0_L2C RFO       ACCESS:       5396  HIT:        269  MISS:       5127
cpu0_L2C PREFETCH  ACCESS:          0  HIT:          0  MISS:          0
cpu0_L2C WRITEBACK ACCESS:       6686  HIT:       6657  MISS:         29
LLC TOTAL     ACCESS:     108076  HIT:     102589  MISS:       5487
LLC LOAD      ACCESS:      94883  HIT:      89562  MISS:       5321
LLC RFO       ACCESS:       5127  HIT:       5047  MISS:         80
LLC PREFETCH  ACCESS:          0  HIT:          0  MISS:          0
LLC WRITEBACK ACCESS:       8046  HIT:       7964  MISS:         82
Heartbeat CPU 0 instructions: 60000002 cycles: 17815846 heartbeat IPC: 2.36374 cumulative IPC: 2.0663 (Simulation time: 0 hr 32 min 41 sec) 

Region of Interest Statistics
cpu0_DTLB TOTAL     ACCESS:    1683718  HIT:    1671642  MISS:      12076
cpu0_DTLB LOAD      ACCESS:    1599301  HIT:    1587707  MISS:      11594
cpu0_DTLB RFO       ACCESS:      84417  HIT:      83935  MISS:        482
cpu0_DTLB PREFETCH  ACCESS:          0  HIT:          0  MISS:          0
cpu0_DTLB WRITEBACK ACCESS:          0  HIT:          0  MISS:          0
cpu0_ITLB TOTAL     ACCESS:     912503  HIT:     912503  MISS:          0
cpu0_ITLB LOAD      ACCESS:     912503  HIT:     912503  MISS:          0
cpu0_ITLB RFO       ACCESS:          0  HIT:          0  MISS:          0
cpu0_ITLB PREFETCH  ACCESS:          0  HIT:          0  MISS:          0
cpu0_ITLB WRITEBACK ACCESS:          0  HIT:          0  MISS:          0
cpu0_L1I TOTAL     ACCESS:       3406  HIT:       3406  MISS:          0
cpu0_L1I LOAD      ACCESS:       3406  HIT:       3406  MISS:          0
cpu0_L1I RFO       ACCESS:          0  HIT:          0  MISS:          0
cpu0_L1I PREFETCH  ACCESS:          0  HIT:          0  MISS:          0
cpu0_L1I WRITEBACK ACCESS:          0  HIT:          0  MISS:          0
cpu0_STLB TOTAL     ACCESS:      12076  HIT:       8460  MISS:       3616
cpu0_STLB LOAD      ACCESS:      11594  HIT:       8065  MISS:       3529
cpu0_STLB RFO       ACCESS:        482  HIT:        395  MISS:         87
cpu0_STLB PREFETCH  ACCESS:          0  HIT:          0  MISS:          0
cpu0_STLB WRITEBACK ACCESS:          0  HIT:          0  MISS:          0
cpu0_L1D TOTAL     ACCESS:    1196189  HIT:    1054386  MISS:     141803
cpu0_L1D LOAD      ACCESS:    1072282  HIT:     939086  MISS:     133196
cpu0_L1D RFO       ACCESS:     120509  HIT:     111941  MISS:       8568
cpu0_L1D PREFETCH  ACCESS:          0  HIT:          0  MISS:          0
cpu0_L1D WRITEBACK ACCESS:          0  HIT:          0  MISS:          0
cpu0_L2C TOTAL     ACCESS:     152079  HIT:      27072  MISS:     125007
cpu0_L2C LOAD      ACCESS:     133196  HIT:      16287  MISS:     116909
cpu0_L2C RFO       ACCESS:       8568  HIT:        523  MISS:       8045
cpu0_L2C PREFETCH  ACCESS:          0  HIT:          0  MISS:          0
cpu0_L2C WRITEBACK ACCESS:      10276  HIT:      10244  MISS:         32
LLC TOTAL     ACCESS:     136805  HIT:     130645  MISS:       6160
LLC LOAD      ACCESS:     116909  HIT:     111006  MISS:       5903
LLC RFO       ACCESS:       8045  HIT:       7922  MISS:        123
LLC PREFETCH  ACCESS:          0  HIT:          0  MISS:          0
LLC WRITEBACK ACCESS:      11830  HIT:      11700  MISS:        130
Heartbeat CPU 0 instructions: 62000003 cycles: 18870801 heartbeat IPC: 1.89582 cumulative IPC: 2.03579 (Simulation time: 0 hr 34 min 0 sec) 

Region of Interest Statistics
cpu0_DTLB TOTAL     ACCESS:    2032677  HIT:    2017039  MISS:      15638
cpu0_DTLB LOAD      ACCESS:    1928894  HIT:    1913790  MISS:      15104
cpu0_DTLB RFO       ACCESS:     103783  HIT:     103249  MISS:        534
cpu0_DTLB PREFETCH  ACCESS:          0  HIT:          0  MISS:          0
cpu0_DTLB WRITEBACK ACCESS:          0  HIT:          0  MISS:          0
cpu0_ITLB TOTAL     ACCESS:    1086829  HIT:    1086829  MISS:          0
cpu0_ITLB LOAD      ACCESS:    1086829  HIT:    1086829  MISS:          0
cpu0_ITLB RFO       ACCESS:          0  HIT:          0  MISS:          0
cpu0_ITLB PREFETCH  ACCESS:          0  HIT:          0  MISS:          0
cpu0_ITLB WRITEBACK ACCESS:          0  HIT:          0  MISS:          0
cpu0_L1I TOTAL     ACCESS:       3439  HIT:       3439  MISS:          0
cpu0_L1I LOAD      ACCESS:       3439  HIT:       3439  MISS:          0
cpu0_L1I RFO       ACCESS:          0  HIT:          0  MISS:          0
cpu0_L1I PREFETCH  ACCESS:          0  HIT:          0  MISS:          0
cpu0_L1I WRITEBACK ACCESS:          0  HIT:          0  MISS:          0
cpu0_STLB TOTAL     ACCESS:      15638  HIT:      11018  MISS:       4620
cpu0_STLB LOAD      ACCESS:      15104  HIT:      10577  MISS:       4527
cpu0_STLB RFO       ACCESS:        534  HIT:        441  MISS:         93
cpu0_STLB PREFETCH  ACCESS:          0  HIT:          0  MISS:          0
cpu0_STLB WRITEBACK ACCESS:          0  HIT:          0  MISS:          0
cpu0_L1D TOTAL     ACCESS:    1445668  HIT:    1274648  MISS:     171020
cpu0_L1D LOAD      ACCESS:    1289641  HIT:    1127965  MISS:     161676
cpu0_L1D RFO       ACCESS:     151697  HIT:     142400  MISS:       9297
cpu0_L1D PREFETCH  ACCESS:          0  HIT:          0  MISS:          0
cpu0_L1D WRITEBACK ACCESS:          0  HIT:          0  MISS:          0
cpu0_L2C TOTAL     ACCESS:     182028  HIT:      31953  MISS:     150075
cpu0_L2C LOAD      ACCESS:     161676  HIT:      20433  MISS:     141243
cpu0_L2C RFO       ACCESS:       9297  HIT:        523  MISS:       8774
cpu0_L2C PREFETCH  ACCESS:          0  HIT:          0  MISS:          0
cpu0_L2C WRITEBACK ACCESS:      11008  HIT:      10975  MISS:         33
LLC TOTAL     ACCESS:     162603  HIT:     154692  MISS:       7911
LLC LOAD      ACCESS:     141243  HIT:     133600  MISS:       7643
LLC RFO       ACCESS:       8774  HIT:       8645  MISS:        129
LLC PREFETCH  ACCESS:          0  HIT:          0  MISS:          0
LLC WRITEBACK ACCESS:      12561  HIT:      12426  MISS:        135
Heartbeat CPU 0 instructions: 64000004 cycles: 19810478 heartbeat IPC: 2.12839 cumulative IPC: 2.04852 (Simulation time: 0 hr 35 min 5 sec) 

Region of Interest Statistics
cpu0_DTLB TOTAL     ACCESS:    2370055  HIT:    2352076  MISS:      17979
cpu0_DTLB LOAD      ACCESS:    2247875  HIT:    2230621  MISS:      17254
cpu0_DTLB RFO       ACCESS:     122180  HIT:     121455  MISS:        725
cpu0_DTLB PREFETCH  ACCESS:          0  HIT:          0  MISS:          0
cpu0_DTLB WRITEBACK ACCESS:          0  HIT:          0  MISS:          0
cpu0_ITLB TOTAL     ACCESS:    1274420  HIT:    1274420  MISS:          0
cpu0_ITLB LOAD      ACCESS:    1274420  HIT:    1274420  MISS:          0
cpu0_ITLB RFO       ACCESS:          0  HIT:          0  MISS:          0
cpu0_ITLB PREFETCH  ACCESS:          0  HIT:          0  MISS:          0
cpu0_ITLB WRITEBACK ACCESS:          0  HIT:          0  MISS:          0
cpu0_L1I TOTAL     ACCESS:       5120  HIT:       5120  MISS:          0
cpu0_L1I LOAD      ACCESS:       5120  HIT:       5120  MISS:          0
cpu0_L1I RFO       ACCESS:          0  HIT:          0  MISS:          0
cpu0_L1I PREFETCH  ACCESS:          0  HIT:          0  MISS:          0
cpu0_L1I WRITEBACK ACCESS:          0  HIT:          0  MISS:          0
cpu0_STLB TOTAL     ACCESS:      17979  HIT:      12714  MISS:       5265
cpu0_STLB LOAD      ACCESS:      17254  HIT:      12121  MISS:       5133
cpu0_STLB RFO       ACCESS:        725  HIT:        593  MISS:        132
cpu0_STLB PREFETCH  ACCESS:          0  HIT:          0  MISS:          0
cpu0_STLB WRITEBACK ACCESS:          0  HIT:          0  MISS:          0
cpu0_L1D TOTAL     ACCESS:    1682049  HIT:    1482413  MISS:     199636
cpu0_L1D LOAD      ACCESS:    1502273  HIT:    1315148  MISS:     187125
cpu0_L1D RFO       ACCESS:     174835  HIT:     162383  MISS:      12452
cpu0_L1D PREFETCH  ACCESS:          0  HIT:          0  MISS:          0
cpu0_L1D WRITEBACK ACCESS:          0  HIT:          0  MISS:          0
cpu0_L2C TOTAL     ACCESS:     214697  HIT:      40140  MISS:     174557
cpu0_L2C LOAD      ACCESS:     187125  HIT:      24313  MISS:     162812
cpu0_L2C RFO       ACCESS:      12452  HIT:        786  MISS:      11666
cpu0_L2C PREFETCH  ACCESS:          0  HIT:          0  MISS:          0
cpu0_L2C WRITEBACK ACCESS:      15061  HIT:      15013  MISS:         48
LLC TOTAL     ACCESS:     190378  HIT:     181518  MISS:       8860
LLC LOAD      ACCESS:     162812  HIT:     154347  MISS:       8465
LLC RFO       ACCESS:      11666  HIT:      11469  MISS:        197
LLC PREFETCH  ACCESS:          0  HIT:          0  MISS:          0
LLC WRITEBACK ACCESS:      15869  HIT:      15676  MISS:        193
Heartbeat CPU 0 instructions: 66000004 cycles: 20792916 heartbeat IPC: 2.03575 cumulative IPC: 2.04691 (Simulation time: 0 hr 36 min 3 sec) 

Region of Interest Statistics
cpu0_DTLB TOTAL     ACCESS:    2704862  HIT:    2684794  MISS:      20068
cpu0_DTLB LOAD      ACCESS:    2567010  HIT:    2547706  MISS:      19304
cpu0_DTLB RFO       ACCESS:     137852  HIT:     137088  MISS:        764
cpu0_DTLB PREFETCH  ACCESS:          0  HIT:          0  MISS:          0
cpu0_DTLB WRITEBACK ACCESS:          0  HIT:          0  MISS:          0
cpu0_ITLB TOTAL     ACCESS:    1454688  HIT:    1454688  MISS:          0
cpu0_ITLB LOAD      ACCESS:    1454688  HIT:    1454688  MISS:          0
cpu0_ITLB RFO       ACCESS:          0  HIT:          0  MISS:          0
cpu0_ITLB PREFETCH  ACCESS:          0  HIT:          0  MISS:          0
cpu0_ITLB WRITEBACK ACCESS:          0  HIT:          0  MISS:          0
cpu0_L1I TOTAL     ACCESS:       5153  HIT:       5153  MISS:          0
cpu0_L1I LOAD      ACCESS:       5153  HIT:       5153  MISS:          0
cpu0_L1I RFO       ACCESS:          0  HIT:          0  MISS:          0
cpu0_L1I PREFETCH  ACCESS:          0  HIT:          0  MISS:          0
cpu0_L1I WRITEBACK ACCESS:          0  HIT:          0  MISS:          0
cpu0_STLB TOTAL     ACCESS:      20068  HIT:      14019  MISS:       6049
cpu0_STLB LOAD      ACCESS:      19304  HIT:      13390  MISS:       5914
cpu0_STLB RFO       ACCESS:        764  HIT:        629  MISS:        135
cpu0_STLB PREFETCH  ACCESS:          0  HIT:          0  MISS:          0
cpu0_STLB WRITEBACK ACCESS:          0  HIT:          0  MISS:          0
cpu0_L1D TOTAL     ACCESS:    1922525  HIT:    1694487  MISS:     228038
cpu0_L1D LOAD      ACCESS:    1717467  HIT:    1502711  MISS:     214756
cpu0_L1D RFO       ACCESS:     199387  HIT:     186170  MISS:      13217
cpu0_L1D PREFETCH  ACCESS:          0  HIT:          0  MISS:          0
cpu0_L1D WRITEBACK ACCESS:          0  HIT:          0  MISS:          0
cpu0_L2C TOTAL     ACCESS:     243868  HIT:      43465  MISS:     200403
cpu0_L2C LOAD      ACCESS:     214756  HIT:      26867  MISS:     187889
cpu0_L2C RFO       ACCESS:      13217  HIT:        786  MISS:      12431
cpu0_L2C PREFETCH  ACCESS:          0  HIT:          0  MISS:          0
cpu0_L2C WRITEBACK ACCESS:      15830  HIT:      15781  MISS:         49
LLC TOTAL     ACCESS:     217431  HIT:     207064  MISS:      10367
LLC LOAD      ACCESS:     187889  HIT:     177929  MISS:       9960
LLC RFO       ACCESS:      12431  HIT:      12225  MISS:        206
LLC PREFETCH  ACCESS:          0  HIT:          0  MISS:          0
LLC WRITEBACK ACCESS:      17077  HIT:      16881  MISS:        196
Heartbeat CPU 0 instructions: 68000000 cycles: 21895070 heartbeat IPC: 1.81462 cumulative IPC: 2.01821 (Simulation time: 0 hr 37 min 24 sec) 

Region of Interest Statistics
cpu0_DTLB TOTAL     ACCESS:    3090385  HIT:    3067023  MISS:      23362
cpu0_DTLB LOAD      ACCESS:    2875688  HIT:    2853258  MISS:      22430
cpu0_DTLB RFO       ACCESS:     214697  HIT:     213765  MISS:        932
cpu0_DTLB PREFETCH  ACCESS:          0  HIT:          0  MISS:          0
cpu0_DTLB WRITEBACK ACCESS:          0  HIT:          0  MISS:          0
cpu0_ITLB TOTAL     ACCESS:    1609768  HIT:    1609767  MISS:          1
cpu0_ITLB LOAD      ACCESS:    1609768  HIT:    1609767  MISS:          1
cpu0_ITLB RFO       ACCESS:          0  HIT:          0  MISS:          0
cpu0_ITLB PREFETCH  ACCESS:          0  HIT:          0  MISS:          0
cpu0_ITLB WRITEBACK ACCESS:          0  HIT:          0  MISS:          0
cpu0_L1I TOTAL     ACCESS:      27185  HIT:      27151  MISS:         34
cpu0_L1I LOAD      ACCESS:      27185  HIT:      27151  MISS:         34
cpu0_L1I RFO       ACCESS:          0  HIT:          0  MISS:          0
cpu0_L1I PREFETCH  ACCESS:          0  HIT:          0  MISS:          0
cpu0_L1I WRITEBACK ACCESS:          0  HIT:          0  MISS:          0
cpu0_STLB TOTAL     ACCESS:      23363  HIT:      16537  MISS:       6826
cpu0_STLB LOAD      ACCESS:      22431  HIT:      15764  MISS:       6667
cpu0_STLB RFO       ACCESS:        932  HIT:        773  MISS:        159
cpu0_STLB PREFETCH  ACCESS:          0  HIT:          0  MISS:          0
cpu0_STLB WRITEBACK ACCESS:          0  HIT:          0  MISS:          0
cpu0_L1D TOTAL     ACCESS:    2317391  HIT:    2071289  MISS:     246102
cpu0_L1D LOAD      ACCESS:    1959018  HIT:    1727618  MISS:     231400
cpu0_L1D RFO       ACCESS:     351971  HIT:     337343  MISS:      14628
cpu0_L1D PREFETCH  ACCESS:          0  HIT:          0  MISS:          0
cpu0_L1D WRITEBACK ACCESS:          0  HIT:          0  MISS:          0
cpu0_L2C TOTAL     ACCESS:     264157  HIT:      50431  MISS:     213726
cpu0_L2C LOAD      ACCESS:     231431  HIT:      31305  MISS:     200126
cpu0_L2C RFO       ACCESS:      14628  HIT:       1130  MISS:      13498
cpu0_L2C PREFETCH  ACCESS:          0  HIT:          0  MISS:          0
cpu0_L2C WRITEBACK ACCESS:      18024  HIT:      17963  MISS:         61
LLC TOTAL     ACCESS:     231040  HIT:     219345  MISS:      11695
LLC LOAD      ACCESS:     200126  HIT:     189081  MISS:      11045
LLC RFO       ACCESS:      13498  HIT:      13057  MISS:        441
LLC PREFETCH  ACCESS:          0  HIT:          0  MISS:          0
LLC WRITEBACK ACCESS:      17375  HIT:      17175  MISS:        200
Heartbeat CPU 0 instructions: 70000002 cycles: 22766242 heartbeat IPC: 2.29576 cumulative IPC: 2.04291 (Simulation time: 0 hr 38 min 38 sec) 

Region of Interest Statistics
cpu0_DTLB TOTAL     ACCESS:    3413727  HIT:    3389489  MISS:      24238
cpu0_DTLB LOAD      ACCESS:    3179495  HIT:    3156266  MISS:      23229
cpu0_DTLB RFO       ACCESS:     234232  HIT:     233223  MISS:       1009
cpu0_DTLB PREFETCH  ACCESS:          0  HIT:          0  MISS:          0
cpu0_DTLB WRITEBACK ACCESS:          0  HIT:          0  MISS:          0
cpu0_ITLB TOTAL     ACCESS:    1792750  HIT:    1792749  MISS:          1
cpu0_ITLB LOAD      ACCESS:    1792750  HIT:    1792749  MISS:          1
cpu0_ITLB RFO       ACCESS:          0  HIT:          0  MISS:          0
cpu0_ITLB PREFETCH  ACCESS:          0  HIT:          0  MISS:          0
cpu0_ITLB WRITEBACK ACCESS:          0  HIT:          0  MISS:          0
cpu0_L1I TOTAL     ACCESS:      30234  HIT:      30179  MISS:         55
cpu0_L1I LOAD      ACCESS:      30234  HIT:      30179  MISS:         55
cpu0_L1I RFO       ACCESS:          0  HIT:          0  MISS:          0
cpu0_L1I PREFETCH  ACCESS:          0  HIT:          0  MISS:          0
cpu0_L1I WRITEBACK ACCESS:          0  HIT:          0  MISS:          0
cpu0_STLB TOTAL     ACCESS:      24239  HIT:      17074  MISS:       7165
cpu0_STLB LOAD      ACCESS:      23230  HIT:      16255  MISS:       6975
cpu0_STLB RFO       ACCESS:       1009  HIT:        819  MISS:        190
cpu0_STLB PREFETCH  ACCESS:          0  HIT:          0  MISS:          0
cpu0_STLB WRITEBACK ACCESS:          0  HIT:          0  MISS:          0
cpu0_L1D TOTAL     ACCESS:    2555419  HIT:    2282712  MISS:     272707
cpu0_L1D LOAD      ACCESS:    2170012  HIT:    1915228  MISS:     254784
cpu0_L1D RFO       ACCESS:     378687  HIT:     360848  MISS:      17839
cpu0_L1D PREFETCH  ACCESS:          0  HIT:          0  MISS:          0
cpu0_L1D WRITEBACK ACCESS:          0  HIT:          0  MISS:          0
cpu0_L2C TOTAL     ACCESS:     294323  HIT:      56613  MISS:     237710
cpu0_L2C LOAD      ACCESS:     254836  HIT:      33683  MISS:     221153
cpu0_L2C RFO       ACCESS:      17839  HIT:       1393  MISS:      16446
cpu0_L2C PREFETCH  ACCESS:          0  HIT:          0  MISS:          0
cpu0_L2C WRITEBACK ACCESS:      21564  HIT:      21496  MISS:         68
LLC TOTAL     ACCESS:     259570  HIT:     246772  MISS:      12798
LLC LOAD      ACCESS:     221154  HIT:     209345  MISS:      11809
LLC RFO       ACCESS:      16446  HIT:      15928  MISS:        518
LLC PREFETCH  ACCESS:          0  HIT:          0  MISS:          0
LLC WRITEBACK ACCESS:      21927  HIT:      21465  MISS:        462
Heartbeat CPU 0 instructions: 72000002 cycles: 23829506 heartbeat IPC: 1.881 cumulative IPC: 2.02705 (Simulation time: 0 hr 39 min 55 sec) 

Region of Interest Statistics
cpu0_DTLB TOTAL     ACCESS:    3758215  HIT:    3730645  MISS:      27570
cpu0_DTLB LOAD      ACCESS:    3505318  HIT:    3478800  MISS:      26518
cpu0_DTLB RFO       ACCESS:     252897  HIT:     251845  MISS:       1052
cpu0_DTLB PREFETCH  ACCESS:          0  HIT:          0  MISS:          0
cpu0_DTLB WRITEBACK ACCESS:          0  HIT:          0  MISS:          0
cpu0_ITLB TOTAL     ACCESS:    1968211  HIT:    1968210  MISS:          1
cpu0_ITLB LOAD      ACCESS:    1968211  HIT:    1968210  MISS:          1
cpu0_ITLB RFO       ACCESS:          0  HIT:          0  MISS:          0
cpu0_ITLB PREFETCH  ACCESS:          0  HIT:          0  MISS:          0
cpu0_ITLB WRITEBACK ACCESS:          0  HIT:          0  MISS:          0
cpu0_L1I TOTAL     ACCESS:      30267  HIT:      30209  MISS:         58
cpu0_L1I LOAD      ACCESS:      30267  HIT:      30209  MISS:         58
cpu0_L1I RFO       ACCESS:          0  HIT:          0  MISS:          0
cpu0_L1I PREFETCH  ACCESS:          0  HIT:          0  MISS:          0
cpu0_L1I WRITEBACK ACCESS:          0  HIT:          0  MISS:          0
cpu0_STLB TOTAL     ACCESS:      27571  HIT:      19409  MISS:       8162
cpu0_STLB LOAD      ACCESS:      26519  HIT:      18552  MISS:       7967
cpu0_STLB RFO       ACCESS:       1052  HIT:        857  MISS:        195
cpu0_STLB PREFETCH  ACCESS:          0  HIT:          0  MISS:          0
cpu0_STLB WRITEBACK ACCESS:          0  HIT:          0  MISS:          0
cpu0_L1D TOTAL     ACCESS:    2801699  HIT:    2499755  MISS:     301944
cpu0_L1D LOAD      ACCESS:    2385304  HIT:    2102018  MISS:     283286
cpu0_L1D RFO       ACCESS:     408750  HIT:     390182  MISS:      18568
cpu0_L1D PREFETCH  ACCESS:          0  HIT:          0  MISS:          0
cpu0_L1D WRITEBACK ACCESS:          0  HIT:          0  MISS:          0
cpu0_L2C TOTAL     ACCESS:     324301  HIT:      61281  MISS:     263020
cpu0_L2C LOAD      ACCESS:     283341  HIT:      37611  MISS:     245730
cpu0_L2C RFO       ACCESS:      18568  HIT:       1393  MISS:      17175
cpu0_L2C PREFETCH  ACCESS:          0  HIT:          0  MISS:          0
cpu0_L2C WRITEBACK ACCESS:      22302  HIT:      22233  MISS:         69
LLC TOTAL     ACCESS:     285727  HIT:     271018  MISS:      14709
LLC LOAD      ACCESS:     245730  HIT:     232028  MISS:      13702
LLC RFO       ACCESS:      17175  HIT:      16643  MISS:        532
LLC PREFETCH  ACCESS:          0  HIT:          0  MISS:          0
LLC WRITEBACK ACCESS:      22776  HIT:      22310  MISS:        466
Heartbeat CPU 0 instructions: 74000002 cycles: 24782648 heartbeat IPC: 2.09832 cumulative IPC: 2.0328 (Simulation time: 0 hr 41 min 12 sec) 

Region of Interest Statistics
cpu0_DTLB TOTAL     ACCESS:    4097820  HIT:    4067635  MISS:      30185
cpu0_DTLB LOAD      ACCESS:    3825517  HIT:    3796610  MISS:      28907
cpu0_DTLB RFO       ACCESS:     272303  HIT:     271025  MISS:       1278
cpu0_DTLB PREFETCH  ACCESS:          0  HIT:          0  MISS:          0
cpu0_DTLB WRITEBACK ACCESS:          0  HIT:          0  MISS:          0
cpu0_ITLB TOTAL     ACCESS:    2155818  HIT:    2155817  MISS:          1
cpu0_ITLB LOAD      ACCESS:    2155818  HIT:    2155817  MISS:          1
cpu0_ITLB RFO       ACCESS:          0  HIT:          0  MISS:          0
cpu0_ITLB PREFETCH  ACCESS:          0  HIT:          0  MISS:          0
cpu0_ITLB WRITEBACK ACCESS:          0  HIT:          0  MISS:          0
cpu0_L1I TOTAL     ACCESS:      31771  HIT:      31700  MISS:         71
cpu0_L1I LOAD      ACCESS:      31771  HIT:      31700  MISS:         71
cpu0_L1I RFO       ACCESS:          0  HIT:          0  MISS:          0
cpu0_L1I PREFETCH  ACCESS:          0  HIT:          0  MISS:          0
cpu0_L1I WRITEBACK ACCESS:          0  HIT:          0  MISS:          0
cpu0_STLB TOTAL     ACCESS:      30186  HIT:      21311  MISS:       8875
cpu0_STLB LOAD      ACCESS:      28908  HIT:      20272  MISS:       8636
cpu0_STLB RFO       ACCESS:       1278  HIT:       1039  MISS:        239
cpu0_STLB PREFETCH  ACCESS:          0  HIT:          0  MISS:          0
cpu0_STLB WRITEBACK ACCESS:          0  HIT:          0  MISS:          0
cpu0_L1D TOTAL     ACCESS:    3040135  HIT:    2709286  MISS:     330849
cpu0_L1D LOAD      ACCESS:    2598232  HIT:    2289218  MISS:     309014
cpu0_L1D RFO       ACCESS:     433576  HIT:     411844  MISS:      21732
cpu0_L1D PREFETCH  ACCESS:          0  HIT:          0  MISS:          0
cpu0_L1D WRITEBACK ACCESS:          0  HIT:          0  MISS:          0
cpu0_L2C TOTAL     ACCESS:     357442  HIT:      70160  MISS:     287282
cpu0_L2C LOAD      ACCESS:     309080  HIT:      41999  MISS:     267081
cpu0_L2C RFO       ACCESS:      21732  HIT:       1668  MISS:      20064
cpu0_L2C PREFETCH  ACCESS:          0  HIT:          0  MISS:          0
cpu0_L2C WRITEBACK ACCESS:      26527  HIT:      26443  MISS:         84
LLC TOTAL     ACCESS:     313019  HIT:     297357  MISS:      15662
LLC LOAD      ACCESS:     267081  HIT:     252543  MISS:      14538
LLC RFO       ACCESS:      20064  HIT:      19470  MISS:        594
LLC PREFETCH  ACCESS:          0  HIT:          0  MISS:          0
LLC WRITEBACK ACCESS:      25821  HIT:      25303  MISS:        518
Heartbeat CPU 0 instructions: 76000003 cycles: 25756859 heartbeat IPC: 2.05294 cumulative IPC: 2.03434 (Simulation time: 0 hr 42 min 26 sec) 

Region of Interest Statistics
cpu0_DTLB TOTAL     ACCESS:    4430489  HIT:    4398318  MISS:      32171
cpu0_DTLB LOAD      ACCESS:    4143055  HIT:    4112199  MISS:      30856
cpu0_DTLB RFO       ACCESS:     287434  HIT:     286119  MISS:       1315
cpu0_DTLB PREFETCH  ACCESS:          0  HIT:          0  MISS:          0
cpu0_DTLB WRITEBACK ACCESS:          0  HIT:          0  MISS:          0
cpu0_ITLB TOTAL     ACCESS:    2337494  HIT:    2337493  MISS:          1
cpu0_ITLB LOAD      ACCESS:    2337494  HIT:    2337493  MISS:          1
cpu0_ITLB RFO       ACCESS:          0  HIT:          0  MISS:          0
cpu0_ITLB PREFETCH  ACCESS:          0  HIT:          0  MISS:          0
cpu0_ITLB WRITEBACK ACCESS:          0  HIT:          0  MISS:          0
cpu0_L1I TOTAL     ACCESS:      31819  HIT:      31748  MISS:         71
cpu0_L1I LOAD      ACCESS:      31819  HIT:      31748  MISS:         71
cpu0_L1I RFO       ACCESS:          0  HIT:          0  MISS:          0
cpu0_L1I PREFETCH  ACCESS:          0  HIT:          0  MISS:          0
cpu0_L1I WRITEBACK ACCESS:          0  HIT:          0  MISS:          0
cpu0_STLB TOTAL     ACCESS:      32172  HIT:      22532  MISS:       9640
cpu0_STLB LOAD      ACCESS:      30857  HIT:      21459  MISS:       9398
cpu0_STLB RFO       ACCESS:       1315  HIT:       1073  MISS:        242
cpu0_STLB PREFETCH  ACCESS:          0  HIT:          0  MISS:          0
cpu0_STLB WRITEBACK ACCESS:          0  HIT:          0  MISS:          0
cpu0_L1D TOTAL     ACCESS:    3280258  HIT:    2920985  MISS:     359273
cpu0_L1D LOAD      ACCESS:    2813855  HIT:    2477195  MISS:     336660
cpu0_L1D RFO       ACCESS:     457367  HIT:     434862  MISS:      22505
cpu0_L1D PREFETCH  ACCESS:          0  HIT:          0  MISS:          0
cpu0_L1D WRITEBACK ACCESS:          0  HIT:          0  MISS:          0
cpu0_L2C TOTAL     ACCESS:     386661  HIT:      73328  MISS:     313333
cpu0_L2C LOAD      ACCESS:     336726  HIT:      44371  MISS:     292355
cpu0_L2C RFO       ACCESS:      22505  HIT:       1668  MISS:      20837
cpu0_L2C PREFETCH  ACCESS:          0  HIT:          0  MISS:          0
cpu0_L2C WRITEBACK ACCESS:      27322  HIT:      27237  MISS:         85
LLC TOTAL     ACCESS:     340594  HIT:     323458  MISS:      17136
LLC LOAD      ACCESS:     292355  HIT:     276359  MISS:      15996
LLC RFO       ACCESS:      20837  HIT:      20227  MISS:        610
LLC PREFETCH  ACCESS:          0  HIT:          0  MISS:          0
LLC WRITEBACK ACCESS:      27346  HIT:      26828  MISS:        518
Heartbeat CPU 0 instructions: 78000001 cycles: 26770220 heartbeat IPC: 1.97363 cumulative IPC: 2.02988 (Simulation time: 0 hr 43 min 40 sec) 

Region of Interest Statistics
cpu0_DTLB TOTAL     ACCESS:    4780162  HIT:    4744122  MISS:      36040
cpu0_DTLB LOAD      ACCESS:    4469918  HIT:    4435423  MISS:      34495
cpu0_DTLB RFO       ACCESS:     310244  HIT:     308699  MISS:       1545
cpu0_DTLB PREFETCH  ACCESS:          0  HIT:          0  MISS:          0
cpu0_DTLB WRITEBACK ACCESS:          0  HIT:          0  MISS:          0
cpu0_ITLB TOTAL     ACCESS:    2519804  HIT:    2519803  MISS:          1
cpu0_ITLB LOAD      ACCESS:    2519804  HIT:    2519803  MISS:          1
cpu0_ITLB RFO       ACCESS:          0  HIT:          0  MISS:          0
cpu0_ITLB PREFETCH  ACCESS:          0  HIT:          0  MISS:          0
cpu0_ITLB WRITEBACK ACCESS:          0  HIT:          0  MISS:          0
cpu0_L1I TOTAL     ACCESS:      33518  HIT:      33447  MISS:         71
cpu0_L1I LOAD      ACCESS:      33518  HIT:      33447  MISS:         71
cpu0_L1I RFO       ACCESS:          0  HIT:          0  MISS:          0
cpu0_L1I PREFETCH  ACCESS:          0  HIT:          0  MISS:          0
cpu0_L1I WRITEBACK ACCESS:          0  HIT:          0  MISS:          0
cpu0_STLB TOTAL     ACCESS:      36041  HIT:      25462  MISS:      10579
cpu0_STLB LOAD      ACCESS:      34496  HIT:      24202  MISS:      10294
cpu0_STLB RFO       ACCESS:       1545  HIT:       1260  MISS:        285
cpu0_STLB PREFETCH  ACCESS:          0  HIT:          0  MISS:          0
cpu0_STLB WRITEBACK ACCESS:          0  HIT:          0  MISS:          0
cpu0_L1D TOTAL     ACCESS:    3525905  HIT:    3136693  MISS:     389212
cpu0_L1D LOAD      ACCESS:    3027754  HIT:    2664316  MISS:     363438
cpu0_L1D RFO       ACCESS:     488227  HIT:     462574  MISS:      25653
cpu0_L1D PREFETCH  ACCESS:          0  HIT:          0  MISS:          0
cpu0_L1D WRITEBACK ACCESS:          0  HIT:          0  MISS:          0
cpu0_L2C TOTAL     ACCESS:     420747  HIT:      83656  MISS:     337091
cpu0_L2C LOAD      ACCESS:     363502  HIT:      50294  MISS:     313208
cpu0_L2C RFO       ACCESS:      25653  HIT:       1932  MISS:      23721
cpu0_L2C PREFETCH  ACCESS:          0  HIT:          0  MISS:          0
cpu0_L2C WRITEBACK ACCESS:      31471  HIT:      31372  MISS:         99
LLC TOTAL     ACCESS:     365769  HIT:     347588  MISS:      18181
LLC LOAD      ACCESS:     313208  HIT:     296234  MISS:      16974
LLC RFO       ACCESS:      23721  HIT:      23061  MISS:        660
LLC PREFETCH  ACCESS:          0  HIT:          0  MISS:          0
LLC WRITEBACK ACCESS:      28777  HIT:      28243  MISS:        534
Heartbeat CPU 0 instructions: 80000003 cycles: 27664628 heartbeat IPC: 2.23612 cumulative IPC: 2.04243 (Simulation time: 0 hr 44 min 49 sec) 

Region of Interest Statistics
cpu0_DTLB TOTAL     ACCESS:    5103568  HIT:    5066481  MISS:      37087
cpu0_DTLB LOAD      ACCESS:    4781690  HIT:    4746177  MISS:      35513
cpu0_DTLB RFO       ACCESS:     321878  HIT:     320304  MISS:       1574
cpu0_DTLB PREFETCH  ACCESS:          0  HIT:          0  MISS:          0
cpu0_DTLB WRITEBACK ACCESS:          0  HIT:          0  MISS:          0
cpu0_ITLB TOTAL     ACCESS:    2705118  HIT:    2705117  MISS:          1
cpu0_ITLB LOAD      ACCESS:    2705118  HIT:    2705117  MISS:          1
cpu0_ITLB RFO       ACCESS:          0  HIT:          0  MISS:          0
cpu0_ITLB PREFETCH  ACCESS:          0  HIT:          0  MISS:          0
cpu0_ITLB WRITEBACK ACCESS:          0  HIT:          0  MISS:          0
cpu0_L1I TOTAL     ACCESS:      33566  HIT:      33495  MISS:         71
cpu0_L1I LOAD      ACCESS:      33566  HIT:      33495  MISS:         71
cpu0_L1I RFO       ACCESS:          0  HIT:          0  MISS:          0
cpu0_L1I PREFETCH  ACCESS:          0  HIT:          0  MISS:          0
cpu0_L1I WRITEBACK ACCESS:          0  HIT:          0  MISS:          0
cpu0_STLB TOTAL     ACCESS:      37088  HIT:      26004  MISS:      11084
cpu0_STLB LOAD      ACCESS:      35514  HIT:      24716  MISS:      10798
cpu0_STLB RFO       ACCESS:       1574  HIT:       1288  MISS:        286
cpu0_STLB PREFETCH  ACCESS:          0  HIT:          0  MISS:          0
cpu0_STLB WRITEBACK ACCESS:          0  HIT:          0  MISS:          0
cpu0_L1D TOTAL     ACCESS:    3758756  HIT:    3342596  MISS:     416160
cpu0_L1D LOAD      ACCESS:    3243146  HIT:    2853564  MISS:     389582
cpu0_L1D RFO       ACCESS:     505219  HIT:     478766  MISS:      26453
cpu0_L1D PREFETCH  ACCESS:          0  HIT:          0  MISS:          0
cpu0_L1D WRITEBACK ACCESS:          0  HIT:          0  MISS:          0
cpu0_L2C TOTAL     ACCESS:     448522  HIT:      85191  MISS:     363331
cpu0_L2C LOAD      ACCESS:     389646  HIT:      51002  MISS:     338644
cpu0_L2C RFO       ACCESS:      26453  HIT:       1932  MISS:      24521
cpu0_L2C PREFETCH  ACCESS:          0  HIT:          0  MISS:          0
cpu0_L2C WRITEBACK ACCESS:      32298  HIT:      32198  MISS:        100
LLC TOTAL     ACCESS:     395171  HIT:     375752  MISS:      19419
LLC LOAD      ACCESS:     338644  HIT:     320478  MISS:      18166
LLC RFO       ACCESS:      24521  HIT:      23848  MISS:        673
LLC PREFETCH  ACCESS:          0  HIT:          0  MISS:          0
LLC WRITEBACK ACCESS:      31940  HIT:      31373  MISS:        567
Heartbeat CPU 0 instructions: 82000000 cycles: 28776880 heartbeat IPC: 1.79815 cumulative IPC: 2.02524 (Simulation time: 0 hr 46 min 3 sec) 

Region of Interest Statistics
cpu0_DTLB TOTAL     ACCESS:    5459270  HIT:    5417459  MISS:      41811
cpu0_DTLB LOAD      ACCESS:    5116504  HIT:    5076439  MISS:      40065
cpu0_DTLB RFO       ACCESS:     342766  HIT:     341020  MISS:       1746
cpu0_DTLB PREFETCH  ACCESS:          0  HIT:          0  MISS:          0
cpu0_DTLB WRITEBACK ACCESS:          0  HIT:          0  MISS:          0
cpu0_ITLB TOTAL     ACCESS:    2875552  HIT:    2875551  MISS:          1
cpu0_ITLB LOAD      ACCESS:    2875552  HIT:    2875551  MISS:          1
cpu0_ITLB RFO       ACCESS:          0  HIT:          0  MISS:          0
cpu0_ITLB PREFETCH  ACCESS:          0  HIT:          0  MISS:          0
cpu0_ITLB WRITEBACK ACCESS:          0  HIT:          0  MISS:          0
cpu0_L1I TOTAL     ACCESS:      34790  HIT:      34719  MISS:         71
cpu0_L1I LOAD      ACCESS:      34790  HIT:      34719  MISS:         71
cpu0_L1I RFO       ACCESS:          0  HIT:          0  MISS:          0
cpu0_L1I PREFETCH  ACCESS:          0  HIT:          0  MISS:          0
cpu0_L1I WRITEBACK ACCESS:          0  HIT:          0  MISS:          0
cpu0_STLB TOTAL     ACCESS:      41812  HIT:      29562  MISS:      12250
cpu0_STLB LOAD      ACCESS:      40066  HIT:      28114  MISS:      11952
cpu0_STLB RFO       ACCESS:       1746  HIT:       1448  MISS:        298
cpu0_STLB PREFETCH  ACCESS:          0  HIT:          0  MISS:          0
cpu0_STLB WRITEBACK ACCESS:          0  HIT:          0  MISS:          0
cpu0_L1D TOTAL     ACCESS:    4015367  HIT:    3570173  MISS:     445194
cpu0_L1D LOAD      ACCESS:    3463125  HIT:    3045065  MISS:     418060
cpu0_L1D RFO       ACCESS:     540759  HIT:     513761  MISS:      26998
cpu0_L1D PREFETCH  ACCESS:          0  HIT:          0  MISS:          0
cpu0_L1D WRITEBACK ACCESS:          0  HIT:          0  MISS:          0
cpu0_L2C TOTAL     ACCESS:     478979  HIT:      91823  MISS:     387156
cpu0_L2C LOAD      ACCESS:     418123  HIT:      56207  MISS:     361916
cpu0_L2C RFO       ACCESS:      26998  HIT:       1944  MISS:      25054
cpu0_L2C PREFETCH  ACCESS:          0  HIT:          0  MISS:          0
cpu0_L2C WRITEBACK ACCESS:      33722  HIT:      33610  MISS:        112
LLC TOTAL     ACCESS:     419649  HIT:     398624  MISS:      21025
LLC LOAD      ACCESS:     361916  HIT:     342168  MISS:      19748
LLC RFO       ACCESS:      25054  HIT:      24364  MISS:        690
LLC PREFETCH  ACCESS:          0  HIT:          0  MISS:          0
LLC WRITEBACK ACCESS:      32605  HIT:      32032  MISS:        573
Heartbeat CPU 0 instructions: 84000003 cycles: 29617430 heartbeat IPC: 2.3794 cumulative IPC: 2.04313 (Simulation time: 0 hr 47 min 10 sec) 

Region of Interest Statistics
cpu0_DTLB TOTAL     ACCESS:    5781778  HIT:    5739185  MISS:      42593
cpu0_DTLB LOAD      ACCESS:    5424389  HIT:    5383629  MISS:      40760
cpu0_DTLB RFO       ACCESS:     357389  HIT:     355556  MISS:       1833
cpu0_DTLB PREFETCH  ACCESS:          0  HIT:          0  MISS:          0
cpu0_DTLB WRITEBACK ACCESS:          0  HIT:          0  MISS:          0
cpu0_ITLB TOTAL     ACCESS:    3069995  HIT:    3069994  MISS:          1
cpu0_ITLB LOAD      ACCESS:    3069995  HIT:    3069994  MISS:          1
cpu0_ITLB RFO       ACCESS:          0  HIT:          0  MISS:          0
cpu0_ITLB PREFETCH  ACCESS:          0  HIT:          0  MISS:          0
cpu0_ITLB WRITEBACK ACCESS:          0  HIT:          0  MISS:          0
cpu0_L1I TOTAL     ACCESS:      35293  HIT:      35222  MISS:         71
cpu0_L1I LOAD      ACCESS:      35293  HIT:      35222  MISS:         71
cpu0_L1I RFO       ACCESS:          0  HIT:          0  MISS:          0
cpu0_L1I PREFETCH  ACCESS:          0  HIT:          0  MISS:          0
cpu0_L1I WRITEBACK ACCESS:          0  HIT:          0  MISS:          0
cpu0_STLB TOTAL     ACCESS:      42594  HIT:      29980  MISS:      12614
cpu0_STLB LOAD      ACCESS:      40761  HIT:      28475  MISS:      12286
cpu0_STLB RFO       ACCESS:       1833  HIT:       1505  MISS:        328
cpu0_STLB PREFETCH  ACCESS:          0  HIT:          0  MISS:          0
cpu0_STLB WRITEBACK ACCESS:          0  HIT:          0  MISS:          0
cpu0_L1D TOTAL     ACCESS:    4238463  HIT:    3765230  MISS:     473233
cpu0_L1D LOAD      ACCESS:    3671228  HIT:    3228444  MISS:     442784
cpu0_L1D RFO       ACCESS:     555410  HIT:     525101  MISS:      30309
cpu0_L1D PREFETCH  ACCESS:          0  HIT:          0  MISS:          0
cpu0_L1D WRITEBACK ACCESS:          0  HIT:          0  MISS:          0
cpu0_L2C TOTAL     ACCESS:     510461  HIT:      97962  MISS:     412499
cpu0_L2C LOAD      ACCESS:     442847  HIT:      58668  MISS:     384179
cpu0_L2C RFO       ACCESS:      30309  HIT:       2178  MISS:      28131
cpu0_L2C PREFETCH  ACCESS:          0  HIT:          0  MISS:          0
cpu0_L2C WRITEBACK ACCESS:      37165  HIT:      37050  MISS:        115
LLC TOTAL     ACCESS:     448879  HIT:     427080  MISS:      21799
LLC LOAD      ACCESS:     384179  HIT:     363740  MISS:      20439
LLC RFO       ACCESS:      28131  HIT:      27389  MISS:        742
LLC PREFETCH  ACCESS:          0  HIT:          0  MISS:          0
LLC WRITEBACK ACCESS:      36495  HIT:      35891  MISS:        604
Heartbeat CPU 0 instructions: 86000003 cycles: 30725733 heartbeat IPC: 1.80456 cumulative IPC: 2.02823 (Simulation time: 0 hr 48 min 28 sec) 

Region of Interest Statistics
cpu0_DTLB TOTAL     ACCESS:    6137056  HIT:    6090076  MISS:      46980
cpu0_DTLB LOAD      ACCESS:    5759107  HIT:    5714025  MISS:      45082
cpu0_DTLB RFO       ACCESS:     377949  HIT:     376051  MISS:       1898
cpu0_DTLB PREFETCH  ACCESS:          0  HIT:          0  MISS:          0
cpu0_DTLB WRITEBACK ACCESS:          0  HIT:          0  MISS:          0
cpu0_ITLB TOTAL     ACCESS:    3241373  HIT:    3241372  MISS:          1
cpu0_ITLB LOAD      ACCESS:    3241373  HIT:    3241372  MISS:          1
cpu0_ITLB RFO       ACCESS:          0  HIT:          0  MISS:          0
cpu0_ITLB PREFETCH  ACCESS:          0  HIT:          0  MISS:          0
cpu0_ITLB WRITEBACK ACCESS:          0  HIT:          0  MISS:          0
cpu0_L1I TOTAL     ACCESS:      35312  HIT:      35241  MISS:         71
cpu0_L1I LOAD      ACCESS:      35312  HIT:      35241  MISS:         71
cpu0_L1I RFO       ACCESS:          0  HIT:          0  MISS:          0
cpu0_L1I PREFETCH  ACCESS:          0  HIT:          0  MISS:          0
cpu0_L1I WRITEBACK ACCESS:          0  HIT:          0  MISS:          0
cpu0_STLB TOTAL     ACCESS:      46981  HIT:      33337  MISS:      13644
cpu0_STLB LOAD      ACCESS:      45083  HIT:      31773  MISS:      13310
cpu0_STLB RFO       ACCESS:       1898  HIT:       1564  MISS:        334
cpu0_STLB PREFETCH  ACCESS:          0  HIT:          0  MISS:          0
cpu0_STLB WRITEBACK ACCESS:          0  HIT:          0  MISS:          0
cpu0_L1D TOTAL     ACCESS:    4489272  HIT:    3987088  MISS:     502184
cpu0_L1D LOAD      ACCESS:    3887930  HIT:    3416813  MISS:     471117
cpu0_L1D RFO       ACCESS:     588564  HIT:     557644  MISS:      30920
cpu0_L1D PREFETCH  ACCESS:          0  HIT:          0  MISS:          0
cpu0_L1D WRITEBACK ACCESS:          0  HIT:          0  MISS:          0
cpu0_L2C TOTAL     ACCESS:     540047  HIT:     103390  MISS:     436657
cpu0_L2C LOAD      ACCESS:     471180  HIT:      63459  MISS:     407721
cpu0_L2C RFO       ACCESS:      30920  HIT:       2178  MISS:      28742
cpu0_L2C PREFETCH  ACCESS:          0  HIT:          0  MISS:          0
cpu0_L2C WRITEBACK ACCESS:      37800  HIT:      37684  MISS:        116
LLC TOTAL     ACCESS:     473601  HIT:     449682  MISS:      23919
LLC LOAD      ACCESS:     407721  HIT:     385173  MISS:      22548
LLC RFO       ACCESS:      28742  HIT:      27990  MISS:        752
LLC PREFETCH  ACCESS:          0  HIT:          0  MISS:          0
LLC WRITEBACK ACCESS:      37060  HIT:      36455  MISS:        605
Heartbeat CPU 0 instructions: 88000000 cycles: 31647027 heartbeat IPC: 2.17086 cumulative IPC: 2.03527 (Simulation time: 0 hr 49 min 41 sec) 

Region of Interest Statistics
cpu0_DTLB TOTAL     ACCESS:    6471664  HIT:    6422716  MISS:      48948
cpu0_DTLB LOAD      ACCESS:    6075798  HIT:    6028973  MISS:      46825
cpu0_DTLB RFO       ACCESS:     395866  HIT:     393743  MISS:       2123
cpu0_DTLB PREFETCH  ACCESS:          0  HIT:          0  MISS:          0
cpu0_DTLB WRITEBACK ACCESS:          0  HIT:          0  MISS:          0
cpu0_ITLB TOTAL     ACCESS:    3430026  HIT:    3430025  MISS:          1
cpu0_ITLB LOAD      ACCESS:    3430026  HIT:    3430025  MISS:          1
cpu0_ITLB RFO       ACCESS:          0  HIT:          0  MISS:          0
cpu0_ITLB PREFETCH  ACCESS:          0  HIT:          0  MISS:          0
cpu0_ITLB WRITEBACK ACCESS:          0  HIT:          0  MISS:          0
cpu0_L1I TOTAL     ACCESS:      37358  HIT:      37287  MISS:         71
cpu0_L1I LOAD      ACCESS:      37358  HIT:      37287  MISS:         71
cpu0_L1I RFO       ACCESS:          0  HIT:          0  MISS:          0
cpu0_L1I PREFETCH  ACCESS:          0  HIT:          0  MISS:          0
cpu0_L1I WRITEBACK ACCESS:          0  HIT:          0  MISS:          0
cpu0_STLB TOTAL     ACCESS:      48949  HIT:      34693  MISS:      14256
cpu0_STLB LOAD      ACCESS:      46826  HIT:      32944  MISS:      13882
cpu0_STLB RFO       ACCESS:       2123  HIT:       1749  MISS:        374
cpu0_STLB PREFETCH  ACCESS:          0  HIT:          0  MISS:          0
cpu0_STLB WRITEBACK ACCESS:          0  HIT:          0  MISS:          0
cpu0_L1D TOTAL     ACCESS:    4726116  HIT:    4195145  MISS:     530971
cpu0_L1D LOAD      ACCESS:    4101920  HIT:    3605200  MISS:     496720
cpu0_L1D RFO       ACCESS:     610832  HIT:     576741  MISS:      34091
cpu0_L1D PREFETCH  ACCESS:          0  HIT:          0  MISS:          0
cpu0_L1D WRITEBACK ACCESS:          0  HIT:          0  MISS:          0
cpu0_L2C TOTAL     ACCESS:     573104  HIT:     111745  MISS:     461359
cpu0_L2C LOAD      ACCESS:     496781  HIT:      67308  MISS:     429473
cpu0_L2C RFO       ACCESS:      34091  HIT:       2421  MISS:      31670
cpu0_L2C PREFETCH  ACCESS:          0  HIT:          0  MISS:          0
cpu0_L2C WRITEBACK ACCESS:      42072  HIT:      41941  MISS:        131
LLC TOTAL     ACCESS:     501906  HIT:     477302  MISS:      24604
LLC LOAD      ACCESS:     429473  HIT:     406297  MISS:      23176
LLC RFO       ACCESS:      31670  HIT:      30888  MISS:        782
LLC PREFETCH  ACCESS:          0  HIT:          0  MISS:          0
LLC WRITEBACK ACCESS:      40678  HIT:      40047  MISS:        631
Heartbeat CPU 0 instructions: 90000002 cycles: 32661262 heartbeat IPC: 1.97193 cumulative IPC: 2.03201 (Simulation time: 0 hr 50 min 53 sec) 

Region of Interest Statistics
cpu0_DTLB TOTAL     ACCESS:    6808789  HIT:    6757793  MISS:      50996
cpu0_DTLB LOAD      ACCESS:    6397439  HIT:    6348605  MISS:      48834
cpu0_DTLB RFO       ACCESS:     411350  HIT:     409188  MISS:       2162
cpu0_DTLB PREFETCH  ACCESS:          0  HIT:          0  MISS:          0
cpu0_DTLB WRITEBACK ACCESS:          0  HIT:          0  MISS:          0
cpu0_ITLB TOTAL     ACCESS:    3609237  HIT:    3609236  MISS:          1
cpu0_ITLB LOAD      ACCESS:    3609237  HIT:    3609236  MISS:          1
cpu0_ITLB RFO       ACCESS:          0  HIT:          0  MISS:          0
cpu0_ITLB PREFETCH  ACCESS:          0  HIT:          0  MISS:          0
cpu0_ITLB WRITEBACK ACCESS:          0  HIT:          0  MISS:          0
cpu0_L1I TOTAL     ACCESS:      37391  HIT:      37320  MISS:         71
cpu0_L1I LOAD      ACCESS:      37391  HIT:      37320  MISS:         71
cpu0_L1I RFO       ACCESS:          0  HIT:          0  MISS:          0
cpu0_L1I PREFETCH  ACCESS:          0  HIT:          0  MISS:          0
cpu0_L1I WRITEBACK ACCESS:          0  HIT:          0  MISS:          0
cpu0_STLB TOTAL     ACCESS:      50997  HIT:      36011  MISS:      14986
cpu0_STLB LOAD      ACCESS:      48835  HIT:      34226  MISS:      14609
cpu0_STLB RFO       ACCESS:       2162  HIT:       1785  MISS:        377
cpu0_STLB PREFETCH  ACCESS:          0  HIT:          0  MISS:          0
cpu0_STLB WRITEBACK ACCESS:          0  HIT:          0  MISS:          0
cpu0_L1D TOTAL     ACCESS:    4963996  HIT:    4405240  MISS:     558756
cpu0_L1D LOAD      ACCESS:    4314977  HIT:    3791165  MISS:     523812
cpu0_L1D RFO       ACCESS:     634974  HIT:     600196  MISS:      34778
cpu0_L1D PREFETCH  ACCESS:          0  HIT:          0  MISS:          0
cpu0_L1D WRITEBACK ACCESS:          0  HIT:          0  MISS:          0
cpu0_L2C TOTAL     ACCESS:     601598  HIT:     114940  MISS:     486658
cpu0_L2C LOAD      ACCESS:     523873  HIT:      69792  MISS:     454081
cpu0_L2C RFO       ACCESS:      34778  HIT:       2421  MISS:      32357
cpu0_L2C PREFETCH  ACCESS:          0  HIT:          0  MISS:          0
cpu0_L2C WRITEBACK ACCESS:      42781  HIT:      42649  MISS:        132
LLC TOTAL     ACCESS:     528187  HIT:     501644  MISS:      26543
LLC LOAD      ACCESS:     454081  HIT:     428970  MISS:      25111
LLC RFO       ACCESS:      32357  HIT:      31571  MISS:        786
LLC PREFETCH  ACCESS:          0  HIT:          0  MISS:          0
LLC WRITEBACK ACCESS:      41661  HIT:      41030  MISS:        631
Heartbeat CPU 0 instructions: 92000001 cycles: 33682059 heartbeat IPC: 1.95925 cumulative IPC: 2.02842 (Simulation time: 0 hr 52 min 5 sec) 

Region of Interest Statistics
cpu0_DTLB TOTAL     ACCESS:    7160818  HIT:    7105551  MISS:      55267
cpu0_DTLB LOAD      ACCESS:    6726331  HIT:    6673479  MISS:      52852
cpu0_DTLB RFO       ACCESS:     434487  HIT:     432072  MISS:       2415
cpu0_DTLB PREFETCH  ACCESS:          0  HIT:          0  MISS:          0
cpu0_DTLB WRITEBACK ACCESS:          0  HIT:          0  MISS:          0
cpu0_ITLB TOTAL     ACCESS:    3790424  HIT:    3790423  MISS:          1
cpu0_ITLB LOAD      ACCESS:    3790424  HIT:    3790423  MISS:          1
cpu0_ITLB RFO       ACCESS:          0  HIT:          0  MISS:          0
cpu0_ITLB PREFETCH  ACCESS:          0  HIT:          0  MISS:          0
cpu0_ITLB WRITEBACK ACCESS:          0  HIT:          0  MISS:          0
cpu0_L1I TOTAL     ACCESS:      39154  HIT:      39083  MISS:         71
cpu0_L1I LOAD      ACCESS:      39154  HIT:      39083  MISS:         71
cpu0_L1I RFO       ACCESS:          0  HIT:          0  MISS:          0
cpu0_L1I PREFETCH  ACCESS:          0  HIT:          0  MISS:          0
cpu0_L1I WRITEBACK ACCESS:          0  HIT:          0  MISS:          0
cpu0_STLB TOTAL     ACCESS:      55268  HIT:      39355  MISS:      15913
cpu0_STLB LOAD      ACCESS:      52853  HIT:      37359  MISS:      15494
cpu0_STLB RFO       ACCESS:       2415  HIT:       1996  MISS:        419
cpu0_STLB PREFETCH  ACCESS:          0  HIT:          0  MISS:          0
cpu0_STLB WRITEBACK ACCESS:          0  HIT:          0  MISS:          0
cpu0_L1D TOTAL     ACCESS:    5209614  HIT:    4620967  MISS:     588647
cpu0_L1D LOAD      ACCESS:    4528291  HIT:    3977695  MISS:     550596
cpu0_L1D RFO       ACCESS:     666404  HIT:     628534  MISS:      37870
cpu0_L1D PREFETCH  ACCESS:          0  HIT:          0  MISS:          0
cpu0_L1D WRITEBACK ACCESS:          0  HIT:          0  MISS:          0
cpu0_L2C TOTAL     ACCESS:     635666  HIT:     125521  MISS:     510145
cpu0_L2C LOAD      ACCESS:     550655  HIT:      75959  MISS:     474696
cpu0_L2C RFO       ACCESS:      37870  HIT:       2663  MISS:      35207
cpu0_L2C PREFETCH  ACCESS:          0  HIT:          0  MISS:          0
cpu0_L2C WRITEBACK ACCESS:      46960  HIT:      46813  MISS:        147
LLC TOTAL     ACCESS:     552849  HIT:     525302  MISS:      27547
LLC LOAD      ACCESS:     474696  HIT:     448622  MISS:      26074
LLC RFO       ACCESS:      35207  HIT:      34385  MISS:        822
LLC PREFETCH  ACCESS:          0  HIT:          0  MISS:          0
LLC WRITEBACK ACCESS:      42851  HIT:      42215  MISS:        636
Heartbeat CPU 0 instructions: 94000001 cycles: 34539733 heartbeat IPC: 2.33189 cumulative IPC: 2.04049 (Simulation time: 0 hr 53 min 13 sec) 

Region of Interest Statistics
cpu0_DTLB TOTAL     ACCESS:    7481713  HIT:    7425724  MISS:      55989
cpu0_DTLB LOAD      ACCESS:    7036496  HIT:    6982938  MISS:      53558
cpu0_DTLB RFO       ACCESS:     445217  HIT:     442786  MISS:       2431
cpu0_DTLB PREFETCH  ACCESS:          0  HIT:          0  MISS:          0
cpu0_DTLB WRITEBACK ACCESS:          0  HIT:          0  MISS:          0
cpu0_ITLB TOTAL     ACCESS:    3976963  HIT:    3976962  MISS:          1
cpu0_ITLB LOAD      ACCESS:    3976963  HIT:    3976962  MISS:          1
cpu0_ITLB RFO       ACCESS:          0  HIT:          0  MISS:          0
cpu0_ITLB PREFETCH  ACCESS:          0  HIT:          0  MISS:          0
cpu0_ITLB WRITEBACK ACCESS:          0  HIT:          0  MISS:          0
cpu0_L1I TOTAL     ACCESS:      39203  HIT:      39132  MISS:         71
cpu0_L1I LOAD      ACCESS:      39203  HIT:      39132  MISS:         71
cpu0_L1I RFO       ACCESS:          0  HIT:          0  MISS:          0
cpu0_L1I PREFETCH  ACCESS:          0  HIT:          0  MISS:          0
cpu0_L1I WRITEBACK ACCESS:          0  HIT:          0  MISS:          0
cpu0_STLB TOTAL     ACCESS:      55990  HIT:      39642  MISS:      16348
cpu0_STLB LOAD      ACCESS:      53559  HIT:      37631  MISS:      15928
cpu0_STLB RFO       ACCESS:       2431  HIT:       2011  MISS:        420
cpu0_STLB PREFETCH  ACCESS:          0  HIT:          0  MISS:          0
cpu0_STLB WRITEBACK ACCESS:          0  HIT:          0  MISS:          0
cpu0_L1D TOTAL     ACCESS:    5441467  HIT:    4826359  MISS:     615108
cpu0_L1D LOAD      ACCESS:    4744584  HIT:    4168348  MISS:     576236
cpu0_L1D RFO       ACCESS:     681559  HIT:     642871  MISS:      38688
cpu0_L1D PREFETCH  ACCESS:          0  HIT:          0  MISS:          0
cpu0_L1D WRITEBACK ACCESS:          0  HIT:          0  MISS:          0
cpu0_L2C TOTAL     ACCESS:     662983  HIT:     126653  MISS:     536330
cpu0_L2C LOAD      ACCESS:     576295  HIT:      76233  MISS:     500062
cpu0_L2C RFO       ACCESS:      38688  HIT:       2666  MISS:      36022
cpu0_L2C PREFETCH  ACCESS:          0  HIT:          0  MISS:          0
cpu0_L2C WRITEBACK ACCESS:      47816  HIT:      47668  MISS:        148
LLC TOTAL     ACCESS:     582480  HIT:     553999  MISS:      28481
LLC LOAD      ACCESS:     500062  HIT:     473088  MISS:      26974
LLC RFO       ACCESS:      36022  HIT:      35190  MISS:        832
LLC PREFETCH  ACCESS:          0  HIT:          0  MISS:          0
LLC WRITEBACK ACCESS:      46298  HIT:      45638  MISS:        660
Heartbeat CPU 0 instructions: 96000002 cycles: 35694851 heartbeat IPC: 1.73143 cumulative IPC: 2.02477 (Simulation time: 0 hr 54 min 28 sec) 

Region of Interest Statistics
cpu0_DTLB TOTAL     ACCESS:    7848319  HIT:    7787172  MISS:      61147
cpu0_DTLB LOAD      ACCESS:    7380662  HIT:    7322142  MISS:      58520
cpu0_DTLB RFO       ACCESS:     467657  HIT:     465030  MISS:       2627
cpu0_DTLB PREFETCH  ACCESS:          0  HIT:          0  MISS:          0
cpu0_DTLB WRITEBACK ACCESS:          0  HIT:          0  MISS:          0
cpu0_ITLB TOTAL     ACCESS:    4151967  HIT:    4151966  MISS:          1
cpu0_ITLB LOAD      ACCESS:    4151967  HIT:    4151966  MISS:          1
cpu0_ITLB RFO       ACCESS:          0  HIT:          0  MISS:          0
cpu0_ITLB PREFETCH  ACCESS:          0  HIT:          0  MISS:          0
cpu0_ITLB WRITEBACK ACCESS:          0  HIT:          0  MISS:          0
cpu0_L1I TOTAL     ACCESS:      40053  HIT:      39982  MISS:         71
cpu0_L1I LOAD      ACCESS:      40053  HIT:      39982  MISS:         71
cpu0_L1I RFO       ACCESS:          0  HIT:          0  MISS:          0
cpu0_L1I PREFETCH  ACCESS:          0  HIT:          0  MISS:          0
cpu0_L1I WRITEBACK ACCESS:          0  HIT:          0  MISS:          0
cpu0_STLB TOTAL     ACCESS:      61148  HIT:      43577  MISS:      17571
cpu0_STLB LOAD      ACCESS:      58521  HIT:      41384  MISS:      17137
cpu0_STLB RFO       ACCESS:       2627  HIT:       2193  MISS:        434
cpu0_STLB PREFETCH  ACCESS:          0  HIT:          0  MISS:          0
cpu0_STLB WRITEBACK ACCESS:          0  HIT:          0  MISS:          0
cpu0_L1D TOTAL     ACCESS:    5700023  HIT:    5055657  MISS:     644366
cpu0_L1D LOAD      ACCESS:    4965013  HIT:    4360108  MISS:     604905
cpu0_L1D RFO       ACCESS:     718542  HIT:     679278  MISS:      39264
cpu0_L1D PREFETCH  ACCESS:          0  HIT:          0  MISS:          0
cpu0_L1D WRITEBACK ACCESS:          0  HIT:          0  MISS:          0
cpu0_L2C TOTAL     ACCESS:     693811  HIT:     134031  MISS:     559780
cpu0_L2C LOAD      ACCESS:     604963  HIT:      82040  MISS:     522923
cpu0_L2C RFO       ACCESS:      39264  HIT:       2673  MISS:      36591
cpu0_L2C PREFETCH  ACCESS:          0  HIT:          0  MISS:          0
cpu0_L2C WRITEBACK ACCESS:      49387  HIT:      49227  MISS:        160
LLC TOTAL     ACCESS:     606409  HIT:     575887  MISS:      30522
LLC LOAD      ACCESS:     522923  HIT:     493914  MISS:      29009
LLC RFO       ACCESS:      36591  HIT:      35754  MISS:        837
LLC PREFETCH  ACCESS:          0  HIT:          0  MISS:          0
LLC WRITEBACK ACCESS:      46789  HIT:      46129  MISS:        660
Heartbeat CPU 0 instructions: 98000002 cycles: 36541961 heartbeat IPC: 2.36097 cumulative IPC: 2.03686 (Simulation time: 0 hr 55 min 35 sec) 

Region of Interest Statistics
cpu0_DTLB TOTAL     ACCESS:    8167989  HIT:    8105866  MISS:      62123
cpu0_DTLB LOAD      ACCESS:    7685917  HIT:    7626505  MISS:      59412
cpu0_DTLB RFO       ACCESS:     482072  HIT:     479361  MISS:       2711
cpu0_DTLB PREFETCH  ACCESS:          0  HIT:          0  MISS:          0
cpu0_DTLB WRITEBACK ACCESS:          0  HIT:          0  MISS:          0
cpu0_ITLB TOTAL     ACCESS:    4339687  HIT:    4339686  MISS:          1
cpu0_ITLB LOAD      ACCESS:    4339687  HIT:    4339686  MISS:          1
cpu0_ITLB RFO       ACCESS:          0  HIT:          0  MISS:          0
cpu0_ITLB PREFETCH  ACCESS:          0  HIT:          0  MISS:          0
cpu0_ITLB WRITEBACK ACCESS:          0  HIT:          0  MISS:          0
cpu0_L1I TOTAL     ACCESS:      40989  HIT:      40918  MISS:         71
cpu0_L1I LOAD      ACCESS:      40989  HIT:      40918  MISS:         71
cpu0_L1I RFO       ACCESS:          0  HIT:          0  MISS:          0
cpu0_L1I PREFETCH  ACCESS:          0  HIT:          0  MISS:          0
cpu0_L1I WRITEBACK ACCESS:          0  HIT:          0  MISS:          0
cpu0_STLB TOTAL     ACCESS:      62124  HIT:      44192  MISS:      17932
cpu0_STLB LOAD      ACCESS:      59413  HIT:      41946  MISS:      17467
cpu0_STLB RFO       ACCESS:       2711  HIT:       2246  MISS:        465
cpu0_STLB PREFETCH  ACCESS:          0  HIT:          0  MISS:          0
cpu0_STLB WRITEBACK ACCESS:          0  HIT:          0  MISS:          0
cpu0_L1D TOTAL     ACCESS:    5925723  HIT:    5253384  MISS:     672339
cpu0_L1D LOAD      ACCESS:    5174731  HIT:    4545047  MISS:     629684
cpu0_L1D RFO       ACCESS:     734184  HIT:     691732  MISS:      42452
cpu0_L1D PREFETCH  ACCESS:          0  HIT:          0  MISS:          0
cpu0_L1D WRITEBACK ACCESS:          0  HIT:          0  MISS:          0
cpu0_L2C TOTAL     ACCESS:     725065  HIT:     140135  MISS:     584930
cpu0_L2C LOAD      ACCESS:     629742  HIT:      84625  MISS:     545117
cpu0_L2C RFO       ACCESS:      42452  HIT:       2909  MISS:      39543
cpu0_L2C PREFETCH  ACCESS:          0  HIT:          0  MISS:          0
cpu0_L2C WRITEBACK ACCESS:      52668  HIT:      52505  MISS:        163
LLC TOTAL     ACCESS:     635482  HIT:     604449  MISS:      31033
LLC LOAD      ACCESS:     545117  HIT:     515655  MISS:      29462
LLC RFO       ACCESS:      39543  HIT:      38673  MISS:        870
LLC PREFETCH  ACCESS:          0  HIT:          0  MISS:          0
LLC WRITEBACK ACCESS:      50715  HIT:      50030  MISS:        685
Heartbeat CPU 0 instructions: 100000003 cycles: 37618131 heartbeat IPC: 1.85844 cumulative IPC: 2.02907 (Simulation time: 0 hr 56 min 49 sec) 

Region of Interest Statistics
cpu0_DTLB TOTAL     ACCESS:    8516060  HIT:    8450466  MISS:      65594
cpu0_DTLB LOAD      ACCESS:    8015525  HIT:    7952689  MISS:      62836
cpu0_DTLB RFO       ACCESS:     500535  HIT:     497777  MISS:       2758
cpu0_DTLB PREFETCH  ACCESS:          0  HIT:          0  MISS:          0
cpu0_DTLB WRITEBACK ACCESS:          0  HIT:          0  MISS:          0
cpu0_ITLB TOTAL     ACCESS:    4513470  HIT:    4513469  MISS:          1
cpu0_ITLB LOAD      ACCESS:    4513470  HIT:    4513469  MISS:          1
cpu0_ITLB RFO       ACCESS:          0  HIT:          0  MISS:          0
cpu0_ITLB PREFETCH  ACCESS:          0  HIT:          0  MISS:          0
cpu0_ITLB WRITEBACK ACCESS:          0  HIT:          0  MISS:          0
cpu0_L1I TOTAL     ACCESS:      41008  HIT:      40937  MISS:         71
cpu0_L1I LOAD      ACCESS:      41008  HIT:      40937  MISS:         71
cpu0_L1I RFO       ACCESS:          0  HIT:          0  MISS:          0
cpu0_L1I PREFETCH  ACCESS:          0  HIT:          0  MISS:          0
cpu0_L1I WRITEBACK ACCESS:          0  HIT:          0  MISS:          0
cpu0_STLB TOTAL     ACCESS:      65595  HIT:      46756  MISS:      18839
cpu0_STLB LOAD      ACCESS:      62837  HIT:      44468  MISS:      18369
cpu0_STLB RFO       ACCESS:       2758  HIT:       2288  MISS:        470
cpu0_STLB PREFETCH  ACCESS:          0  HIT:          0  MISS:          0
cpu0_STLB WRITEBACK ACCESS:          0  HIT:          0  MISS:          0
cpu0_L1D TOTAL     ACCESS:    6169025  HIT:    5468566  MISS:     700459
cpu0_L1D LOAD      ACCESS:    5388044  HIT:    4730888  MISS:     657156
cpu0_L1D RFO       ACCESS:     763331  HIT:     720238  MISS:      43093
cpu0_L1D PREFETCH  ACCESS:          0  HIT:          0  MISS:          0
cpu0_L1D WRITEBACK ACCESS:          0  HIT:          0  MISS:          0
cpu0_L2C TOTAL     ACCESS:     753842  HIT:     144505  MISS:     609337
cpu0_L2C LOAD      ACCESS:     657214  HIT:      88336  MISS:     568878
cpu0_L2C RFO       ACCESS:      43093  HIT:       2909  MISS:      40184
cpu0_L2C PREFETCH  ACCESS:          0  HIT:          0  MISS:          0
cpu0_L2C WRITEBACK ACCESS:      53325  HIT:      53161  MISS:        164
LLC TOTAL     ACCESS:     660553  HIT:     627305  MISS:      33248
LLC LOAD      ACCESS:     568878  HIT:     537204  MISS:      31674
LLC RFO       ACCESS:      40184  HIT:      39311  MISS:        873
LLC PREFETCH  ACCESS:          0  HIT:          0  MISS:          0
LLC WRITEBACK ACCESS:      51380  HIT:      50695  MISS:        685
Heartbeat CPU 0 instructions: 102000001 cycles: 38603608 heartbeat IPC: 2.02947 cumulative IPC: 2.02908 (Simulation time: 0 hr 58 min 0 sec) 

Region of Interest Statistics
cpu0_DTLB TOTAL     ACCESS:    8859706  HIT:    8791172  MISS:      68534
cpu0_DTLB LOAD      ACCESS:    8338673  HIT:    8273137  MISS:      65536
cpu0_DTLB RFO       ACCESS:     521033  HIT:     518035  MISS:       2998
cpu0_DTLB PREFETCH  ACCESS:          0  HIT:          0  MISS:          0
cpu0_DTLB WRITEBACK ACCESS:          0  HIT:          0  MISS:          0
cpu0_ITLB TOTAL     ACCESS:    4698548  HIT:    4698547  MISS:          1
cpu0_ITLB LOAD      ACCESS:    4698548  HIT:    4698547  MISS:          1
cpu0_ITLB RFO       ACCESS:          0  HIT:          0  MISS:          0
cpu0_ITLB PREFETCH  ACCESS:          0  HIT:          0  MISS:          0
cpu0_ITLB WRITEBACK ACCESS:          0  HIT:          0  MISS:          0
cpu0_L1I TOTAL     ACCESS:      42685  HIT:      42614  MISS:         71
cpu0_L1I LOAD      ACCESS:      42685  HIT:      42614  MISS:         71
cpu0_L1I RFO       ACCESS:          0  HIT:          0  MISS:          0
cpu0_L1I PREFETCH  ACCESS:          0  HIT:          0  MISS:          0
cpu0_L1I WRITEBACK ACCESS:          0  HIT:          0  MISS:          0
cpu0_STLB TOTAL     ACCESS:      68535  HIT:      48944  MISS:      19591
cpu0_STLB LOAD      ACCESS:      65537  HIT:      46457  MISS:      19080
cpu0_STLB RFO       ACCESS:       2998  HIT:       2487  MISS:        511
cpu0_STLB PREFETCH  ACCESS:          0  HIT:          0  MISS:          0
cpu0_STLB WRITEBACK ACCESS:          0  HIT:          0  MISS:          0
cpu0_L1D TOTAL     ACCESS:    6410677  HIT:    5680583  MISS:     730094
cpu0_L1D LOAD      ACCESS:    5601969  HIT:    4918368  MISS:     683601
cpu0_L1D RFO       ACCESS:     790341  HIT:     744075  MISS:      46266
cpu0_L1D PREFETCH  ACCESS:          0  HIT:          0  MISS:          0
cpu0_L1D WRITEBACK ACCESS:          0  HIT:          0  MISS:          0
cpu0_L2C TOTAL     ACCESS:     787800  HIT:     154055  MISS:     633745
cpu0_L2C LOAD      ACCESS:     683658  HIT:      93278  MISS:     590380
cpu0_L2C RFO       ACCESS:      46266  HIT:       3200  MISS:      43066
cpu0_L2C PREFETCH  ACCESS:          0  HIT:          0  MISS:          0
cpu0_L2C WRITEBACK ACCESS:      57649  HIT:      57470  MISS:        179
LLC TOTAL     ACCESS:     687595  HIT:     653386  MISS:      34209
LLC LOAD      ACCESS:     590380  HIT:     557812  MISS:      32568
LLC RFO       ACCESS:      43066  HIT:      42154  MISS:        912
LLC PREFETCH  ACCESS:          0  HIT:          0  MISS:          0
LLC WRITEBACK ACCESS:      54029  HIT:      53316  MISS:        713
Heartbeat CPU 0 instructions: 104000004 cycles: 39779518 heartbeat IPC: 1.70081 cumulative IPC: 2.01468 (Simulation time: 0 hr 59 min 16 sec) 

Region of Interest Statistics
cpu0_DTLB TOTAL     ACCESS:    9189551  HIT:    9119601  MISS:      69950
cpu0_DTLB LOAD      ACCESS:    8655700  HIT:    8588789  MISS:      66911
cpu0_DTLB RFO       ACCESS:     533851  HIT:     530812  MISS:       3039
cpu0_DTLB PREFETCH  ACCESS:          0  HIT:          0  MISS:          0
cpu0_DTLB WRITEBACK ACCESS:          0  HIT:          0  MISS:          0
cpu0_ITLB TOTAL     ACCESS:    4881548  HIT:    4881547  MISS:          1
cpu0_ITLB LOAD      ACCESS:    4881548  HIT:    4881547  MISS:          1
cpu0_ITLB RFO       ACCESS:          0  HIT:          0  MISS:          0
cpu0_ITLB PREFETCH  ACCESS:          0  HIT:          0  MISS:          0
cpu0_ITLB WRITEBACK ACCESS:          0  HIT:          0  MISS:          0
cpu0_L1I TOTAL     ACCESS:      42733  HIT:      42662  MISS:         71
cpu0_L1I LOAD      ACCESS:      42733  HIT:      42662  MISS:         71
cpu0_L1I RFO       ACCESS:          0  HIT:          0  MISS:          0
cpu0_L1I PREFETCH  ACCESS:          0  HIT:          0  MISS:          0
cpu0_L1I WRITEBACK ACCESS:          0  HIT:          0  MISS:          0
cpu0_STLB TOTAL     ACCESS:      69951  HIT:      49807  MISS:      20144
cpu0_STLB LOAD      ACCESS:      66912  HIT:      47280  MISS:      19632
cpu0_STLB RFO       ACCESS:       3039  HIT:       2527  MISS:        512
cpu0_STLB PREFETCH  ACCESS:          0  HIT:          0  MISS:          0
cpu0_STLB WRITEBACK ACCESS:          0  HIT:          0  MISS:          0
cpu0_L1D TOTAL     ACCESS:    6643027  HIT:    5885642  MISS:     757385
cpu0_L1D LOAD      ACCESS:    5814323  HIT:    5104134  MISS:     710189
cpu0_L1D RFO       ACCESS:     809817  HIT:     762853  MISS:      46964
cpu0_L1D PREFETCH  ACCESS:          0  HIT:          0  MISS:          0
cpu0_L1D WRITEBACK ACCESS:          0  HIT:          0  MISS:          0
cpu0_L2C TOTAL     ACCESS:     815816  HIT:     156228  MISS:     659588
cpu0_L2C LOAD      ACCESS:     710246  HIT:      94725  MISS:     615521
cpu0_L2C RFO       ACCESS:      46964  HIT:       3200  MISS:      43764
cpu0_L2C PREFETCH  ACCESS:          0  HIT:          0  MISS:          0
cpu0_L2C WRITEBACK ACCESS:      58374  HIT:      58194  MISS:        180
LLC TOTAL     ACCESS:     715483  HIT:     677464  MISS:      38019
LLC LOAD      ACCESS:     615521  HIT:     579157  MISS:      36364
LLC RFO       ACCESS:      43764  HIT:      42843  MISS:        921
LLC PREFETCH  ACCESS:          0  HIT:          0  MISS:          0
LLC WRITEBACK ACCESS:      56075  HIT:      55357  MISS:        718
Heartbeat CPU 0 instructions: 106000002 cycles: 41372759 heartbeat IPC: 1.2553 cumulative IPC: 1.97207 (Simulation time: 1 hr 0 min 47 sec) 

Region of Interest Statistics
cpu0_DTLB TOTAL     ACCESS:    9550700  HIT:    9475885  MISS:      74815
cpu0_DTLB LOAD      ACCESS:    8995802  HIT:    8924103  MISS:      71699
cpu0_DTLB RFO       ACCESS:     554898  HIT:     551782  MISS:       3116
cpu0_DTLB PREFETCH  ACCESS:          0  HIT:          0  MISS:          0
cpu0_DTLB WRITEBACK ACCESS:          0  HIT:          0  MISS:          0
cpu0_ITLB TOTAL     ACCESS:    5049521  HIT:    5049520  MISS:          1
cpu0_ITLB LOAD      ACCESS:    5049521  HIT:    5049520  MISS:          1
cpu0_ITLB RFO       ACCESS:          0  HIT:          0  MISS:          0
cpu0_ITLB PREFETCH  ACCESS:          0  HIT:          0  MISS:          0
cpu0_ITLB WRITEBACK ACCESS:          0  HIT:          0  MISS:          0
cpu0_L1I TOTAL     ACCESS:      42733  HIT:      42662  MISS:         71
cpu0_L1I LOAD      ACCESS:      42733  HIT:      42662  MISS:         71
cpu0_L1I RFO       ACCESS:          0  HIT:          0  MISS:          0
cpu0_L1I PREFETCH  ACCESS:          0  HIT:          0  MISS:          0
cpu0_L1I WRITEBACK ACCESS:          0  HIT:          0  MISS:          0
cpu0_STLB TOTAL     ACCESS:      74816  HIT:      53676  MISS:      21140
cpu0_STLB LOAD      ACCESS:      71700  HIT:      51077  MISS:      20623
cpu0_STLB RFO       ACCESS:       3116  HIT:       2599  MISS:        517
cpu0_STLB PREFETCH  ACCESS:          0  HIT:          0  MISS:          0
cpu0_STLB WRITEBACK ACCESS:          0  HIT:          0  MISS:          0
cpu0_L1D TOTAL     ACCESS:    6887057  HIT:    6100692  MISS:     786365
cpu0_L1D LOAD      ACCESS:    6022563  HIT:    5283817  MISS:     738746
cpu0_L1D RFO       ACCESS:     844672  HIT:     797291  MISS:      47381
cpu0_L1D PREFETCH  ACCESS:          0  HIT:          0  MISS:          0
cpu0_L1D WRITEBACK ACCESS:          0  HIT:          0  MISS:          0
cpu0_L2C TOTAL     ACCESS:     845197  HIT:     162673  MISS:     682524
cpu0_L2C LOAD      ACCESS:     738803  HIT:     100765  MISS:     638038
cpu0_L2C RFO       ACCESS:      47381  HIT:       3200  MISS:      44181
cpu0_L2C PREFETCH  ACCESS:          0  HIT:          0  MISS:          0
[...]

ChampSim completed all CPUs

Region of Interest Statistics

CPU 0 cumulative IPC: 1.92494 instructions: 1500000003 cycles: 779244233
cpu0_DTLB TOTAL     ACCESS:  256543325  HIT:  254501468  MISS:    2041857
cpu0_DTLB LOAD      ACCESS:  241769398  HIT:  239813251  MISS:    1956147
cpu0_DTLB RFO       ACCESS:   14773927  HIT:   14688217  MISS:      85710
cpu0_DTLB PREFETCH  ACCESS:          0  HIT:          0  MISS:          0
cpu0_DTLB WRITEBACK ACCESS:          0  HIT:          0  MISS:          0
cpu0_DTLB TRANSLATION ACCESS:          0  HIT:          0  MISS:          0
cpu0_DTLB PREFETCH  REQUESTED:          0  ISSUED:          0  USEFUL:          0  USELESS:          0
cpu0_DTLB AVERAGE MISS LATENCY: 11.3535 cycles
cpu0_ITLB TOTAL     ACCESS:  134761696  HIT:  134761668  MISS:         28
cpu0_ITLB LOAD      ACCESS:  134761696  HIT:  134761668  MISS:         28
cpu0_ITLB RFO       ACCESS:          0  HIT:          0  MISS:          0
cpu0_ITLB PREFETCH  ACCESS:          0  HIT:          0  MISS:          0
cpu0_ITLB WRITEBACK ACCESS:          0  HIT:          0  MISS:          0
cpu0_ITLB TRANSLATION ACCESS:          0  HIT:          0  MISS:          0
cpu0_ITLB PREFETCH  REQUESTED:          0  ISSUED:          0  USEFUL:          0  USELESS:          0
cpu0_ITLB AVERAGE MISS LATENCY: 176.036 cycles
cpu0_L1I TOTAL     ACCESS:    1094267  HIT:    1092478  MISS:       1789
cpu0_L1I LOAD      ACCESS:    1094267  HIT:    1092478  MISS:       1789
cpu0_L1I RFO       ACCESS:          0  HIT:          0  MISS:          0
cpu0_L1I PREFETCH  ACCESS:          0  HIT:          0  MISS:          0
cpu0_L1I WRITEBACK ACCESS:          0  HIT:          0  MISS:          0
cpu0_L1I TRANSLATION ACCESS:          0  HIT:          0  MISS:          0
cpu0_L1I PREFETCH  REQUESTED:          0  ISSUED:          0  USEFUL:          0  USELESS:          0
cpu0_L1I AVERAGE MISS LATENCY: 160.609 cycles
cpu0_STLB TOTAL     ACCESS:    2041885  HIT:    1510908  MISS:     530977
cpu0_STLB LOAD      ACCESS:    1956175  HIT:    1438402  MISS:     517773
cpu0_STLB RFO       ACCESS:      85710  HIT:      72506  MISS:      13204
cpu0_STLB PREFETCH  ACCESS:          0  HIT:          0  MISS:          0
cpu0_STLB WRITEBACK ACCESS:          0  HIT:          0  MISS:          0
cpu0_STLB TRANSLATION ACCESS:          0  HIT:          0  MISS:          0
cpu0_STLB PREFETCH  REQUESTED:          0  ISSUED:          0  USEFUL:          0  USELESS:          0
cpu0_STLB AVERAGE MISS LATENCY: 8.91748 cycles
cpu0_L1D TOTAL     ACCESS:  184016592  HIT:  162987726  MISS:   21028866
cpu0_L1D LOAD      ACCESS:  161215795  HIT:  141488274  MISS:   19727521
cpu0_L1D RFO       ACCESS:   22301191  HIT:   21007029  MISS:    1294162
cpu0_L1D PREFETCH  ACCESS:          0  HIT:          0  MISS:          0
cpu0_L1D WRITEBACK ACCESS:          0  HIT:          0  MISS:          0
cpu0_L1D TRANSLATION ACCESS:     499606  HIT:     492423  MISS:       7183
cpu0_L1D PREFETCH  REQUESTED:          0  ISSUED:          0  USEFUL:          0  USELESS:          0
cpu0_L1D AVERAGE MISS LATENCY: 39.8948 cycles
cpu0_L2C TOTAL     ACCESS:   22653461  HIT:    4430613  MISS:   18222848
cpu0_L2C LOAD      ACCESS:   19729197  HIT:    2715420  MISS:   17013777
cpu0_L2C RFO       ACCESS:    1294145  HIT:      93105  MISS:    1201040
cpu0_L2C PREFETCH  ACCESS:          0  HIT:          0  MISS:          0
cpu0_L2C WRITEBACK ACCESS:    1622936  HIT:    1618048  MISS:       4888
cpu0_L2C TRANSLATION ACCESS:       7183  HIT:       4040  MISS:       3143
cpu0_L2C PREFETCH  REQUESTED:          0  ISSUED:          0  USEFUL:          0  USELESS:          0
cpu0_L2C AVERAGE MISS LATENCY: 33.3278 cycles
LLC TOTAL     ACCESS:   19704716  HIT:   18233538  MISS:    1471178
LLC LOAD      ACCESS:   17013766  HIT:   15624669  MISS:    1389097
LLC RFO       ACCESS:    1201040  HIT:    1156687  MISS:      44353
LLC PREFETCH  ACCESS:          0  HIT:          0  MISS:          0
LLC WRITEBACK ACCESS:    1486767  HIT:    1449394  MISS:      37373
LLC TRANSLATION ACCESS:       3143  HIT:       2788  MISS:        355
LLC PREFETCH  REQUESTED:          0  ISSUED:          0  USEFUL:          0  USELESS:          0
LLC AVERAGE MISS LATENCY: 152.762 cycles
~~~~~~~~~~Reuse Distance Profiler output~~~~~~~~~~
0	25106272	14968528
1	26370944	24905184
2	23489120	22172192
3	17040128	16482928
4	13456224	12835136
5	7847024	7319376
6	7011824	6503808
7	4091024	3872896
8	2683952	2522960
9	1913696	1791920
10	1733632	1614864
11	933296	798768
12	872736	757024
13	558848	460000
14	703632	507776
15	458656	391040
16	598656	438624
17	619568	550912
18	537904	465888
19	325904	252080
20	439744	294624
21	377152	328432
22	272384	211936
23	427648	365872
24	293712	170992
25	431136	339040
26	357728	306592
27	491664	442704
28	457888	407040
29	688992	580096
30	515008	348864
31	710976	583648
32	611440	468896
33	996560	763552
34	639984	561776
35	927312	762576
36	1008320	861936
37	1207920	984080
38	980576	923344
39	782112	724560
40	904288	780080
41	776416	712704
42	800160	700992
43	668160	588448
44	612400	551856
45	634928	575872
46	657488	598752
47	676896	614288
48	710544	648608
49	725344	656576
50	679216	626336
51	652448	600864
52	593616	547824
53	536992	492624
54	504688	468192
55	445008	412544
56	393328	361184
57	330032	306080
58	274128	251760
59	245552	225392
60	229264	208768
61	211184	191952
62	168272	151088
63	165200	131824
64	387568	314608
66	216656	178992
68	201936	159840
70	161040	134752
72	129232	117232
74	156416	145616
76	234736	222352
78	173312	160944
80	212384	195040
82	153536	140032
84	152096	131904
86	154640	135328
88	171232	148336
90	194720	164368
92	179088	156448
94	165200	139824
96	158608	131872
98	155232	128864
100	146960	130208
102	145232	126480
104	134704	121472
106	140624	126304
108	118752	105168
110	111664	98240
112	110288	93376
114	96304	74480
116	75312	61760
118	66544	50064
120	54064	43712
122	41984	34592
124	39024	30560
126	57392	34832
128	146640	109776
132	64816	49840
136	58784	49152
140	66208	58224
144	77584	70288
148	100944	94464
152	108208	102048
156	119568	112624
160	112144	105680
164	98720	93168
168	79968	74416
172	61040	56224
176	45136	40304
180	36224	31696
184	33808	29840
188	34848	30816
192	33760	30672
196	37872	34240
200	49216	43504
204	54848	47888
208	62144	57872
212	72416	68704
216	62208	58720
220	55696	52112
224	45088	40992
228	32624	28816
232	28352	23952
236	25424	21200
240	27552	21520
244	28032	19312
248	33856	22464
252	39456	22288
256	100176	67936
264	51472	39552
272	33824	26640
280	29216	22848
288	32448	25104
296	38480	30304
304	39152	30400
312	37328	26944
320	37456	22992
328	37456	20656
336	42992	25360
344	42560	27376
352	42032	28416
360	38640	29120
368	35872	28560
376	34480	27952
384	38032	32192
392	49152	42592
400	70848	63104
408	96480	85680
416	120608	107104
424	134112	120192
432	126080	112592
440	112208	99600
448	95984	84880
456	82304	72352
464	72416	62352
472	65152	55360
480	67600	56752
488	87632	75520
496	124496	107520
504	168448	145952
512	446976	383376
528	352928	301680
544	160192	133904
560	71920	57888
576	48704	38240
592	38992	30736
608	34048	27424
624	30320	20368
640	30656	22400
656	20480	16672
672	18976	14848
688	17776	14464
704	18880	15600
720	17168	13984
736	16240	12800
752	16272	12656
768	14992	12368
784	15600	12432
800	18416	15168
816	16800	13856
832	20864	16096
848	19280	15056
864	15792	13184
880	20464	17008
896	17008	14240
912	14656	11984
928	13152	10272
944	11872	9664
960	14736	11168
976	14256	11408
992	16832	14080
1008	18400	15536
1024	49952	43264
1056	47952	43088
1088	30624	27104
1120	22272	18576
1152	20688	16608
1184	15888	12624
1216	14240	11040
1248	12768	9840
1280	13712	10848
1312	13152	10176
1344	13520	10464
1376	12944	10032
1408	11280	8736
1440	11728	8976
1472	11584	9200
1504	12608	10368
1536	16688	13888
1568	24368	22512
1600	24064	22880
1632	16528	15296
1664	12512	11104
1696	10592	9376
1728	9936	9120
1760	9168	8768
1792	10144	9584
1824	9040	8064
1856	7392	6736
1888	8560	7840
1920	9120	8416
1952	11920	10656
1984	9168	8304
2016	10976	9808
2048	30048	28592
2112	38192	37120
2176	23200	22432
2240	20304	19264
2304	22400	20928
2368	19504	17744
2432	20560	19200
2496	21008	19264
2560	26288	22128
2624	40576	30576
2688	35152	25760
2752	22528	19216
2816	20160	18272
2880	21440	19680
2944	17920	16048
3008	16480	14832
3072	19520	18080
3136	25888	24208
3200	22352	20896
3264	19840	18880
3328	15792	14976
3392	14208	13552
3456	12576	11824
3520	13136	12768
3584	14976	14864
3648	16048	15968
3712	16592	16576
3776	15424	15344
3840	15328	15232
3904	13632	13488
3968	11376	11296
4032	11696	11552
4096	27344	26928
4224	31328	30112
4352	28864	28464
4480	24864	24416
4608	25536	24592
4736	32240	31760
4864	25296	25056
4992	26640	26192
5120	25504	24432
5248	29440	28832
5376	29264	28448
5504	23360	22928
5632	22832	22080
5760	26576	26032
5888	29104	28880
6016	21280	20896
6144	23776	22944
6272	21904	21376
6400	22864	22272
6528	20768	20224
6656	21024	20432
6784	22448	22016
6912	21568	21024
7040	21040	20288
7168	19088	18672
7296	18288	17824
7424	19968	18880
7552	20000	18416
7680	19104	17952
7808	20400	19728
7936	25072	19824
8064	24848	19008
8192	40160	38176
8448	41120	38240
8704	39808	35296
8960	40992	37376
9216	33328	32736
9472	35248	34384
9728	34320	32944
9984	32464	30368
10240	32848	30320
10496	31872	30288
10752	42032	31872
11008	36640	31936
11264	29136	28112
11520	29536	27520
11776	32080	27808
12032	33040	28464
12288	30080	28992
12544	27504	27152
12800	28000	27856
13056	27920	27728
13312	27040	26432
13568	32688	26752
13824	27760	26768
14080	27664	26976
14336	30832	29520
14592	25552	24928
14848	24544	24096
15104	25616	24912
15360	25424	24576
15616	24720	24432
15872	24784	24208
16128	23712	23248
16384	48240	46096
16896	49536	47024
17408	47904	46304
17920	59552	43984
18432	47904	45344
18944	67616	44208
19456	50256	44512
19968	37552	35184
20480	42496	41856
20992	69024	64400
21504	24672	24432
22016	22416	21504
22528	21952	21504
23040	21008	20592
23552	20000	19664
24064	19440	19360
24576	20208	19888
25088	18080	17920
25600	18768	18576
26112	18032	17936
26624	16752	16624
27136	17184	17104
27648	16784	16736
28160	16448	16336
28672	16016	15984
29184	15872	15664
29696	16448	16304
30208	14288	14112
30720	13952	13888
31232	14352	14320
31744	13456	13424
32256	14256	14208
32768	26880	26720
33792	24992	24944
34816	25184	25136
35840	24688	24608
36864	22768	22720
37888	21200	21104
38912	20192	20000
39936	19648	19648
40960	22016	21792
41984	21328	21312
43008	18272	18256
44032	16496	16448
45056	15392	15312
46080	15472	15424
47104	14768	14768
48128	14656	14336
49152	14896	14736
50176	13696	13648
51200	11872	11872
52224	12544	12544
53248	10944	10928
54272	10896	10896
55296	10400	10400
56320	10656	10656
57344	9584	9584
58368	9104	9104
59392	9584	9568
60416	12464	12304
61440	17456	16944
62464	24832	24496
63488	21664	21456
64512	20896	20848
65536	49824	49808
67584	21936	21936
69632	18768	18768
71680	20864	20864
73728	15696	15696
75776	16256	16256
77824	15600	15216
79872	15536	13808
81920	17712	13376
83968	20304	16144
86016	22288	15968
88064	32368	14720
90112	39200	11120
92160	31472	10080
94208	19296	9728
96256	14304	8976
98304	13360	8816
100352	10304	7824
102400	10864	8928
104448	9088	8432
106496	8160	7568
108544	7872	7696
110592	7216	6944
112640	6176	6064
114688	6352	6160
116736	6224	6032
118784	5968	5360
120832	7152	6496
122880	6640	5936
124928	6240	5456
126976	8576	7584
129024	6864	5776
131072	12704	10400
135168	14864	11904
139264	12944	10256
143360	12880	9888
147456	13264	10240
151552	11984	8800
155648	12688	9712
159744	12672	9264
163840	12176	8304
167936	15536	9984
172032	14480	9024
176128	13344	9120
180224	11360	7824
184320	12480	8944
188416	13456	9808
192512	12944	8576
196608	12752	8640
200704	11344	7728
204800	11632	7488
208896	12656	8464
212992	13776	10192
217088	10528	7344
221184	10528	7040
225280	10560	6336
229376	11216	6464
233472	14160	9200
237568	19056	14704
241664	15104	11152
245760	12672	8304
249856	11184	7136
253952	11328	7376
258048	10416	6320
262144	20528	12448
270336	21920	12864
278528	22224	13248
286720	23968	13568
294912	24624	15536
303104	21280	10576
311296	19840	9232
319488	20928	10672
327680	20192	10256
335872	16320	9248
344064	19488	12656
352256	16016	8416
360448	14640	7664
368640	19360	8912
376832	115760	108192
385024	50640	44256
393216	46816	39728
401408	122832	115632
409600	85152	78800
417792	51776	45152
425984	59744	53216
434176	140112	134128
442368	43936	39888
450560	59488	55056
458752	59328	53392
466944	61632	54880
475136	96336	89648
483328	110048	99568
491520	133552	122832
499712	246880	235600
507904	160304	137056
516096	267856	231200
524288	1500768	1408960
540672	2016400	1917872
557056	1940000	1848464
573440	1473088	1395088
589824	1492480	1440288
606208	1092896	1057696
622592	573920	537440
638976	1004720	963600
655360	843488	817712
671744	488688	472480
688128	331600	318896
704512	216624	206144
720896	279968	274688
737280	21680	19872
753664	67776	58144
770048	306272	296208
786432	110304	105200
802816	117760	112592
819200	135056	127488
835584	132720	123024
851968	214832	207568
868352	144032	138784
884736	101136	92720
901120	124416	119536
917504	66368	63376
933888	140368	137552
950272	10912	9232
966656	44496	41968
983040	75328	73808
999424	36944	36720
1015808	9936	8896
1032192	9136	7088
1048576	54512	49648
1081344	142464	140640
1114112	6416	6384
1146880	4656	4656
1179648	2736	2720
1212416	2064	2048
1245184	2336	2336
1277952	9024	8944
1310720	9088	8416
1343488	8032	6480
1376256	33840	33776
1409024	1664	1648
1441792	2944	2912
1474560	2256	2256
1507328	1536	1520
1540096	2480	2480
1572864	2960	2960
1605632	2176	2160
1638400	3088	3072
1671168	1968	1968
1703936	1664	1632
1736704	1792	1792
1769472	2880	2848
1802240	1936	1920
1835008	2208	2208
1867776	2112	2112
1900544	2304	2272
1933312	1168	1168
1966080	992	960
1998848	1056	1040
2031616	1072	1056
2064384	768	752
2097152	1232	1216
2162688	1760	1744
2228224	2384	2384
2293760	2608	2608
2359296	1600	1600
2424832	1872	1856
2490368	1472	1472
2555904	2144	2112
2621440	1072	1056
2686976	3680	3664
2752512	5440	5392
2818048	1088	1056
2883584	4160	4128
2949120	816	768
3014656	1152	1136
3080192	640	640
3145728	1136	1088
3211264	736	736
3276800	2704	2704
3342336	3984	3968
3407872	3200	3184
3473408	976	912
3538944	720	704
3604480	2496	2496
3670016	608	576
3735552	368	368
3801088	576	560
3866624	1312	1312
3932160	1968	1968
3997696	2720	2704
4063232	2256	2192
4128768	784	768
4194304	4896	4832
4325376	800	784
4456448	544	544
4587520	7440	7360
4718592	816	784
4849664	3456	3456
4980736	1392	1376
5111808	1584	1344
5242880	3728	3472
5373952	1008	928
5505024	544	544
5636096	3824	3376
5767168	1616	1264
5898240	5120	5024
6029312	2160	1776
6160384	400	384
6291456	2112	944
6422528	1264	1216
6553600	704	608
6684672	1792	1744
6815744	1472	784
6946816	4800	3792
7077888	3328	1184
7208960	2096	800
7340032	4848	3408
7471104	2176	1152
7602176	2288	1120
7733248	1088	512
7864320	2096	1056
7995392	2720	1952
8126464	960	624
8257536	1776	1536
8388608	2880	2192
8650752	6640	6304
8912896	960	864
9175040	1424	1408
9437184	688	688
9699328	2512	2496
9961472	2320	1776
10223616	848	608
10485760	592	576
10747904	320	320
11010048	2384	2384
11272192	176	176
11534336	432	432
11796480	368	352
12058624	160	160
12320768	336	336
12582912	208	144
12845056	400	400
13107200	112	96
13369344	160	160
13631488	1792	1776
13893632	352	352
14155776	448	368
14417920	112	112
14680064	752	752
14942208	320	240
15204352	464	464
15466496	480	480
15728640	496	480
15990784	768	768
16252928	2032	2032
16515072	944	912
16777216	2640	2640
17301504	2640	2640
17825792	3392	3392
18350080	2832	2832
18874368	1376	1344
19398656	3568	3568
19922944	1840	1840
20447232	512	480
20971520	784	784
21495808	800	800
22020096	1168	1168
22544384	960	960
23068672	1344	1344
23592960	2000	2000
24117248	2480	2480
24641536	1168	1168
25165824	1264	1264
25690112	496	496
26214400	384	368
26738688	768	768
27262976	1360	1360
27787264	2192	2192
28311552	336	336
28835840	1184	1184
29360128	256	256
29884416	352	352
30408704	560	528
30932992	304	304
31457280	272	272
31981568	304	304
32505856	128	128
33030144	48	48
33554432	48	48
34603008	2144	2128
35651584	192	192
36700160	1248	1248
37748736	1216	1216
38797312	1248	1248
39845888	4224	4224
40894464	1808	1808
41943040	2688	2688
42991616	1040	1024
44040192	304	304
45088768	224	224
46137344	272	256
47185920	64	64
48234496	0	0
49283072	256	256
50331648	16	16
51380224	64	64
52428800	80	80
53477376	96	96
54525952	32	32
55574528	160	160
56623104	48	48
57671680	64	64
58720256	144	144
59768832	48	32
60817408	32	32
61865984	16	16
62914560	0	0
63963136	0	0
65011712	0	0
66060288	0	0
67108864	0	0
69206016	0	0
71303168	0	0
73400320	16	0
75497472	16	0
77594624	16	0
79691776	16	0
81788928	16	0
83886080	384	384
85983232	16	16
88080384	80	80
90177536	480	480
92274688	2288	2288
94371840	160	160
96468992	96	96
98566144	128	112
100663296	0	0
102760448	0	0
104857600	192	192
106954752	0	0
109051904	0	0
111149056	0	0
113246208	0	0
115343360	0	0
117440512	32	32
119537664	0	0
121634816	48	48
123731968	48	48
125829120	0	0
127926272	16	0
130023424	0	0
132120576	0	0
134217728	0	0
138412032	160	144
142606336	48	32
146800640	144	64
150994944	816	816
155189248	752	752
159383552	64	64
163577856	80	80
167772160	0	0
171966464	0	0
176160768	16	0
180355072	0	0
184549376	0	0
188743680	0	0
192937984	0	0
197132288	0	0
201326592	0	0
205520896	0	0
209715200	0	0
213909504	0	0
218103808	0	0
222298112	0	0
226492416	0	0
230686720	0	0
234881024	0	0
239075328	0	0
243269632	0	0
247463936	0	0
251658240	0	0
255852544	0	0
260046848	0	0
264241152	0	0
268435456	0	0
276824064	0	0
285212672	0	0
293601280	0	0
301989888	0	0
310378496	0	0
318767104	0	0
327155712	0	0
335544320	0	0
343932928	0	0
352321536	0	0
360710144	0	0
369098752	0	0
377487360	0	0
385875968	0	0
394264576	0	0
402653184	0	0
411041792	0	0
419430400	0	0
427819008	0	0
436207616	0	0
444596224	0	0
452984832	0	0
461373440	0	0
469762048	0	0
478150656	0	0
486539264	0	0
494927872	0	0
503316480	0	0
511705088	0	0
520093696	0	0
528482304	0	0
536870912	0	0
553648128	0	0
570425344	0	0
587202560	0	0
603979776	0	0
620756992	0	0
637534208	0	0
654311424	0	0
671088640	0	0
687865856	0	0
704643072	0	0
721420288	0	0
738197504	0	0
754974720	0	0
771751936	0	0
788529152	0	0
805306368	0	0
822083584	0	0
838860800	0	0
855638016	0	0
872415232	0	0
889192448	0	0
905969664	0	0
922746880	0	0
939524096	0	0
956301312	0	0
973078528	0	0
989855744	0	0
1006632960	0	0
1023410176	0	0
1040187392	0	0
1056964608	0	0
1073741824	0	0
1107296256	0	0
1140850688	0	0
1174405120	0	0
1207959552	0	0
1241513984	0	0
1275068416	0	0
1308622848	0	0
1342177280	0	0
1375731712	0	0
1409286144	0	0
1442840576	0	0
1476395008	0	0
1509949440	0	0
1543503872	0	0
1577058304	0	0
1610612736	0	0
1644167168	0	0
1677721600	0	0
1711276032	0	0
1744830464	0	0
1778384896	0	0
1811939328	0	0
1845493760	0	0
1879048192	0	0
1912602624	0	0
1946157056	0	0
1979711488	0	0
2013265920	0	0
2046820352	0	0
2080374784	0	0
2113929216	0	0
2147483648	0	0
2214592512	0	0
2281701376	0	0
2348810240	0	0
2415919104	0	0
2483027968	0	0
2550136832	0	0
2617245696	0	0
2684354560	0	0
2751463424	0	0
2818572288	0	0
2885681152	0	0
2952790016	0	0
3019898880	0	0
3087007744	0	0
3154116608	0	0
3221225472	0	0
3288334336	0	0
3355443200	0	0
3422552064	0	0
3489660928	0	0
3556769792	0	0
3623878656	0	0
3690987520	0	0
3758096384	0	0
3825205248	0	0
3892314112	0	0
3959422976	0	0
4026531840	0	0
4093640704	0	0
4160749568	0	0
4227858432	0	0
~~~~~~~~~~Reuse Distance Profiler output end~~~~~~~~~~

Sampler size:7793

DRAM Statistics
 CHANNEL 0
 RQ ROW_BUFFER_HIT:     399361  ROW_BUFFER_MISS:    1034423
 DBUS AVG_CONGESTED_CYCLE:    3.75872
 WQ ROW_BUFFER_HIT:      15716  ROW_BUFFER_MISS:      61803  FULL:       5802


CPU 0 Branch Prediction Accuracy: 93.1688% MPKI: 6.13893 Average ROB Occupancy at Mispredict: 176.909
Branch type MPKI
BRANCH_DIRECT_JUMP: 5.13333e-05
BRANCH_INDIRECT: 7.2e-05
BRANCH_CONDITIONAL: 6.13861
BRANCH_DIRECT_CALL: 7.6e-05
BRANCH_INDIRECT_CALL: 5.13333e-05
BRANCH_RETURN: 7e-05

