
*** ChampSim Multicore Out-of-Order Simulator ***

Warmup Instructions: 50000000
Simulation Instructions: 1500000000
Number of CPUs: 1
Off-chip DRAM Size: 4 GiB Channels: 1 Width: 64-bit Data Rate: 3200 MT/s

VirtualMemory physical capacity: 8588881920 num_ppages: 2096895
VirtualMemory page size: 4096 log2_page_size: 12

CPU 0 runs /s/traces/champsim_traces/483.xalancbmk-127B.champsimtrace.xz
CPU 0 Bimodal branch predictor
Basic BTB sets: 1024 ways: 8 indirect buffer size: 4096 RAS size: 64
Initializing LRU.
Initializing LRU.
Initializing LRU.
Initializing LRU.
Initializing rdLRU.
Initializing LRU.
Heartbeat CPU 0 instructions: 2000003 cycles: 572024 heartbeat IPC: 3.49636 cumulative IPC: 3.49636 (Simulation time: 0 hr 1 min 3 sec) 
Heartbeat CPU 0 instructions: 4000004 cycles: 1146092 heartbeat IPC: 3.48391 cumulative IPC: 3.49012 (Simulation time: 0 hr 2 min 6 sec) 
Heartbeat CPU 0 instructions: 6000003 cycles: 1720145 heartbeat IPC: 3.484 cumulative IPC: 3.48808 (Simulation time: 0 hr 3 min 10 sec) 
Heartbeat CPU 0 instructions: 8000002 cycles: 2291884 heartbeat IPC: 3.4981 cumulative IPC: 3.49058 (Simulation time: 0 hr 4 min 15 sec) 
Heartbeat CPU 0 instructions: 10000000 cycles: 2863991 heartbeat IPC: 3.49585 cumulative IPC: 3.49163 (Simulation time: 0 hr 5 min 17 sec) 
Heartbeat CPU 0 instructions: 12000000 cycles: 3439212 heartbeat IPC: 3.47692 cumulative IPC: 3.48917 (Simulation time: 0 hr 6 min 27 sec) 
Heartbeat CPU 0 instructions: 14000000 cycles: 4014416 heartbeat IPC: 3.47703 cumulative IPC: 3.48743 (Simulation time: 0 hr 7 min 39 sec) 
Heartbeat CPU 0 instructions: 16000004 cycles: 4578717 heartbeat IPC: 3.54421 cumulative IPC: 3.49443 (Simulation time: 0 hr 8 min 46 sec) 
Heartbeat CPU 0 instructions: 18000003 cycles: 5149692 heartbeat IPC: 3.50278 cumulative IPC: 3.49536 (Simulation time: 0 hr 9 min 54 sec) 
Heartbeat CPU 0 instructions: 20000000 cycles: 5723756 heartbeat IPC: 3.48393 cumulative IPC: 3.49421 (Simulation time: 0 hr 10 min 54 sec) 
Heartbeat CPU 0 instructions: 22000003 cycles: 6291403 heartbeat IPC: 3.52332 cumulative IPC: 3.49684 (Simulation time: 0 hr 11 min 48 sec) 
Heartbeat CPU 0 instructions: 24000001 cycles: 6862494 heartbeat IPC: 3.50207 cumulative IPC: 3.49727 (Simulation time: 0 hr 12 min 40 sec) 
Heartbeat CPU 0 instructions: 26000001 cycles: 7436558 heartbeat IPC: 3.48393 cumulative IPC: 3.49624 (Simulation time: 0 hr 13 min 34 sec) 
Heartbeat CPU 0 instructions: 28000002 cycles: 8007493 heartbeat IPC: 3.50303 cumulative IPC: 3.49673 (Simulation time: 0 hr 14 min 29 sec) 
Heartbeat CPU 0 instructions: 30000001 cycles: 8581550 heartbeat IPC: 3.48397 cumulative IPC: 3.49587 (Simulation time: 0 hr 15 min 26 sec) 
Heartbeat CPU 0 instructions: 32000002 cycles: 9152555 heartbeat IPC: 3.5026 cumulative IPC: 3.49629 (Simulation time: 0 hr 16 min 23 sec) 
Heartbeat CPU 0 instructions: 34000001 cycles: 9726629 heartbeat IPC: 3.48387 cumulative IPC: 3.49556 (Simulation time: 0 hr 17 min 19 sec) 
Heartbeat CPU 0 instructions: 36000002 cycles: 10300692 heartbeat IPC: 3.48394 cumulative IPC: 3.49491 (Simulation time: 0 hr 18 min 18 sec) 
Heartbeat CPU 0 instructions: 38000000 cycles: 10890542 heartbeat IPC: 3.39069 cumulative IPC: 3.48927 (Simulation time: 0 hr 19 min 21 sec) 
Heartbeat CPU 0 instructions: 40000002 cycles: 11462387 heartbeat IPC: 3.49745 cumulative IPC: 3.48967 (Simulation time: 0 hr 20 min 21 sec) 
Heartbeat CPU 0 instructions: 42000001 cycles: 12036460 heartbeat IPC: 3.48388 cumulative IPC: 3.4894 (Simulation time: 0 hr 21 min 21 sec) 
Heartbeat CPU 0 instructions: 44000002 cycles: 12607524 heartbeat IPC: 3.50224 cumulative IPC: 3.48998 (Simulation time: 0 hr 22 min 18 sec) 
Heartbeat CPU 0 instructions: 46000002 cycles: 13166440 heartbeat IPC: 3.57836 cumulative IPC: 3.49373 (Simulation time: 0 hr 23 min 11 sec) 
Heartbeat CPU 0 instructions: 48000002 cycles: 13743768 heartbeat IPC: 3.46424 cumulative IPC: 3.49249 (Simulation time: 0 hr 24 min 10 sec) 
Heartbeat CPU 0 instructions: 50000000 cycles: 14314751 heartbeat IPC: 3.50273 cumulative IPC: 3.4929 (Simulation time: 0 hr 25 min 12 sec) 

Warmup complete CPU 0 instructions: 50000001 cycles: 14314752 (Simulation time: 0 hr 25 min 12 sec) 

Heartbeat CPU 0 instructions: 52000001 cycles: 18273635 heartbeat IPC: 0.505193 cumulative IPC: 0.505193 (Simulation time: 0 hr 26 min 22 sec) 

Region of Interest Statistics
cpu0_DTLB TOTAL     ACCESS:     442666  HIT:     438133  MISS:       4533
cpu0_DTLB LOAD      ACCESS:     416701  HIT:     412168  MISS:       4533
cpu0_DTLB RFO       ACCESS:      25965  HIT:      25965  MISS:          0
cpu0_DTLB PREFETCH  ACCESS:          0  HIT:          0  MISS:          0
cpu0_DTLB WRITEBACK ACCESS:          0  HIT:          0  MISS:          0
cpu0_ITLB TOTAL     ACCESS:     279538  HIT:     279538  MISS:          0
cpu0_ITLB LOAD      ACCESS:     279538  HIT:     279538  MISS:          0
cpu0_ITLB RFO       ACCESS:          0  HIT:          0  MISS:          0
cpu0_ITLB PREFETCH  ACCESS:          0  HIT:          0  MISS:          0
cpu0_ITLB WRITEBACK ACCESS:          0  HIT:          0  MISS:          0
cpu0_L1I TOTAL     ACCESS:          9  HIT:          9  MISS:          0
cpu0_L1I LOAD      ACCESS:          9  HIT:          9  MISS:          0
cpu0_L1I RFO       ACCESS:          0  HIT:          0  MISS:          0
cpu0_L1I PREFETCH  ACCESS:          0  HIT:          0  MISS:          0
cpu0_L1I WRITEBACK ACCESS:          0  HIT:          0  MISS:          0
cpu0_STLB TOTAL     ACCESS:       4533  HIT:        103  MISS:       4430
cpu0_STLB LOAD      ACCESS:       4533  HIT:        103  MISS:       4430
cpu0_STLB RFO       ACCESS:          0  HIT:          0  MISS:          0
cpu0_STLB PREFETCH  ACCESS:          0  HIT:          0  MISS:          0
cpu0_STLB WRITEBACK ACCESS:          0  HIT:          0  MISS:          0
cpu0_L1D TOTAL     ACCESS:     373066  HIT:     316301  MISS:      56765
cpu0_L1D LOAD      ACCESS:     316831  HIT:     260167  MISS:      56664
cpu0_L1D RFO       ACCESS:      51938  HIT:      51938  MISS:          0
cpu0_L1D PREFETCH  ACCESS:          0  HIT:          0  MISS:          0
cpu0_L1D WRITEBACK ACCESS:          0  HIT:          0  MISS:          0
cpu0_L2C TOTAL     ACCESS:      56765  HIT:        101  MISS:      56664
cpu0_L2C LOAD      ACCESS:      56664  HIT:         10  MISS:      56654
cpu0_L2C RFO       ACCESS:          0  HIT:          0  MISS:          0
cpu0_L2C PREFETCH  ACCESS:          0  HIT:          0  MISS:          0
cpu0_L2C WRITEBACK ACCESS:          0  HIT:          0  MISS:          0
LLC TOTAL     ACCESS:      56664  HIT:      45590  MISS:      11074
LLC LOAD      ACCESS:      56654  HIT:      45581  MISS:      11073
LLC RFO       ACCESS:          0  HIT:          0  MISS:          0
LLC PREFETCH  ACCESS:          0  HIT:          0  MISS:          0
LLC WRITEBACK ACCESS:          0  HIT:          0  MISS:          0
Heartbeat CPU 0 instructions: 54000002 cycles: 21334024 heartbeat IPC: 0.653512 cumulative IPC: 0.56986 (Simulation time: 0 hr 27 min 23 sec) 

Region of Interest Statistics
cpu0_DTLB TOTAL     ACCESS:     885483  HIT:     873602  MISS:      11881
cpu0_DTLB LOAD      ACCESS:     822105  HIT:     810457  MISS:      11648
cpu0_DTLB RFO       ACCESS:      63378  HIT:      63145  MISS:        233
cpu0_DTLB PREFETCH  ACCESS:          0  HIT:          0  MISS:          0
cpu0_DTLB WRITEBACK ACCESS:          0  HIT:          0  MISS:          0
cpu0_ITLB TOTAL     ACCESS:     552433  HIT:     551557  MISS:        876
cpu0_ITLB LOAD      ACCESS:     552433  HIT:     551557  MISS:        876
cpu0_ITLB RFO       ACCESS:          0  HIT:          0  MISS:          0
cpu0_ITLB PREFETCH  ACCESS:          0  HIT:          0  MISS:          0
cpu0_ITLB WRITEBACK ACCESS:          0  HIT:          0  MISS:          0
cpu0_L1I TOTAL     ACCESS:      22409  HIT:      17924  MISS:       4485
cpu0_L1I LOAD      ACCESS:      22409  HIT:      17924  MISS:       4485
cpu0_L1I RFO       ACCESS:          0  HIT:          0  MISS:          0
cpu0_L1I PREFETCH  ACCESS:          0  HIT:          0  MISS:          0
cpu0_L1I WRITEBACK ACCESS:          0  HIT:          0  MISS:          0
cpu0_STLB TOTAL     ACCESS:      12757  HIT:       2293  MISS:      10464
cpu0_STLB LOAD      ACCESS:      12524  HIT:       2113  MISS:      10411
cpu0_STLB RFO       ACCESS:        233  HIT:        180  MISS:         53
cpu0_STLB PREFETCH  ACCESS:          0  HIT:          0  MISS:          0
cpu0_STLB WRITEBACK ACCESS:          0  HIT:          0  MISS:          0
cpu0_L1D TOTAL     ACCESS:     763381  HIT:     652876  MISS:     110505
cpu0_L1D LOAD      ACCESS:     626638  HIT:     516685  MISS:     109953
cpu0_L1D RFO       ACCESS:     127481  HIT:     127175  MISS:        306
cpu0_L1D PREFETCH  ACCESS:          0  HIT:          0  MISS:          0
cpu0_L1D WRITEBACK ACCESS:          0  HIT:          0  MISS:          0
cpu0_L2C TOTAL     ACCESS:     115760  HIT:       3794  MISS:     111966
cpu0_L2C LOAD      ACCESS:     114438  HIT:       2770  MISS:     111668
cpu0_L2C RFO       ACCESS:        306  HIT:         70  MISS:        236
cpu0_L2C PREFETCH  ACCESS:          0  HIT:          0  MISS:          0
cpu0_L2C WRITEBACK ACCESS:        770  HIT:        755  MISS:         15
LLC TOTAL     ACCESS:     112261  HIT:      98241  MISS:      14020
LLC LOAD      ACCESS:     111668  HIT:      97700  MISS:      13968
LLC RFO       ACCESS:        236  HIT:        190  MISS:         46
LLC PREFETCH  ACCESS:          0  HIT:          0  MISS:          0
LLC WRITEBACK ACCESS:        310  HIT:        307  MISS:          3
Heartbeat CPU 0 instructions: 56000002 cycles: 24307600 heartbeat IPC: 0.672591 cumulative IPC: 0.60043 (Simulation time: 0 hr 28 min 20 sec) 

Region of Interest Statistics
cpu0_DTLB TOTAL     ACCESS:    1329276  HIT:    1312801  MISS:      16475
cpu0_DTLB LOAD      ACCESS:    1240494  HIT:    1224252  MISS:      16242
cpu0_DTLB RFO       ACCESS:      88782  HIT:      88549  MISS:        233
cpu0_DTLB PREFETCH  ACCESS:          0  HIT:          0  MISS:          0
cpu0_DTLB WRITEBACK ACCESS:          0  HIT:          0  MISS:          0
cpu0_ITLB TOTAL     ACCESS:     837032  HIT:     836156  MISS:        876
cpu0_ITLB LOAD      ACCESS:     837032  HIT:     836156  MISS:        876
cpu0_ITLB RFO       ACCESS:          0  HIT:          0  MISS:          0
cpu0_ITLB PREFETCH  ACCESS:          0  HIT:          0  MISS:          0
cpu0_ITLB WRITEBACK ACCESS:          0  HIT:          0  MISS:          0
cpu0_L1I TOTAL     ACCESS:      22409  HIT:      17924  MISS:       4485
cpu0_L1I LOAD      ACCESS:      22409  HIT:      17924  MISS:       4485
cpu0_L1I RFO       ACCESS:          0  HIT:          0  MISS:          0
cpu0_L1I PREFETCH  ACCESS:          0  HIT:          0  MISS:          0
cpu0_L1I WRITEBACK ACCESS:          0  HIT:          0  MISS:          0
cpu0_STLB TOTAL     ACCESS:      17351  HIT:       2406  MISS:      14945
cpu0_STLB LOAD      ACCESS:      17118  HIT:       2226  MISS:      14892
cpu0_STLB RFO       ACCESS:        233  HIT:        180  MISS:         53
cpu0_STLB PREFETCH  ACCESS:          0  HIT:          0  MISS:          0
cpu0_STLB WRITEBACK ACCESS:          0  HIT:          0  MISS:          0
cpu0_L1D TOTAL     ACCESS:    1129069  HIT:     963029  MISS:     166040
cpu0_L1D LOAD      ACCESS:     937202  HIT:     771803  MISS:     165399
cpu0_L1D RFO       ACCESS:     178289  HIT:     177983  MISS:        306
cpu0_L1D PREFETCH  ACCESS:          0  HIT:          0  MISS:          0
cpu0_L1D WRITEBACK ACCESS:          0  HIT:          0  MISS:          0
cpu0_L2C TOTAL     ACCESS:     171310  HIT:       3897  MISS:     167413
cpu0_L2C LOAD      ACCESS:     169884  HIT:       2780  MISS:     167104
cpu0_L2C RFO       ACCESS:        306  HIT:         70  MISS:        236
cpu0_L2C PREFETCH  ACCESS:          0  HIT:          0  MISS:          0
cpu0_L2C WRITEBACK ACCESS:        785  HIT:        770  MISS:         15
LLC TOTAL     ACCESS:     168014  HIT:     153026  MISS:      14988
LLC LOAD      ACCESS:     167104  HIT:     152173  MISS:      14931
LLC RFO       ACCESS:        236  HIT:        190  MISS:         46
LLC PREFETCH  ACCESS:          0  HIT:          0  MISS:          0
LLC WRITEBACK ACCESS:        616  HIT:        610  MISS:          6
Heartbeat CPU 0 instructions: 58000003 cycles: 28160174 heartbeat IPC: 0.519134 cumulative IPC: 0.577808 (Simulation time: 0 hr 29 min 29 sec) 

Region of Interest Statistics
cpu0_DTLB TOTAL     ACCESS:    1774130  HIT:    1751828  MISS:      22302
cpu0_DTLB LOAD      ACCESS:    1653910  HIT:    1631953  MISS:      21957
cpu0_DTLB RFO       ACCESS:     120220  HIT:     119875  MISS:        345
cpu0_DTLB PREFETCH  ACCESS:          0  HIT:          0  MISS:          0
cpu0_DTLB WRITEBACK ACCESS:          0  HIT:          0  MISS:          0
cpu0_ITLB TOTAL     ACCESS:    1115771  HIT:    1114457  MISS:       1314
cpu0_ITLB LOAD      ACCESS:    1115771  HIT:    1114457  MISS:       1314
cpu0_ITLB RFO       ACCESS:          0  HIT:          0  MISS:          0
cpu0_ITLB PREFETCH  ACCESS:          0  HIT:          0  MISS:          0
cpu0_ITLB WRITEBACK ACCESS:          0  HIT:          0  MISS:          0
cpu0_L1I TOTAL     ACCESS:      33669  HIT:      26939  MISS:       6730
cpu0_L1I LOAD      ACCESS:      33669  HIT:      26939  MISS:       6730
cpu0_L1I RFO       ACCESS:          0  HIT:          0  MISS:          0
cpu0_L1I PREFETCH  ACCESS:          0  HIT:          0  MISS:          0
cpu0_L1I WRITEBACK ACCESS:          0  HIT:          0  MISS:          0
cpu0_STLB TOTAL     ACCESS:      23616  HIT:       3530  MISS:      20086
cpu0_STLB LOAD      ACCESS:      23271  HIT:       3264  MISS:      20007
cpu0_STLB RFO       ACCESS:        345  HIT:        266  MISS:         79
cpu0_STLB PREFETCH  ACCESS:          0  HIT:          0  MISS:          0
cpu0_STLB WRITEBACK ACCESS:          0  HIT:          0  MISS:          0
cpu0_L1D TOTAL     ACCESS:    1506947  HIT:    1286263  MISS:     220684
cpu0_L1D LOAD      ACCESS:    1247309  HIT:    1027541  MISS:     219768
cpu0_L1D RFO       ACCESS:     241494  HIT:     241038  MISS:        456
cpu0_L1D PREFETCH  ACCESS:          0  HIT:          0  MISS:          0
cpu0_L1D WRITEBACK ACCESS:          0  HIT:          0  MISS:          0
cpu0_L2C TOTAL     ACCESS:     228602  HIT:       5842  MISS:     222760
cpu0_L2C LOAD      ACCESS:     226498  HIT:       4190  MISS:     222308
cpu0_L2C RFO       ACCESS:        456  HIT:        107  MISS:        349
cpu0_L2C PREFETCH  ACCESS:          0  HIT:          0  MISS:          0
cpu0_L2C WRITEBACK ACCESS:       1188  HIT:       1166  MISS:         22
LLC TOTAL     ACCESS:     223379  HIT:     197431  MISS:      25948
LLC LOAD      ACCESS:     222308  HIT:     196439  MISS:      25869
LLC RFO       ACCESS:        349  HIT:        282  MISS:         67
LLC PREFETCH  ACCESS:          0  HIT:          0  MISS:          0
LLC WRITEBACK ACCESS:        641  HIT:        635  MISS:          6
Heartbeat CPU 0 instructions: 60000000 cycles: 31103139 heartbeat IPC: 0.679586 cumulative IPC: 0.59565 (Simulation time: 0 hr 30 min 25 sec) 

Region of Interest Statistics
cpu0_DTLB TOTAL     ACCESS:    2218176  HIT:    2191294  MISS:      26882
cpu0_DTLB LOAD      ACCESS:    2072534  HIT:    2045997  MISS:      26537
cpu0_DTLB RFO       ACCESS:     145642  HIT:     145297  MISS:        345
cpu0_DTLB PREFETCH  ACCESS:          0  HIT:          0  MISS:          0
cpu0_DTLB WRITEBACK ACCESS:          0  HIT:          0  MISS:          0
cpu0_ITLB TOTAL     ACCESS:    1400363  HIT:    1399049  MISS:       1314
cpu0_ITLB LOAD      ACCESS:    1400363  HIT:    1399049  MISS:       1314
cpu0_ITLB RFO       ACCESS:          0  HIT:          0  MISS:          0
cpu0_ITLB PREFETCH  ACCESS:          0  HIT:          0  MISS:          0
cpu0_ITLB WRITEBACK ACCESS:          0  HIT:          0  MISS:          0
cpu0_L1I TOTAL     ACCESS:      33669  HIT:      26939  MISS:       6730
cpu0_L1I LOAD      ACCESS:      33669  HIT:      26939  MISS:       6730
cpu0_L1I RFO       ACCESS:          0  HIT:          0  MISS:          0
cpu0_L1I PREFETCH  ACCESS:          0  HIT:          0  MISS:          0
cpu0_L1I WRITEBACK ACCESS:          0  HIT:          0  MISS:          0
cpu0_STLB TOTAL     ACCESS:      28196  HIT:       3653  MISS:      24543
cpu0_STLB LOAD      ACCESS:      27851  HIT:       3387  MISS:      24464
cpu0_STLB RFO       ACCESS:        345  HIT:        266  MISS:         79
cpu0_STLB PREFETCH  ACCESS:          0  HIT:          0  MISS:          0
cpu0_STLB WRITEBACK ACCESS:          0  HIT:          0  MISS:          0
cpu0_L1D TOTAL     ACCESS:    1872605  HIT:    1596346  MISS:     276259
cpu0_L1D LOAD      ACCESS:    1557830  HIT:    1282582  MISS:     275248
cpu0_L1D RFO       ACCESS:     292338  HIT:     291882  MISS:        456
cpu0_L1D PREFETCH  ACCESS:          0  HIT:          0  MISS:          0
cpu0_L1D WRITEBACK ACCESS:          0  HIT:          0  MISS:          0
cpu0_L2C TOTAL     ACCESS:     284177  HIT:       5932  MISS:     278245
cpu0_L2C LOAD      ACCESS:     281978  HIT:       4201  MISS:     277777
cpu0_L2C RFO       ACCESS:        456  HIT:        107  MISS:        349
cpu0_L2C PREFETCH  ACCESS:          0  HIT:          0  MISS:          0
cpu0_L2C WRITEBACK ACCESS:       1188  HIT:       1166  MISS:         22
LLC TOTAL     ACCESS:     279145  HIT:     252479  MISS:      26666
LLC LOAD      ACCESS:     277777  HIT:     251193  MISS:      26584
LLC RFO       ACCESS:        349  HIT:        282  MISS:         67
LLC PREFETCH  ACCESS:          0  HIT:          0  MISS:          0
LLC WRITEBACK ACCESS:        922  HIT:        913  MISS:          9
Heartbeat CPU 0 instructions: 62000002 cycles: 35097163 heartbeat IPC: 0.500749 cumulative IPC: 0.577411 (Simulation time: 0 hr 31 min 39 sec) 

Region of Interest Statistics
cpu0_DTLB TOTAL     ACCESS:    2656034  HIT:    2618289  MISS:      37745
cpu0_DTLB LOAD      ACCESS:    2467189  HIT:    2430122  MISS:      37067
cpu0_DTLB RFO       ACCESS:     188845  HIT:     188167  MISS:        678
cpu0_DTLB PREFETCH  ACCESS:          0  HIT:          0  MISS:          0
cpu0_DTLB WRITEBACK ACCESS:          0  HIT:          0  MISS:          0
cpu0_ITLB TOTAL     ACCESS:    1664437  HIT:    1661944  MISS:       2493
cpu0_ITLB LOAD      ACCESS:    1664437  HIT:    1661944  MISS:       2493
cpu0_ITLB RFO       ACCESS:          0  HIT:          0  MISS:          0
cpu0_ITLB PREFETCH  ACCESS:          0  HIT:          0  MISS:          0
cpu0_ITLB WRITEBACK ACCESS:          0  HIT:          0  MISS:          0
cpu0_L1I TOTAL     ACCESS:      64258  HIT:      51337  MISS:      12921
cpu0_L1I LOAD      ACCESS:      64258  HIT:      51337  MISS:      12921
cpu0_L1I RFO       ACCESS:          0  HIT:          0  MISS:          0
cpu0_L1I PREFETCH  ACCESS:          0  HIT:          0  MISS:          0
cpu0_L1I WRITEBACK ACCESS:          0  HIT:          0  MISS:          0
cpu0_STLB TOTAL     ACCESS:      40238  HIT:       6940  MISS:      33298
cpu0_STLB LOAD      ACCESS:      39560  HIT:       6405  MISS:      33155
cpu0_STLB RFO       ACCESS:        678  HIT:        535  MISS:        143
cpu0_STLB PREFETCH  ACCESS:          0  HIT:          0  MISS:          0
cpu0_STLB WRITEBACK ACCESS:          0  HIT:          0  MISS:          0
cpu0_L1D TOTAL     ACCESS:    2281514  HIT:    1948188  MISS:     333326
cpu0_L1D LOAD      ACCESS:    1872337  HIT:    1540620  MISS:     331717
cpu0_L1D RFO       ACCESS:     379609  HIT:     378714  MISS:        895
cpu0_L1D PREFETCH  ACCESS:          0  HIT:          0  MISS:          0
cpu0_L1D WRITEBACK ACCESS:          0  HIT:          0  MISS:          0
cpu0_L2C TOTAL     ACCESS:     348611  HIT:      11156  MISS:     337455
cpu0_L2C LOAD      ACCESS:     344638  HIT:       8060  MISS:     336578
cpu0_L2C RFO       ACCESS:        895  HIT:        208  MISS:        687
cpu0_L2C PREFETCH  ACCESS:          0  HIT:          0  MISS:          0
cpu0_L2C WRITEBACK ACCESS:       2364  HIT:       2322  MISS:         42
LLC TOTAL     ACCESS:     339238  HIT:     300169  MISS:      39069
LLC LOAD      ACCESS:     336578  HIT:     297675  MISS:      38903
LLC RFO       ACCESS:        687  HIT:        549  MISS:        138
LLC PREFETCH  ACCESS:          0  HIT:          0  MISS:          0
LLC WRITEBACK ACCESS:       1825  HIT:       1803  MISS:         22
Heartbeat CPU 0 instructions: 64000002 cycles: 42152710 heartbeat IPC: 0.283465 cumulative IPC: 0.50291 (Simulation time: 0 hr 33 min 27 sec) 

Region of Interest Statistics
cpu0_DTLB TOTAL     ACCESS:    3090693  HIT:    3035148  MISS:      55545
cpu0_DTLB LOAD      ACCESS:    2860891  HIT:    2806351  MISS:      54540
cpu0_DTLB RFO       ACCESS:     229802  HIT:     228797  MISS:       1005
cpu0_DTLB PREFETCH  ACCESS:          0  HIT:          0  MISS:          0
cpu0_DTLB WRITEBACK ACCESS:          0  HIT:          0  MISS:          0
cpu0_ITLB TOTAL     ACCESS:    1929626  HIT:    1926103  MISS:       3523
cpu0_ITLB LOAD      ACCESS:    1929626  HIT:    1926103  MISS:       3523
cpu0_ITLB RFO       ACCESS:          0  HIT:          0  MISS:          0
cpu0_ITLB PREFETCH  ACCESS:          0  HIT:          0  MISS:          0
cpu0_ITLB WRITEBACK ACCESS:          0  HIT:          0  MISS:          0
cpu0_L1I TOTAL     ACCESS:      92575  HIT:      74370  MISS:      18205
cpu0_L1I LOAD      ACCESS:      92575  HIT:      74370  MISS:      18205
cpu0_L1I RFO       ACCESS:          0  HIT:          0  MISS:          0
cpu0_L1I PREFETCH  ACCESS:          0  HIT:          0  MISS:          0
cpu0_L1I WRITEBACK ACCESS:          0  HIT:          0  MISS:          0
cpu0_STLB TOTAL     ACCESS:      59068  HIT:       9981  MISS:      49087
cpu0_STLB LOAD      ACCESS:      58063  HIT:       9168  MISS:      48895
cpu0_STLB RFO       ACCESS:       1005  HIT:        813  MISS:        192
cpu0_STLB PREFETCH  ACCESS:          0  HIT:          0  MISS:          0
cpu0_STLB WRITEBACK ACCESS:          0  HIT:          0  MISS:          0
cpu0_L1D TOTAL     ACCESS:    2691798  HIT:    2300531  MISS:     391267
cpu0_L1D LOAD      ACCESS:    2186697  HIT:    1797546  MISS:     389151
cpu0_L1D RFO       ACCESS:     461987  HIT:     460721  MISS:       1266
cpu0_L1D PREFETCH  ACCESS:          0  HIT:          0  MISS:          0
cpu0_L1D WRITEBACK ACCESS:          0  HIT:          0  MISS:          0
cpu0_L2C TOTAL     ACCESS:     412711  HIT:      15968  MISS:     396743
cpu0_L2C LOAD      ACCESS:     407356  HIT:      11817  MISS:     395539
cpu0_L2C RFO       ACCESS:       1266  HIT:        309  MISS:        957
cpu0_L2C PREFETCH  ACCESS:          0  HIT:          0  MISS:          0
cpu0_L2C WRITEBACK ACCESS:       3239  HIT:       3182  MISS:         57
LLC TOTAL     ACCESS:     399041  HIT:     316584  MISS:      82457
LLC LOAD      ACCESS:     395539  HIT:     313356  MISS:      82183
LLC RFO       ACCESS:        957  HIT:        722  MISS:        235
LLC PREFETCH  ACCESS:          0  HIT:          0  MISS:          0
LLC WRITEBACK ACCESS:       2355  HIT:       2322  MISS:         33
Heartbeat CPU 0 instructions: 66000000 cycles: 46859201 heartbeat IPC: 0.424945 cumulative IPC: 0.491635 (Simulation time: 0 hr 34 min 45 sec) 

Region of Interest Statistics
cpu0_DTLB TOTAL     ACCESS:    3528545  HIT:    3462599  MISS:      65946
cpu0_DTLB LOAD      ACCESS:    3269362  HIT:    3204567  MISS:      64795
cpu0_DTLB RFO       ACCESS:     259183  HIT:     258032  MISS:       1151
cpu0_DTLB PREFETCH  ACCESS:          0  HIT:          0  MISS:          0
cpu0_DTLB WRITEBACK ACCESS:          0  HIT:          0  MISS:          0
cpu0_ITLB TOTAL     ACCESS:    2207890  HIT:    2203863  MISS:       4027
cpu0_ITLB LOAD      ACCESS:    2207890  HIT:    2203863  MISS:       4027
cpu0_ITLB RFO       ACCESS:          0  HIT:          0  MISS:          0
cpu0_ITLB PREFETCH  ACCESS:          0  HIT:          0  MISS:          0
cpu0_ITLB WRITEBACK ACCESS:          0  HIT:          0  MISS:          0
cpu0_L1I TOTAL     ACCESS:     105434  HIT:      84739  MISS:      20695
cpu0_L1I LOAD      ACCESS:     105434  HIT:      84739  MISS:      20695
cpu0_L1I RFO       ACCESS:          0  HIT:          0  MISS:          0
cpu0_L1I PREFETCH  ACCESS:          0  HIT:          0  MISS:          0
cpu0_L1I WRITEBACK ACCESS:          0  HIT:          0  MISS:          0
cpu0_STLB TOTAL     ACCESS:      69973  HIT:      11455  MISS:      58518
cpu0_STLB LOAD      ACCESS:      68822  HIT:      10521  MISS:      58301
cpu0_STLB RFO       ACCESS:       1151  HIT:        934  MISS:        217
cpu0_STLB PREFETCH  ACCESS:          0  HIT:          0  MISS:          0
cpu0_STLB WRITEBACK ACCESS:          0  HIT:          0  MISS:          0
cpu0_L1D TOTAL     ACCESS:    3059646  HIT:    2617175  MISS:     442471
cpu0_L1D LOAD      ACCESS:    2486983  HIT:    2046922  MISS:     440061
cpu0_L1D RFO       ACCESS:     521228  HIT:     519768  MISS:       1460
cpu0_L1D PREFETCH  ACCESS:          0  HIT:          0  MISS:          0
cpu0_L1D WRITEBACK ACCESS:          0  HIT:          0  MISS:          0
cpu0_L2C TOTAL     ACCESS:     466872  HIT:      18360  MISS:     448512
cpu0_L2C LOAD      ACCESS:     460756  HIT:      13622  MISS:     447134
cpu0_L2C RFO       ACCESS:       1460  HIT:        365  MISS:       1095
cpu0_L2C PREFETCH  ACCESS:          0  HIT:          0  MISS:          0
cpu0_L2C WRITEBACK ACCESS:       3706  HIT:       3641  MISS:         65
LLC TOTAL     ACCESS:     451259  HIT:     347397  MISS:     103862
LLC LOAD      ACCESS:     447134  HIT:     343595  MISS:     103539
LLC RFO       ACCESS:       1095  HIT:        824  MISS:        271
LLC PREFETCH  ACCESS:          0  HIT:          0  MISS:          0
LLC WRITEBACK ACCESS:       2812  HIT:       2766  MISS:         46
Heartbeat CPU 0 instructions: 68000002 cycles: 49931635 heartbeat IPC: 0.65095 cumulative IPC: 0.505378 (Simulation time: 0 hr 35 min 42 sec) 

Region of Interest Statistics
cpu0_DTLB TOTAL     ACCESS:    3972898  HIT:    3902398  MISS:      70500
cpu0_DTLB LOAD      ACCESS:    3688297  HIT:    3618948  MISS:      69349
cpu0_DTLB RFO       ACCESS:     284601  HIT:     283450  MISS:       1151
cpu0_DTLB PREFETCH  ACCESS:          0  HIT:          0  MISS:          0
cpu0_DTLB WRITEBACK ACCESS:          0  HIT:          0  MISS:          0
cpu0_ITLB TOTAL     ACCESS:    2492498  HIT:    2488471  MISS:       4027
cpu0_ITLB LOAD      ACCESS:    2492498  HIT:    2488471  MISS:       4027
cpu0_ITLB RFO       ACCESS:          0  HIT:          0  MISS:          0
cpu0_ITLB PREFETCH  ACCESS:          0  HIT:          0  MISS:          0
cpu0_ITLB WRITEBACK ACCESS:          0  HIT:          0  MISS:          0
cpu0_L1I TOTAL     ACCESS:     105434  HIT:      84739  MISS:      20695
cpu0_L1I LOAD      ACCESS:     105434  HIT:      84739  MISS:      20695
cpu0_L1I RFO       ACCESS:          0  HIT:          0  MISS:          0
cpu0_L1I PREFETCH  ACCESS:          0  HIT:          0  MISS:          0
cpu0_L1I WRITEBACK ACCESS:          0  HIT:          0  MISS:          0
cpu0_STLB TOTAL     ACCESS:      74527  HIT:      11548  MISS:      62979
cpu0_STLB LOAD      ACCESS:      73376  HIT:      10614  MISS:      62762
cpu0_STLB RFO       ACCESS:       1151  HIT:        934  MISS:        217
cpu0_STLB PREFETCH  ACCESS:          0  HIT:          0  MISS:          0
cpu0_STLB WRITEBACK ACCESS:          0  HIT:          0  MISS:          0
cpu0_L1D TOTAL     ACCESS:    3425884  HIT:    2927816  MISS:     498068
cpu0_L1D LOAD      ACCESS:    2798078  HIT:    2302516  MISS:     495562
cpu0_L1D RFO       ACCESS:     572063  HIT:     570603  MISS:       1460
cpu0_L1D PREFETCH  ACCESS:          0  HIT:          0  MISS:          0
cpu0_L1D WRITEBACK ACCESS:          0  HIT:          0  MISS:          0
cpu0_L2C TOTAL     ACCESS:     522469  HIT:      18454  MISS:     504015
cpu0_L2C LOAD      ACCESS:     516257  HIT:      13631  MISS:     502626
cpu0_L2C RFO       ACCESS:       1460  HIT:        365  MISS:       1095
cpu0_L2C PREFETCH  ACCESS:          0  HIT:          0  MISS:          0
cpu0_L2C WRITEBACK ACCESS:       3706  HIT:       3641  MISS:         65
LLC TOTAL     ACCESS:     506762  HIT:     400790  MISS:     105972
LLC LOAD      ACCESS:     502626  HIT:     396977  MISS:     105649
LLC RFO       ACCESS:       1095  HIT:        824  MISS:        271
LLC PREFETCH  ACCESS:          0  HIT:          0  MISS:          0
LLC WRITEBACK ACCESS:       2812  HIT:       2766  MISS:         46
Heartbeat CPU 0 instructions: 70000000 cycles: 54846289 heartbeat IPC: 0.406946 cumulative IPC: 0.493443 (Simulation time: 0 hr 37 min 1 sec) 

Region of Interest Statistics
cpu0_DTLB TOTAL     ACCESS:    4419304  HIT:    4344389  MISS:      74915
cpu0_DTLB LOAD      ACCESS:    4109274  HIT:    4035512  MISS:      73762
cpu0_DTLB RFO       ACCESS:     310030  HIT:     308877  MISS:       1153
cpu0_DTLB PREFETCH  ACCESS:          0  HIT:          0  MISS:          0
cpu0_DTLB WRITEBACK ACCESS:          0  HIT:          0  MISS:          0
cpu0_ITLB TOTAL     ACCESS:    2777057  HIT:    2773030  MISS:       4027
cpu0_ITLB LOAD      ACCESS:    2777057  HIT:    2773030  MISS:       4027
cpu0_ITLB RFO       ACCESS:          0  HIT:          0  MISS:          0
cpu0_ITLB PREFETCH  ACCESS:          0  HIT:          0  MISS:          0
cpu0_ITLB WRITEBACK ACCESS:          0  HIT:          0  MISS:          0
cpu0_L1I TOTAL     ACCESS:     105434  HIT:      84739  MISS:      20695
cpu0_L1I LOAD      ACCESS:     105434  HIT:      84739  MISS:      20695
cpu0_L1I RFO       ACCESS:          0  HIT:          0  MISS:          0
cpu0_L1I PREFETCH  ACCESS:          0  HIT:          0  MISS:          0
cpu0_L1I WRITEBACK ACCESS:          0  HIT:          0  MISS:          0
cpu0_STLB TOTAL     ACCESS:      78942  HIT:      11673  MISS:      67269
cpu0_STLB LOAD      ACCESS:      77789  HIT:      10738  MISS:      67051
cpu0_STLB RFO       ACCESS:       1153  HIT:        935  MISS:        218
cpu0_STLB PREFETCH  ACCESS:          0  HIT:          0  MISS:          0
cpu0_STLB WRITEBACK ACCESS:          0  HIT:          0  MISS:          0
cpu0_L1D TOTAL     ACCESS:    3792040  HIT:    3238567  MISS:     553473
cpu0_L1D LOAD      ACCESS:    3109225  HIT:    2558345  MISS:     550880
cpu0_L1D RFO       ACCESS:     622922  HIT:     621462  MISS:       1460
cpu0_L1D PREFETCH  ACCESS:          0  HIT:          0  MISS:          0
cpu0_L1D WRITEBACK ACCESS:          0  HIT:          0  MISS:          0
cpu0_L2C TOTAL     ACCESS:     577874  HIT:      18542  MISS:     559332
cpu0_L2C LOAD      ACCESS:     571575  HIT:      13641  MISS:     557934
cpu0_L2C RFO       ACCESS:       1460  HIT:        365  MISS:       1095
cpu0_L2C PREFETCH  ACCESS:          0  HIT:          0  MISS:          0
cpu0_L2C WRITEBACK ACCESS:       3706  HIT:       3641  MISS:         65
LLC TOTAL     ACCESS:     562079  HIT:     430858  MISS:     131221
LLC LOAD      ACCESS:     557934  HIT:     427037  MISS:     130897
LLC RFO       ACCESS:       1095  HIT:        824  MISS:        271
LLC PREFETCH  ACCESS:          0  HIT:          0  MISS:          0
LLC WRITEBACK ACCESS:       2812  HIT:       2766  MISS:         46
Heartbeat CPU 0 instructions: 72000001 cycles: 58156638 heartbeat IPC: 0.604166 cumulative IPC: 0.501803 (Simulation time: 0 hr 38 min 1 sec) 

Region of Interest Statistics
cpu0_DTLB TOTAL     ACCESS:    4861411  HIT:    4780460  MISS:      80951
cpu0_DTLB LOAD      ACCESS:    4519717  HIT:    4440044  MISS:      79673
cpu0_DTLB RFO       ACCESS:     341694  HIT:     340416  MISS:       1278
cpu0_DTLB PREFETCH  ACCESS:          0  HIT:          0  MISS:          0
cpu0_DTLB WRITEBACK ACCESS:          0  HIT:          0  MISS:          0
cpu0_ITLB TOTAL     ACCESS:    3051660  HIT:    3047200  MISS:       4460
cpu0_ITLB LOAD      ACCESS:    3051660  HIT:    3047200  MISS:       4460
cpu0_ITLB RFO       ACCESS:          0  HIT:          0  MISS:          0
cpu0_ITLB PREFETCH  ACCESS:          0  HIT:          0  MISS:          0
cpu0_ITLB WRITEBACK ACCESS:          0  HIT:          0  MISS:          0
cpu0_L1I TOTAL     ACCESS:     116502  HIT:      93595  MISS:      22907
cpu0_L1I LOAD      ACCESS:     116502  HIT:      93595  MISS:      22907
cpu0_L1I RFO       ACCESS:          0  HIT:          0  MISS:          0
cpu0_L1I PREFETCH  ACCESS:          0  HIT:          0  MISS:          0
cpu0_L1I WRITEBACK ACCESS:          0  HIT:          0  MISS:          0
cpu0_STLB TOTAL     ACCESS:      85411  HIT:      12876  MISS:      72535
cpu0_STLB LOAD      ACCESS:      84133  HIT:      11837  MISS:      72296
cpu0_STLB RFO       ACCESS:       1278  HIT:       1039  MISS:        239
cpu0_STLB PREFETCH  ACCESS:          0  HIT:          0  MISS:          0
cpu0_STLB WRITEBACK ACCESS:          0  HIT:          0  MISS:          0
cpu0_L1D TOTAL     ACCESS:    4173545  HIT:    3564796  MISS:     608749
cpu0_L1D LOAD      ACCESS:    3422331  HIT:    2816429  MISS:     605902
cpu0_L1D RFO       ACCESS:     686681  HIT:     685081  MISS:       1600
cpu0_L1D PREFETCH  ACCESS:          0  HIT:          0  MISS:          0
cpu0_L1D WRITEBACK ACCESS:          0  HIT:          0  MISS:          0
cpu0_L2C TOTAL     ACCESS:     635717  HIT:      20334  MISS:     615383
cpu0_L2C LOAD      ACCESS:     628809  HIT:      14969  MISS:     613840
cpu0_L2C RFO       ACCESS:       1600  HIT:        394  MISS:       1206
cpu0_L2C PREFETCH  ACCESS:          0  HIT:          0  MISS:          0
cpu0_L2C WRITEBACK ACCESS:       4061  HIT:       3988  MISS:         73
LLC TOTAL     ACCESS:     618421  HIT:     481408  MISS:     137013
LLC LOAD      ACCESS:     613840  HIT:     477177  MISS:     136663
LLC RFO       ACCESS:       1206  HIT:        914  MISS:        292
LLC PREFETCH  ACCESS:          0  HIT:          0  MISS:          0
LLC WRITEBACK ACCESS:       3111  HIT:       3061  MISS:         50
Heartbeat CPU 0 instructions: 74000000 cycles: 61568664 heartbeat IPC: 0.586162 cumulative IPC: 0.507894 (Simulation time: 0 hr 39 min 7 sec) 

Region of Interest Statistics
cpu0_DTLB TOTAL     ACCESS:    5304092  HIT:    5218631  MISS:      85461
cpu0_DTLB LOAD      ACCESS:    4936603  HIT:    4852420  MISS:      84183
cpu0_DTLB RFO       ACCESS:     367489  HIT:     366211  MISS:       1278
cpu0_DTLB PREFETCH  ACCESS:          0  HIT:          0  MISS:          0
cpu0_DTLB WRITEBACK ACCESS:          0  HIT:          0  MISS:          0
cpu0_ITLB TOTAL     ACCESS:    3331302  HIT:    3326842  MISS:       4460
cpu0_ITLB LOAD      ACCESS:    3331302  HIT:    3326842  MISS:       4460
cpu0_ITLB RFO       ACCESS:          0  HIT:          0  MISS:          0
cpu0_ITLB PREFETCH  ACCESS:          0  HIT:          0  MISS:          0
cpu0_ITLB WRITEBACK ACCESS:          0  HIT:          0  MISS:          0
cpu0_L1I TOTAL     ACCESS:     116502  HIT:      93595  MISS:      22907
cpu0_L1I LOAD      ACCESS:     116502  HIT:      93595  MISS:      22907
cpu0_L1I RFO       ACCESS:          0  HIT:          0  MISS:          0
cpu0_L1I PREFETCH  ACCESS:          0  HIT:          0  MISS:          0
cpu0_L1I WRITEBACK ACCESS:          0  HIT:          0  MISS:          0
cpu0_STLB TOTAL     ACCESS:      89921  HIT:      12979  MISS:      76942
cpu0_STLB LOAD      ACCESS:      88643  HIT:      11940  MISS:      76703
cpu0_STLB RFO       ACCESS:       1278  HIT:       1039  MISS:        239
cpu0_STLB PREFETCH  ACCESS:          0  HIT:          0  MISS:          0
cpu0_STLB WRITEBACK ACCESS:          0  HIT:          0  MISS:          0
cpu0_L1D TOTAL     ACCESS:    4544021  HIT:    3878885  MISS:     665136
cpu0_L1D LOAD      ACCESS:    3736949  HIT:    3074761  MISS:     662188
cpu0_L1D RFO       ACCESS:     738272  HIT:     736672  MISS:       1600
cpu0_L1D PREFETCH  ACCESS:          0  HIT:          0  MISS:          0
cpu0_L1D WRITEBACK ACCESS:          0  HIT:          0  MISS:          0
cpu0_L2C TOTAL     ACCESS:     692104  HIT:      20435  MISS:     671669
cpu0_L2C LOAD      ACCESS:     685095  HIT:      14979  MISS:     670116
cpu0_L2C RFO       ACCESS:       1600  HIT:        394  MISS:       1206
cpu0_L2C PREFETCH  ACCESS:          0  HIT:          0  MISS:          0
cpu0_L2C WRITEBACK ACCESS:       4061  HIT:       3988  MISS:         73
LLC TOTAL     ACCESS:     674707  HIT:     532434  MISS:     142273
LLC LOAD      ACCESS:     670116  HIT:     528194  MISS:     141922
LLC RFO       ACCESS:       1206  HIT:        914  MISS:        292
LLC PREFETCH  ACCESS:          0  HIT:          0  MISS:          0
LLC WRITEBACK ACCESS:       3111  HIT:       3061  MISS:         50
Heartbeat CPU 0 instructions: 76000002 cycles: 66198371 heartbeat IPC: 0.431993 cumulative IPC: 0.501122 (Simulation time: 0 hr 40 min 31 sec) 

Region of Interest Statistics
cpu0_DTLB TOTAL     ACCESS:    5748223  HIT:    5656852  MISS:      91371
cpu0_DTLB LOAD      ACCESS:    5348974  HIT:    5259016  MISS:      89958
cpu0_DTLB RFO       ACCESS:     399249  HIT:     397836  MISS:       1413
cpu0_DTLB PREFETCH  ACCESS:          0  HIT:          0  MISS:          0
cpu0_DTLB WRITEBACK ACCESS:          0  HIT:          0  MISS:          0
cpu0_ITLB TOTAL     ACCESS:    3607371  HIT:    3602472  MISS:       4899
cpu0_ITLB LOAD      ACCESS:    3607371  HIT:    3602472  MISS:       4899
cpu0_ITLB RFO       ACCESS:          0  HIT:          0  MISS:          0
cpu0_ITLB PREFETCH  ACCESS:          0  HIT:          0  MISS:          0
cpu0_ITLB WRITEBACK ACCESS:          0  HIT:          0  MISS:          0
cpu0_L1I TOTAL     ACCESS:     127789  HIT:     102604  MISS:      25185
cpu0_L1I LOAD      ACCESS:     127789  HIT:     102604  MISS:      25185
cpu0_L1I RFO       ACCESS:          0  HIT:          0  MISS:          0
cpu0_L1I PREFETCH  ACCESS:          0  HIT:          0  MISS:          0
cpu0_L1I WRITEBACK ACCESS:          0  HIT:          0  MISS:          0
cpu0_STLB TOTAL     ACCESS:      96270  HIT:      14201  MISS:      82069
cpu0_STLB LOAD      ACCESS:      94857  HIT:      13056  MISS:      81801
cpu0_STLB RFO       ACCESS:       1413  HIT:       1145  MISS:        268
cpu0_STLB PREFETCH  ACCESS:          0  HIT:          0  MISS:          0
cpu0_STLB WRITEBACK ACCESS:          0  HIT:          0  MISS:          0
cpu0_L1D TOTAL     ACCESS:    4924424  HIT:    4204524  MISS:     719900
cpu0_L1D LOAD      ACCESS:    4049015  HIT:    3332313  MISS:     716702
cpu0_L1D RFO       ACCESS:     802087  HIT:     800336  MISS:       1751
cpu0_L1D PREFETCH  ACCESS:          0  HIT:          0  MISS:          0
cpu0_L1D WRITEBACK ACCESS:          0  HIT:          0  MISS:          0
cpu0_L2C TOTAL     ACCESS:     749548  HIT:      22358  MISS:     727190
cpu0_L2C LOAD      ACCESS:     741887  HIT:      16402  MISS:     725485
cpu0_L2C RFO       ACCESS:       1751  HIT:        426  MISS:       1325
cpu0_L2C PREFETCH  ACCESS:          0  HIT:          0  MISS:          0
cpu0_L2C WRITEBACK ACCESS:       4463  HIT:       4383  MISS:         80
LLC TOTAL     ACCESS:     730531  HIT:     565534  MISS:     164997
LLC LOAD      ACCESS:     725485  HIT:     560882  MISS:     164603
LLC RFO       ACCESS:       1325  HIT:       1004  MISS:        321
LLC PREFETCH  ACCESS:          0  HIT:          0  MISS:          0
LLC WRITEBACK ACCESS:       3421  HIT:       3361  MISS:         60
Heartbeat CPU 0 instructions: 78000003 cycles: 69248562 heartbeat IPC: 0.655697 cumulative IPC: 0.509704 (Simulation time: 0 hr 41 min 33 sec) 

Region of Interest Statistics
cpu0_DTLB TOTAL     ACCESS:    6192238  HIT:    6096322  MISS:      95916
cpu0_DTLB LOAD      ACCESS:    5767592  HIT:    5673089  MISS:      94503
cpu0_DTLB RFO       ACCESS:     424646  HIT:     423233  MISS:       1413
cpu0_DTLB PREFETCH  ACCESS:          0  HIT:          0  MISS:          0
cpu0_DTLB WRITEBACK ACCESS:          0  HIT:          0  MISS:          0
cpu0_ITLB TOTAL     ACCESS:    3891975  HIT:    3887076  MISS:       4899
cpu0_ITLB LOAD      ACCESS:    3891975  HIT:    3887076  MISS:       4899
cpu0_ITLB RFO       ACCESS:          0  HIT:          0  MISS:          0
cpu0_ITLB PREFETCH  ACCESS:          0  HIT:          0  MISS:          0
cpu0_ITLB WRITEBACK ACCESS:          0  HIT:          0  MISS:          0
cpu0_L1I TOTAL     ACCESS:     127789  HIT:     102604  MISS:      25185
cpu0_L1I LOAD      ACCESS:     127789  HIT:     102604  MISS:      25185
cpu0_L1I RFO       ACCESS:          0  HIT:          0  MISS:          0
cpu0_L1I PREFETCH  ACCESS:          0  HIT:          0  MISS:          0
cpu0_L1I WRITEBACK ACCESS:          0  HIT:          0  MISS:          0
cpu0_STLB TOTAL     ACCESS:     100815  HIT:      14287  MISS:      86528
cpu0_STLB LOAD      ACCESS:      99402  HIT:      13142  MISS:      86260
cpu0_STLB RFO       ACCESS:       1413  HIT:       1145  MISS:        268
cpu0_STLB PREFETCH  ACCESS:          0  HIT:          0  MISS:          0
cpu0_STLB WRITEBACK ACCESS:          0  HIT:          0  MISS:          0
cpu0_L1D TOTAL     ACCESS:    5290886  HIT:    4515433  MISS:     775453
cpu0_L1D LOAD      ACCESS:    4360382  HIT:    3588223  MISS:     772159
cpu0_L1D RFO       ACCESS:     852881  HIT:     851130  MISS:       1751
cpu0_L1D PREFETCH  ACCESS:          0  HIT:          0  MISS:          0
cpu0_L1D WRITEBACK ACCESS:          0  HIT:          0  MISS:          0
cpu0_L2C TOTAL     ACCESS:     805101  HIT:      22453  MISS:     782648
cpu0_L2C LOAD      ACCESS:     797344  HIT:      16411  MISS:     780933
cpu0_L2C RFO       ACCESS:       1751  HIT:        426  MISS:       1325
cpu0_L2C PREFETCH  ACCESS:          0  HIT:          0  MISS:          0
cpu0_L2C WRITEBACK ACCESS:       4463  HIT:       4383  MISS:         80
LLC TOTAL     ACCESS:     785989  HIT:     619109  MISS:     166880
LLC LOAD      ACCESS:     780933  HIT:     614448  MISS:     166485
LLC RFO       ACCESS:       1325  HIT:       1004  MISS:        321
LLC PREFETCH  ACCESS:          0  HIT:          0  MISS:          0
LLC WRITEBACK ACCESS:       3421  HIT:       3361  MISS:         60
Heartbeat CPU 0 instructions: 80000001 cycles: 73891432 heartbeat IPC: 0.430768 cumulative IPC: 0.503553 (Simulation time: 0 hr 42 min 58 sec) 

Region of Interest Statistics
cpu0_DTLB TOTAL     ACCESS:    6638215  HIT:    6537884  MISS:     100331
cpu0_DTLB LOAD      ACCESS:    6188161  HIT:    6089245  MISS:      98916
cpu0_DTLB RFO       ACCESS:     450054  HIT:     448639  MISS:       1415
cpu0_DTLB PREFETCH  ACCESS:          0  HIT:          0  MISS:          0
cpu0_DTLB WRITEBACK ACCESS:          0  HIT:          0  MISS:          0
cpu0_ITLB TOTAL     ACCESS:    4176536  HIT:    4171637  MISS:       4899
cpu0_ITLB LOAD      ACCESS:    4176536  HIT:    4171637  MISS:       4899
cpu0_ITLB RFO       ACCESS:          0  HIT:          0  MISS:          0
cpu0_ITLB PREFETCH  ACCESS:          0  HIT:          0  MISS:          0
cpu0_ITLB WRITEBACK ACCESS:          0  HIT:          0  MISS:          0
cpu0_L1I TOTAL     ACCESS:     127789  HIT:     102604  MISS:      25185
cpu0_L1I LOAD      ACCESS:     127789  HIT:     102604  MISS:      25185
cpu0_L1I RFO       ACCESS:          0  HIT:          0  MISS:          0
cpu0_L1I PREFETCH  ACCESS:          0  HIT:          0  MISS:          0
cpu0_L1I WRITEBACK ACCESS:          0  HIT:          0  MISS:          0
cpu0_STLB TOTAL     ACCESS:     105230  HIT:      14406  MISS:      90824
cpu0_STLB LOAD      ACCESS:     103815  HIT:      13260  MISS:      90555
cpu0_STLB RFO       ACCESS:       1415  HIT:       1146  MISS:        269
cpu0_STLB PREFETCH  ACCESS:          0  HIT:          0  MISS:          0
cpu0_STLB WRITEBACK ACCESS:          0  HIT:          0  MISS:          0
cpu0_L1D TOTAL     ACCESS:    5657334  HIT:    4826502  MISS:     830832
cpu0_L1D LOAD      ACCESS:    4671860  HIT:    3844406  MISS:     827454
cpu0_L1D RFO       ACCESS:     903698  HIT:     901947  MISS:       1751
cpu0_L1D PREFETCH  ACCESS:          0  HIT:          0  MISS:          0
cpu0_L1D WRITEBACK ACCESS:          0  HIT:          0  MISS:          0
cpu0_L2C TOTAL     ACCESS:     860480  HIT:      22538  MISS:     837942
cpu0_L2C LOAD      ACCESS:     852639  HIT:      16421  MISS:     836218
cpu0_L2C RFO       ACCESS:       1751  HIT:        426  MISS:       1325
cpu0_L2C PREFETCH  ACCESS:          0  HIT:          0  MISS:          0
cpu0_L2C WRITEBACK ACCESS:       4463  HIT:       4383  MISS:         80
LLC TOTAL     ACCESS:     841283  HIT:     652569  MISS:     188714
LLC LOAD      ACCESS:     836218  HIT:     647902  MISS:     188316
LLC RFO       ACCESS:       1325  HIT:       1004  MISS:        321
LLC PREFETCH  ACCESS:          0  HIT:          0  MISS:          0
LLC WRITEBACK ACCESS:       3421  HIT:       3361  MISS:         60
Heartbeat CPU 0 instructions: 82000000 cycles: 77295684 heartbeat IPC: 0.5875 cumulative IPC: 0.50809 (Simulation time: 0 hr 44 min 7 sec) 

Region of Interest Statistics
cpu0_DTLB TOTAL     ACCESS:    7082173  HIT:    6975858  MISS:     106315
cpu0_DTLB LOAD      ACCESS:    6600702  HIT:    6495928  MISS:     104774
cpu0_DTLB RFO       ACCESS:     481471  HIT:     479930  MISS:       1541
cpu0_DTLB PREFETCH  ACCESS:          0  HIT:          0  MISS:          0
cpu0_DTLB WRITEBACK ACCESS:          0  HIT:          0  MISS:          0
cpu0_ITLB TOTAL     ACCESS:    4455283  HIT:    4449946  MISS:       5337
cpu0_ITLB LOAD      ACCESS:    4455283  HIT:    4449946  MISS:       5337
cpu0_ITLB RFO       ACCESS:          0  HIT:          0  MISS:          0
cpu0_ITLB PREFETCH  ACCESS:          0  HIT:          0  MISS:          0
cpu0_ITLB WRITEBACK ACCESS:          0  HIT:          0  MISS:          0
cpu0_L1I TOTAL     ACCESS:     138994  HIT:     111560  MISS:      27434
cpu0_L1I LOAD      ACCESS:     138994  HIT:     111560  MISS:      27434
cpu0_L1I RFO       ACCESS:          0  HIT:          0  MISS:          0
cpu0_L1I PREFETCH  ACCESS:          0  HIT:          0  MISS:          0
cpu0_L1I WRITEBACK ACCESS:          0  HIT:          0  MISS:          0
cpu0_STLB TOTAL     ACCESS:     111652  HIT:      15595  MISS:      96057
cpu0_STLB LOAD      ACCESS:     110111  HIT:      14347  MISS:      95764
cpu0_STLB RFO       ACCESS:       1541  HIT:       1248  MISS:        293
cpu0_STLB PREFETCH  ACCESS:          0  HIT:          0  MISS:          0
cpu0_STLB WRITEBACK ACCESS:          0  HIT:          0  MISS:          0
cpu0_L1D TOTAL     ACCESS:    6035684  HIT:    5150244  MISS:     885440
cpu0_L1D LOAD      ACCESS:    4982437  HIT:    4100635  MISS:     881802
cpu0_L1D RFO       ACCESS:     966855  HIT:     964954  MISS:       1901
cpu0_L1D PREFETCH  ACCESS:          0  HIT:          0  MISS:          0
cpu0_L1D WRITEBACK ACCESS:          0  HIT:          0  MISS:          0
cpu0_L2C TOTAL     ACCESS:     917729  HIT:      24458  MISS:     893271
cpu0_L2C LOAD      ACCESS:     909236  HIT:      17840  MISS:     891396
cpu0_L2C RFO       ACCESS:       1901  HIT:        459  MISS:       1442
cpu0_L2C PREFETCH  ACCESS:          0  HIT:          0  MISS:          0
cpu0_L2C WRITEBACK ACCESS:       4855  HIT:       4766  MISS:         89
LLC TOTAL     ACCESS:     896910  HIT:     701074  MISS:     195836
LLC LOAD      ACCESS:     891396  HIT:     696028  MISS:     195368
LLC RFO       ACCESS:       1442  HIT:       1070  MISS:        372
LLC PREFETCH  ACCESS:          0  HIT:          0  MISS:          0
LLC WRITEBACK ACCESS:       3728  HIT:       3654  MISS:         74
Heartbeat CPU 0 instructions: 84000002 cycles: 80334510 heartbeat IPC: 0.65815 cumulative IPC: 0.514997 (Simulation time: 0 hr 45 min 7 sec) 

Region of Interest Statistics
cpu0_DTLB TOTAL     ACCESS:    7523468  HIT:    7411006  MISS:     112462
cpu0_DTLB LOAD      ACCESS:    7010143  HIT:    6899352  MISS:     110791
cpu0_DTLB RFO       ACCESS:     513325  HIT:     511654  MISS:       1671
cpu0_DTLB PREFETCH  ACCESS:          0  HIT:          0  MISS:          0
cpu0_DTLB WRITEBACK ACCESS:          0  HIT:          0  MISS:          0
cpu0_ITLB TOTAL     ACCESS:    4730079  HIT:    4724304  MISS:       5775
cpu0_ITLB LOAD      ACCESS:    4730079  HIT:    4724304  MISS:       5775
cpu0_ITLB RFO       ACCESS:          0  HIT:          0  MISS:          0
cpu0_ITLB PREFETCH  ACCESS:          0  HIT:          0  MISS:          0
cpu0_ITLB WRITEBACK ACCESS:          0  HIT:          0  MISS:          0
cpu0_L1I TOTAL     ACCESS:     150177  HIT:     120509  MISS:      29668
cpu0_L1I LOAD      ACCESS:     150177  HIT:     120509  MISS:      29668
cpu0_L1I RFO       ACCESS:          0  HIT:          0  MISS:          0
cpu0_L1I PREFETCH  ACCESS:          0  HIT:          0  MISS:          0
cpu0_L1I WRITEBACK ACCESS:          0  HIT:          0  MISS:          0
cpu0_STLB TOTAL     ACCESS:     118237  HIT:      16798  MISS:     101439
cpu0_STLB LOAD      ACCESS:     116566  HIT:      15449  MISS:     101117
cpu0_STLB RFO       ACCESS:       1671  HIT:       1349  MISS:        322
cpu0_STLB PREFETCH  ACCESS:          0  HIT:          0  MISS:          0
cpu0_STLB WRITEBACK ACCESS:          0  HIT:          0  MISS:          0
cpu0_L1D TOTAL     ACCESS:    6419126  HIT:    5478013  MISS:     941113
cpu0_L1D LOAD      ACCESS:    5297121  HIT:    4359919  MISS:     937202
cpu0_L1D RFO       ACCESS:    1030894  HIT:    1028840  MISS:       2054
cpu0_L1D PREFETCH  ACCESS:          0  HIT:          0  MISS:          0
cpu0_L1D WRITEBACK ACCESS:          0  HIT:          0  MISS:          0
cpu0_L2C TOTAL     ACCESS:     976045  HIT:      26404  MISS:     949641
cpu0_L2C LOAD      ACCESS:     966870  HIT:      19251  MISS:     947619
cpu0_L2C RFO       ACCESS:       2054  HIT:        499  MISS:       1555
cpu0_L2C PREFETCH  ACCESS:          0  HIT:          0  MISS:          0
cpu0_L2C WRITEBACK ACCESS:       5264  HIT:       5167  MISS:         97
LLC TOTAL     ACCESS:     953578  HIT:     755869  MISS:     197709
LLC LOAD      ACCESS:     947619  HIT:     750411  MISS:     197208
LLC RFO       ACCESS:       1555  HIT:       1161  MISS:        394
LLC PREFETCH  ACCESS:          0  HIT:          0  MISS:          0
LLC WRITEBACK ACCESS:       4034  HIT:       3952  MISS:         82
Heartbeat CPU 0 instructions: 86000000 cycles: 83987201 heartbeat IPC: 0.547541 cumulative IPC: 0.516703 (Simulation time: 0 hr 46 min 19 sec) 

Region of Interest Statistics
cpu0_DTLB TOTAL     ACCESS:    7965656  HIT:    7848646  MISS:     117010
cpu0_DTLB LOAD      ACCESS:    7426362  HIT:    7311023  MISS:     115339
cpu0_DTLB RFO       ACCESS:     539294  HIT:     537623  MISS:       1671
cpu0_DTLB PREFETCH  ACCESS:          0  HIT:          0  MISS:          0
cpu0_DTLB WRITEBACK ACCESS:          0  HIT:          0  MISS:          0
cpu0_ITLB TOTAL     ACCESS:    5009684  HIT:    5003909  MISS:       5775
cpu0_ITLB LOAD      ACCESS:    5009684  HIT:    5003909  MISS:       5775
cpu0_ITLB RFO       ACCESS:          0  HIT:          0  MISS:          0
cpu0_ITLB PREFETCH  ACCESS:          0  HIT:          0  MISS:          0
cpu0_ITLB WRITEBACK ACCESS:          0  HIT:          0  MISS:          0
cpu0_L1I TOTAL     ACCESS:     150177  HIT:     120509  MISS:      29668
cpu0_L1I LOAD      ACCESS:     150177  HIT:     120509  MISS:      29668
cpu0_L1I RFO       ACCESS:          0  HIT:          0  MISS:          0
cpu0_L1I PREFETCH  ACCESS:          0  HIT:          0  MISS:          0
cpu0_L1I WRITEBACK ACCESS:          0  HIT:          0  MISS:          0
cpu0_STLB TOTAL     ACCESS:     122785  HIT:      16901  MISS:     105884
cpu0_STLB LOAD      ACCESS:     121114  HIT:      15552  MISS:     105562
cpu0_STLB RFO       ACCESS:       1671  HIT:       1349  MISS:        322
cpu0_STLB PREFETCH  ACCESS:          0  HIT:          0  MISS:          0
cpu0_STLB WRITEBACK ACCESS:          0  HIT:          0  MISS:          0
cpu0_L1D TOTAL     ACCESS:    6792178  HIT:    5794258  MISS:     997920
cpu0_L1D LOAD      ACCESS:    5613927  HIT:    4620018  MISS:     993909
cpu0_L1D RFO       ACCESS:    1082832  HIT:    1080778  MISS:       2054
cpu0_L1D PREFETCH  ACCESS:          0  HIT:          0  MISS:          0
cpu0_L1D WRITEBACK ACCESS:          0  HIT:          0  MISS:          0
cpu0_L2C TOTAL     ACCESS:    1032852  HIT:      26504  MISS:    1006348
cpu0_L2C LOAD      ACCESS:    1023577  HIT:      19261  MISS:    1004316
cpu0_L2C RFO       ACCESS:       2054  HIT:        499  MISS:       1555
cpu0_L2C PREFETCH  ACCESS:          0  HIT:          0  MISS:          0
cpu0_L2C WRITEBACK ACCESS:       5264  HIT:       5167  MISS:         97
LLC TOTAL     ACCESS:    1010285  HIT:     805071  MISS:     205214
LLC LOAD      ACCESS:    1004316  HIT:     799603  MISS:     204713
LLC RFO       ACCESS:       1555  HIT:       1161  MISS:        394
LLC PREFETCH  ACCESS:          0  HIT:          0  MISS:          0
LLC WRITEBACK ACCESS:       4034  HIT:       3952  MISS:         82
Heartbeat CPU 0 instructions: 88000002 cycles: 88972781 heartbeat IPC: 0.401157 cumulative IPC: 0.508987 (Simulation time: 0 hr 47 min 51 sec) 

Region of Interest Statistics
cpu0_DTLB TOTAL     ACCESS:    8403512  HIT:    8276147  MISS:     127365
cpu0_DTLB LOAD      ACCESS:    7826904  HIT:    7701446  MISS:     125458
cpu0_DTLB RFO       ACCESS:     576608  HIT:     574701  MISS:       1907
cpu0_DTLB PREFETCH  ACCESS:          0  HIT:          0  MISS:          0
cpu0_DTLB WRITEBACK ACCESS:          0  HIT:          0  MISS:          0
cpu0_ITLB TOTAL     ACCESS:    5278482  HIT:    5271965  MISS:       6517
cpu0_ITLB LOAD      ACCESS:    5278482  HIT:    5271965  MISS:       6517
cpu0_ITLB RFO       ACCESS:          0  HIT:          0  MISS:          0
cpu0_ITLB PREFETCH  ACCESS:          0  HIT:          0  MISS:          0
cpu0_ITLB WRITEBACK ACCESS:          0  HIT:          0  MISS:          0
cpu0_L1I TOTAL     ACCESS:     169545  HIT:     135933  MISS:      33612
cpu0_L1I LOAD      ACCESS:     169545  HIT:     135933  MISS:      33612
cpu0_L1I RFO       ACCESS:          0  HIT:          0  MISS:          0
cpu0_L1I PREFETCH  ACCESS:          0  HIT:          0  MISS:          0
cpu0_L1I WRITEBACK ACCESS:          0  HIT:          0  MISS:          0
cpu0_STLB TOTAL     ACCESS:     133882  HIT:      18964  MISS:     114918
cpu0_STLB LOAD      ACCESS:     131975  HIT:      17437  MISS:     114538
cpu0_STLB RFO       ACCESS:       1907  HIT:       1527  MISS:        380
cpu0_STLB PREFETCH  ACCESS:          0  HIT:          0  MISS:          0
cpu0_STLB WRITEBACK ACCESS:          0  HIT:          0  MISS:          0
cpu0_L1D TOTAL     ACCESS:    7194103  HIT:    6137136  MISS:    1056967
cpu0_L1D LOAD      ACCESS:    5932955  HIT:    4880416  MISS:    1052539
cpu0_L1D RFO       ACCESS:    1158013  HIT:    1155686  MISS:       2327
cpu0_L1D PREFETCH  ACCESS:          0  HIT:          0  MISS:          0
cpu0_L1D WRITEBACK ACCESS:          0  HIT:          0  MISS:          0
cpu0_L2C TOTAL     ACCESS:    1096599  HIT:      29694  MISS:    1066905
cpu0_L2C LOAD      ACCESS:    1086151  HIT:      21555  MISS:    1064596
cpu0_L2C RFO       ACCESS:       2327  HIT:        548  MISS:       1779
cpu0_L2C PREFETCH  ACCESS:          0  HIT:          0  MISS:          0
cpu0_L2C WRITEBACK ACCESS:       6020  HIT:       5909  MISS:        111
LLC TOTAL     ACCESS:    1071429  HIT:     843714  MISS:     227715
LLC LOAD      ACCESS:    1064596  HIT:     837467  MISS:     227129
LLC RFO       ACCESS:       1779  HIT:       1329  MISS:        450
LLC PREFETCH  ACCESS:          0  HIT:          0  MISS:          0
LLC WRITEBACK ACCESS:       4635  HIT:       4529  MISS:        106
Heartbeat CPU 0 instructions: 90000001 cycles: 95227334 heartbeat IPC: 0.319767 cumulative IPC: 0.494361 (Simulation time: 0 hr 49 min 46 sec) 

Region of Interest Statistics
cpu0_DTLB TOTAL     ACCESS:    8836086  HIT:    8684939  MISS:     151147
cpu0_DTLB LOAD      ACCESS:    8197611  HIT:    8049128  MISS:     148483
cpu0_DTLB RFO       ACCESS:     638475  HIT:     635811  MISS:       2664
cpu0_DTLB PREFETCH  ACCESS:          0  HIT:          0  MISS:          0
cpu0_DTLB WRITEBACK ACCESS:          0  HIT:          0  MISS:          0
cpu0_ITLB TOTAL     ACCESS:    5517386  HIT:    5508785  MISS:       8601
cpu0_ITLB LOAD      ACCESS:    5517386  HIT:    5508785  MISS:       8601
cpu0_ITLB RFO       ACCESS:          0  HIT:          0  MISS:          0
cpu0_ITLB PREFETCH  ACCESS:          0  HIT:          0  MISS:          0
cpu0_ITLB WRITEBACK ACCESS:          0  HIT:          0  MISS:          0
cpu0_L1I TOTAL     ACCESS:     232269  HIT:     191142  MISS:      41127
cpu0_L1I LOAD      ACCESS:     232269  HIT:     191142  MISS:      41127
cpu0_L1I RFO       ACCESS:          0  HIT:          0  MISS:          0
cpu0_L1I PREFETCH  ACCESS:          0  HIT:          0  MISS:          0
cpu0_L1I WRITEBACK ACCESS:          0  HIT:          0  MISS:          0
cpu0_STLB TOTAL     ACCESS:     159748  HIT:      27142  MISS:     132606
cpu0_STLB LOAD      ACCESS:     157084  HIT:      24910  MISS:     132174
cpu0_STLB RFO       ACCESS:       2664  HIT:       2232  MISS:        432
cpu0_STLB PREFETCH  ACCESS:          0  HIT:          0  MISS:          0
cpu0_STLB WRITEBACK ACCESS:          0  HIT:          0  MISS:          0
cpu0_L1D TOTAL     ACCESS:    7636446  HIT:    6523595  MISS:    1112851
cpu0_L1D LOAD      ACCESS:    6241531  HIT:    5134379  MISS:    1107152
cpu0_L1D RFO       ACCESS:    1279450  HIT:    1276084  MISS:       3366
cpu0_L1D PREFETCH  ACCESS:          0  HIT:          0  MISS:          0
cpu0_L1D WRITEBACK ACCESS:          0  HIT:          0  MISS:          0
cpu0_L2C TOTAL     ACCESS:    1161966  HIT:      41030  MISS:    1120936
cpu0_L2C LOAD      ACCESS:    1148279  HIT:      30239  MISS:    1118040
cpu0_L2C RFO       ACCESS:       3366  HIT:       1058  MISS:       2308
cpu0_L2C PREFETCH  ACCESS:          0  HIT:          0  MISS:          0
cpu0_L2C WRITEBACK ACCESS:       7988  HIT:       7860  MISS:        128
LLC TOTAL     ACCESS:    1125778  HIT:     857582  MISS:     268196
LLC LOAD      ACCESS:    1118040  HIT:     850841  MISS:     267199
LLC RFO       ACCESS:       2308  HIT:       1465  MISS:        843
LLC PREFETCH  ACCESS:          0  HIT:          0  MISS:          0
LLC WRITEBACK ACCESS:       4970  HIT:       4850  MISS:        120
Heartbeat CPU 0 instructions: 92000001 cycles: 100336530 heartbeat IPC: 0.391451 cumulative IPC: 0.488248 (Simulation time: 0 hr 51 min 24 sec) 

Region of Interest Statistics
cpu0_DTLB TOTAL     ACCESS:    9267141  HIT:    9097562  MISS:     169579
cpu0_DTLB LOAD      ACCESS:    8572223  HIT:    8406064  MISS:     166159
cpu0_DTLB RFO       ACCESS:     694918  HIT:     691498  MISS:       3420
cpu0_DTLB PREFETCH  ACCESS:          0  HIT:          0  MISS:          0
cpu0_DTLB WRITEBACK ACCESS:          0  HIT:          0  MISS:          0
cpu0_ITLB TOTAL     ACCESS:    5762916  HIT:    5752204  MISS:      10712
cpu0_ITLB LOAD      ACCESS:    5762916  HIT:    5752204  MISS:      10712
cpu0_ITLB RFO       ACCESS:          0  HIT:          0  MISS:          0
cpu0_ITLB PREFETCH  ACCESS:          0  HIT:          0  MISS:          0
cpu0_ITLB WRITEBACK ACCESS:          0  HIT:          0  MISS:          0
cpu0_L1I TOTAL     ACCESS:     294381  HIT:     245113  MISS:      49268
cpu0_L1I LOAD      ACCESS:     294381  HIT:     245113  MISS:      49268
cpu0_L1I RFO       ACCESS:          0  HIT:          0  MISS:          0
cpu0_L1I PREFETCH  ACCESS:          0  HIT:          0  MISS:          0
cpu0_L1I WRITEBACK ACCESS:          0  HIT:          0  MISS:          0
cpu0_STLB TOTAL     ACCESS:     180291  HIT:      35030  MISS:     145261
cpu0_STLB LOAD      ACCESS:     176871  HIT:      32081  MISS:     144790
cpu0_STLB RFO       ACCESS:       3420  HIT:       2949  MISS:        471
cpu0_STLB PREFETCH  ACCESS:          0  HIT:          0  MISS:          0
cpu0_STLB WRITEBACK ACCESS:          0  HIT:          0  MISS:          0
cpu0_L1D TOTAL     ACCESS:    8044177  HIT:    6888138  MISS:    1156039
cpu0_L1D LOAD      ACCESS:    6529051  HIT:    5379765  MISS:    1149286
cpu0_L1D RFO       ACCESS:    1390225  HIT:    1385993  MISS:       4232
cpu0_L1D PREFETCH  ACCESS:          0  HIT:          0  MISS:          0
cpu0_L1D WRITEBACK ACCESS:          0  HIT:          0  MISS:          0
cpu0_L2C TOTAL     ACCESS:    1215306  HIT:      52972  MISS:    1162334
cpu0_L2C LOAD      ACCESS:    1198554  HIT:      39543  MISS:    1159011
cpu0_L2C RFO       ACCESS:       4232  HIT:       1570  MISS:       2662
cpu0_L2C PREFETCH  ACCESS:          0  HIT:          0  MISS:          0
cpu0_L2C WRITEBACK ACCESS:       9999  HIT:       9819  MISS:        180
LLC TOTAL     ACCESS:    1168024  HIT:     868674  MISS:     299350
LLC LOAD      ACCESS:    1159011  HIT:     860975  MISS:     298036
LLC RFO       ACCESS:       2662  HIT:       1607  MISS:       1055
LLC PREFETCH  ACCESS:          0  HIT:          0  MISS:          0
LLC WRITEBACK ACCESS:       5870  HIT:       5649  MISS:        221
Heartbeat CPU 0 instructions: 94000000 cycles: 103380755 heartbeat IPC: 0.656981 cumulative IPC: 0.494016 (Simulation time: 0 hr 52 min 27 sec) 

Region of Interest Statistics
cpu0_DTLB TOTAL     ACCESS:    9707922  HIT:    9530853  MISS:     177069
cpu0_DTLB LOAD      ACCESS:    8975115  HIT:    8801720  MISS:     173395
cpu0_DTLB RFO       ACCESS:     732807  HIT:     729133  MISS:       3674
cpu0_DTLB PREFETCH  ACCESS:          0  HIT:          0  MISS:          0
cpu0_DTLB WRITEBACK ACCESS:          0  HIT:          0  MISS:          0
cpu0_ITLB TOTAL     ACCESS:    6031548  HIT:    6019960  MISS:      11588
cpu0_ITLB LOAD      ACCESS:    6031548  HIT:    6019960  MISS:      11588
cpu0_ITLB RFO       ACCESS:          0  HIT:          0  MISS:          0
cpu0_ITLB PREFETCH  ACCESS:          0  HIT:          0  MISS:          0
cpu0_ITLB WRITEBACK ACCESS:          0  HIT:          0  MISS:          0
cpu0_L1I TOTAL     ACCESS:     316838  HIT:     263080  MISS:      53758
cpu0_L1I LOAD      ACCESS:     316838  HIT:     263080  MISS:      53758
cpu0_L1I RFO       ACCESS:          0  HIT:          0  MISS:          0
cpu0_L1I PREFETCH  ACCESS:          0  HIT:          0  MISS:          0
cpu0_L1I WRITEBACK ACCESS:          0  HIT:          0  MISS:          0
cpu0_STLB TOTAL     ACCESS:     188657  HIT:      37705  MISS:     150952
cpu0_STLB LOAD      ACCESS:     184983  HIT:      34529  MISS:     150454
cpu0_STLB RFO       ACCESS:       3674  HIT:       3176  MISS:        498
cpu0_STLB PREFETCH  ACCESS:          0  HIT:          0  MISS:          0
cpu0_STLB WRITEBACK ACCESS:          0  HIT:          0  MISS:          0
cpu0_L1D TOTAL     ACCESS:    8440087  HIT:    7229318  MISS:    1210769
cpu0_L1D LOAD      ACCESS:    6843626  HIT:    5640035  MISS:    1203591
cpu0_L1D RFO       ACCESS:    1466799  HIT:    1462279  MISS:       4520
cpu0_L1D PREFETCH  ACCESS:          0  HIT:          0  MISS:          0
cpu0_L1D WRITEBACK ACCESS:          0  HIT:          0  MISS:          0
cpu0_L2C TOTAL     ACCESS:    1275300  HIT:      59220  MISS:    1216080
cpu0_L2C LOAD      ACCESS:    1257349  HIT:      44764  MISS:    1212585
cpu0_L2C RFO       ACCESS:       4520  HIT:       1716  MISS:       2804
cpu0_L2C PREFETCH  ACCESS:          0  HIT:          0  MISS:          0
cpu0_L2C WRITEBACK ACCESS:      10773  HIT:      10586  MISS:        187
LLC TOTAL     ACCESS:    1222410  HIT:     920501  MISS:     301909
LLC LOAD      ACCESS:    1212585  HIT:     912055  MISS:     300530
LLC RFO       ACCESS:       2804  HIT:       1710  MISS:       1094
LLC PREFETCH  ACCESS:          0  HIT:          0  MISS:          0
LLC WRITEBACK ACCESS:       6517  HIT:       6273  MISS:        244
Heartbeat CPU 0 instructions: 96000001 cycles: 106505760 heartbeat IPC: 0.639999 cumulative IPC: 0.498964 (Simulation time: 0 hr 53 min 29 sec) 

Region of Interest Statistics
cpu0_DTLB TOTAL     ACCESS:   10149292  HIT:    9967567  MISS:     181725
cpu0_DTLB LOAD      ACCESS:    9390521  HIT:    9212470  MISS:     178051
cpu0_DTLB RFO       ACCESS:     758771  HIT:     755097  MISS:       3674
cpu0_DTLB PREFETCH  ACCESS:          0  HIT:          0  MISS:          0
cpu0_DTLB WRITEBACK ACCESS:          0  HIT:          0  MISS:          0
cpu0_ITLB TOTAL     ACCESS:    6311173  HIT:    6299585  MISS:      11588
cpu0_ITLB LOAD      ACCESS:    6311173  HIT:    6299585  MISS:      11588
cpu0_ITLB RFO       ACCESS:          0  HIT:          0  MISS:          0
cpu0_ITLB PREFETCH  ACCESS:          0  HIT:          0  MISS:          0
cpu0_ITLB WRITEBACK ACCESS:          0  HIT:          0  MISS:          0
cpu0_L1I TOTAL     ACCESS:     316838  HIT:     263080  MISS:      53758
cpu0_L1I LOAD      ACCESS:     316838  HIT:     263080  MISS:      53758
cpu0_L1I RFO       ACCESS:          0  HIT:          0  MISS:          0
cpu0_L1I PREFETCH  ACCESS:          0  HIT:          0  MISS:          0
cpu0_L1I WRITEBACK ACCESS:          0  HIT:          0  MISS:          0
cpu0_STLB TOTAL     ACCESS:     193313  HIT:      37801  MISS:     155512
cpu0_STLB LOAD      ACCESS:     189639  HIT:      34625  MISS:     155014
cpu0_STLB RFO       ACCESS:       3674  HIT:       3176  MISS:        498
cpu0_STLB PREFETCH  ACCESS:          0  HIT:          0  MISS:          0
cpu0_STLB WRITEBACK ACCESS:          0  HIT:          0  MISS:          0
cpu0_L1D TOTAL     ACCESS:    8813050  HIT:    7545489  MISS:    1267561
cpu0_L1D LOAD      ACCESS:    7160261  HIT:    5899971  MISS:    1260290
cpu0_L1D RFO       ACCESS:    1518726  HIT:    1514206  MISS:       4520
cpu0_L1D PREFETCH  ACCESS:          0  HIT:          0  MISS:          0
cpu0_L1D WRITEBACK ACCESS:          0  HIT:          0  MISS:          0
cpu0_L2C TOTAL     ACCESS:    1332092  HIT:      59311  MISS:    1272781
cpu0_L2C LOAD      ACCESS:    1314048  HIT:      44774  MISS:    1269274
cpu0_L2C RFO       ACCESS:       4520  HIT:       1716  MISS:       2804
cpu0_L2C PREFETCH  ACCESS:          0  HIT:          0  MISS:          0
cpu0_L2C WRITEBACK ACCESS:      10773  HIT:      10586  MISS:        187
LLC TOTAL     ACCESS:    1279133  HIT:     975350  MISS:     303783
LLC LOAD      ACCESS:    1269274  HIT:     966870  MISS:     302404
LLC RFO       ACCESS:       2804  HIT:       1710  MISS:       1094
LLC PREFETCH  ACCESS:          0  HIT:          0  MISS:          0
LLC WRITEBACK ACCESS:       6539  HIT:       6295  MISS:        244
Heartbeat CPU 0 instructions: 98000001 cycles: 110755924 heartbeat IPC: 0.47057 cumulative IPC: 0.497713 (Simulation time: 0 hr 54 min 45 sec) 

Region of Interest Statistics
cpu0_DTLB TOTAL     ACCESS:   10592177  HIT:   10405937  MISS:     186240
cpu0_DTLB LOAD      ACCESS:    9807437  HIT:    9624873  MISS:     182564
cpu0_DTLB RFO       ACCESS:     784740  HIT:     781064  MISS:       3676
cpu0_DTLB PREFETCH  ACCESS:          0  HIT:          0  MISS:          0
cpu0_DTLB WRITEBACK ACCESS:          0  HIT:          0  MISS:          0
cpu0_ITLB TOTAL     ACCESS:    6590793  HIT:    6579205  MISS:      11588
cpu0_ITLB LOAD      ACCESS:    6590793  HIT:    6579205  MISS:      11588
cpu0_ITLB RFO       ACCESS:          0  HIT:          0  MISS:          0
cpu0_ITLB PREFETCH  ACCESS:          0  HIT:          0  MISS:          0
cpu0_ITLB WRITEBACK ACCESS:          0  HIT:          0  MISS:          0
cpu0_L1I TOTAL     ACCESS:     316838  HIT:     263080  MISS:      53758
cpu0_L1I LOAD      ACCESS:     316838  HIT:     263080  MISS:      53758
cpu0_L1I RFO       ACCESS:          0  HIT:          0  MISS:          0
cpu0_L1I PREFETCH  ACCESS:          0  HIT:          0  MISS:          0
cpu0_L1I WRITEBACK ACCESS:          0  HIT:          0  MISS:          0
cpu0_STLB TOTAL     ACCESS:     197828  HIT:      37921  MISS:     159907
cpu0_STLB LOAD      ACCESS:     194152  HIT:      34744  MISS:     159408
cpu0_STLB RFO       ACCESS:       3676  HIT:       3177  MISS:        499
cpu0_STLB PREFETCH  ACCESS:          0  HIT:          0  MISS:          0
cpu0_STLB WRITEBACK ACCESS:          0  HIT:          0  MISS:          0
cpu0_L1D TOTAL     ACCESS:    9186104  HIT:    7861876  MISS:    1324228
cpu0_L1D LOAD      ACCESS:    7477126  HIT:    6160268  MISS:    1316858
cpu0_L1D RFO       ACCESS:    1570662  HIT:    1566142  MISS:       4520
cpu0_L1D PREFETCH  ACCESS:          0  HIT:          0  MISS:          0
cpu0_L1D WRITEBACK ACCESS:          0  HIT:          0  MISS:          0
cpu0_L2C TOTAL     ACCESS:    1388759  HIT:      59412  MISS:    1329347
cpu0_L2C LOAD      ACCESS:    1370616  HIT:      44785  MISS:    1325831
cpu0_L2C RFO       ACCESS:       4520  HIT:       1716  MISS:       2804
cpu0_L2C PREFETCH  ACCESS:          0  HIT:          0  MISS:          0
cpu0_L2C WRITEBACK ACCESS:      10773  HIT:      10586  MISS:        187
LLC TOTAL     ACCESS:    1335699  HIT:    1017210  MISS:     318489
LLC LOAD      ACCESS:    1325831  HIT:    1008721  MISS:     317110
LLC RFO       ACCESS:       2804  HIT:       1710  MISS:       1094
LLC PREFETCH  ACCESS:          0  HIT:          0  MISS:          0
LLC WRITEBACK ACCESS:       6539  HIT:       6295  MISS:        244
Heartbeat CPU 0 instructions: 100000001 cycles: 114351192 heartbeat IPC: 0.556287 cumulative IPC: 0.499818 (Simulation time: 0 hr 55 min 56 sec) 

Region of Interest Statistics
cpu0_DTLB TOTAL     ACCESS:   11033287  HIT:   10838347  MISS:     194940
cpu0_DTLB LOAD      ACCESS:   10204746  HIT:   10013852  MISS:     190894
cpu0_DTLB RFO       ACCESS:     828541  HIT:     824495  MISS:       4046
cpu0_DTLB PREFETCH  ACCESS:          0  HIT:          0  MISS:          0
cpu0_DTLB WRITEBACK ACCESS:          0  HIT:          0  MISS:          0
cpu0_ITLB TOTAL     ACCESS:    6853750  HIT:    6840853  MISS:      12897
cpu0_ITLB LOAD      ACCESS:    6853750  HIT:    6840853  MISS:      12897
cpu0_ITLB RFO       ACCESS:          0  HIT:          0  MISS:          0
cpu0_ITLB PREFETCH  ACCESS:          0  HIT:          0  MISS:          0
cpu0_ITLB WRITEBACK ACCESS:          0  HIT:          0  MISS:          0
cpu0_L1I TOTAL     ACCESS:     350278  HIT:     289799  MISS:      60479
cpu0_L1I LOAD      ACCESS:     350278  HIT:     289799  MISS:      60479
cpu0_L1I RFO       ACCESS:          0  HIT:          0  MISS:          0
cpu0_L1I PREFETCH  ACCESS:          0  HIT:          0  MISS:          0
cpu0_L1I WRITEBACK ACCESS:          0  HIT:          0  MISS:          0
cpu0_STLB TOTAL     ACCESS:     207837  HIT:      42168  MISS:     165669
cpu0_STLB LOAD      ACCESS:     203791  HIT:      38654  MISS:     165137
cpu0_STLB RFO       ACCESS:       4046  HIT:       3514  MISS:        532
cpu0_STLB PREFETCH  ACCESS:          0  HIT:          0  MISS:          0
cpu0_STLB WRITEBACK ACCESS:          0  HIT:          0  MISS:          0
cpu0_L1D TOTAL     ACCESS:    9592462  HIT:    8214735  MISS:    1377727
cpu0_L1D LOAD      ACCESS:    7790316  HIT:    6420553  MISS:    1369763
cpu0_L1D RFO       ACCESS:    1659417  HIT:    1654454  MISS:       4963
cpu0_L1D PREFETCH  ACCESS:          0  HIT:          0  MISS:          0
cpu0_L1D WRITEBACK ACCESS:          0  HIT:          0  MISS:          0
cpu0_L2C TOTAL     ACCESS:    1450143  HIT:      70561  MISS:    1379582
cpu0_L2C LOAD      ACCESS:    1430241  HIT:      54443  MISS:    1375798
cpu0_L2C RFO       ACCESS:       4963  HIT:       1936  MISS:       3027
cpu0_L2C PREFETCH  ACCESS:          0  HIT:          0  MISS:          0
cpu0_L2C WRITEBACK ACCESS:      11938  HIT:      11740  MISS:        198
LLC TOTAL     ACCESS:    1386457  HIT:    1057876  MISS:     328581
LLC LOAD      ACCESS:    1375798  HIT:    1048684  MISS:     327114
LLC RFO       ACCESS:       3027  HIT:       1865  MISS:       1162
LLC PREFETCH  ACCESS:          0  HIT:          0  MISS:          0
LLC WRITEBACK ACCESS:       7073  HIT:       6815  MISS:        258
Heartbeat CPU 0 instructions: 102000000 cycles: 120638744 heartbeat IPC: 0.318089 cumulative IPC: 0.489071 (Simulation time: 0 hr 57 min 43 sec) 

Region of Interest Statistics
cpu0_DTLB TOTAL     ACCESS:   11467124  HIT:   11257186  MISS:     209938
cpu0_DTLB LOAD      ACCESS:   10602847  HIT:   10397127  MISS:     205720
cpu0_DTLB RFO       ACCESS:     864277  HIT:     860059  MISS:       4218
cpu0_DTLB PREFETCH  ACCESS:          0  HIT:          0  MISS:          0
cpu0_DTLB WRITEBACK ACCESS:          0  HIT:          0  MISS:          0
cpu0_ITLB TOTAL     ACCESS:    7123468  HIT:    7110019  MISS:      13449
cpu0_ITLB LOAD      ACCESS:    7123468  HIT:    7110019  MISS:      13449
cpu0_ITLB RFO       ACCESS:          0  HIT:          0  MISS:          0
cpu0_ITLB PREFETCH  ACCESS:          0  HIT:          0  MISS:          0
cpu0_ITLB WRITEBACK ACCESS:          0  HIT:          0  MISS:          0
cpu0_L1I TOTAL     ACCESS:     365560  HIT:     301669  MISS:      63891
cpu0_L1I LOAD      ACCESS:     365560  HIT:     301669  MISS:      63891
cpu0_L1I RFO       ACCESS:          0  HIT:          0  MISS:          0
cpu0_L1I PREFETCH  ACCESS:          0  HIT:          0  MISS:          0
cpu0_L1I WRITEBACK ACCESS:          0  HIT:          0  MISS:          0
cpu0_STLB TOTAL     ACCESS:     223387  HIT:      43583  MISS:     179804
cpu0_STLB LOAD      ACCESS:     219169  HIT:      39949  MISS:     179220
cpu0_STLB RFO       ACCESS:       4218  HIT:       3634  MISS:        584
cpu0_STLB PREFETCH  ACCESS:          0  HIT:          0  MISS:          0
cpu0_STLB WRITEBACK ACCESS:          0  HIT:          0  MISS:          0
cpu0_L1D TOTAL     ACCESS:    9995964  HIT:    8554838  MISS:    1441126
cpu0_L1D LOAD      ACCESS:    8109525  HIT:    6676770  MISS:    1432755
cpu0_L1D RFO       ACCESS:    1731353  HIT:    1726124  MISS:       5229
cpu0_L1D PREFETCH  ACCESS:          0  HIT:          0  MISS:          0
cpu0_L1D WRITEBACK ACCESS:          0  HIT:          0  MISS:          0
cpu0_L2C TOTAL     ACCESS:    1517658  HIT:      73228  MISS:    1444430
cpu0_L2C LOAD      ACCESS:    1496645  HIT:      56268  MISS:    1440377
cpu0_L2C RFO       ACCESS:       5229  HIT:       1987  MISS:       3242
cpu0_L2C PREFETCH  ACCESS:          0  HIT:          0  MISS:          0
cpu0_L2C WRITEBACK ACCESS:      12642  HIT:      12433  MISS:        209
LLC TOTAL     ACCESS:    1451867  HIT:    1089647  MISS:     362220
LLC LOAD      ACCESS:    1440377  HIT:    1079694  MISS:     360683
LLC RFO       ACCESS:       3242  HIT:       2042  MISS:       1200
LLC PREFETCH  ACCESS:          0  HIT:          0  MISS:          0
LLC WRITEBACK ACCESS:       7646  HIT:       7364  MISS:        282
Heartbeat CPU 0 instructions: 104000000 cycles: 126439645 heartbeat IPC: 0.344774 cumulative IPC: 0.481606 (Simulation time: 0 hr 59 min 34 sec) 

Region of Interest Statistics
cpu0_DTLB TOTAL     ACCESS:   11900121  HIT:   11671716  MISS:     228405
cpu0_DTLB LOAD      ACCESS:   10986097  HIT:   10762482  MISS:     223615
cpu0_DTLB RFO       ACCESS:     914024  HIT:     909234  MISS:       4790
cpu0_DTLB PREFETCH  ACCESS:          0  HIT:          0  MISS:          0
cpu0_DTLB WRITEBACK ACCESS:          0  HIT:          0  MISS:          0
cpu0_ITLB TOTAL     ACCESS:    7376414  HIT:    7361302  MISS:      15112
cpu0_ITLB LOAD      ACCESS:    7376414  HIT:    7361302  MISS:      15112
cpu0_ITLB RFO       ACCESS:          0  HIT:          0  MISS:          0
cpu0_ITLB PREFETCH  ACCESS:          0  HIT:          0  MISS:          0
cpu0_ITLB WRITEBACK ACCESS:          0  HIT:          0  MISS:          0
cpu0_L1I TOTAL     ACCESS:     413572  HIT:     343343  MISS:      70229
cpu0_L1I LOAD      ACCESS:     413572  HIT:     343343  MISS:      70229
cpu0_L1I RFO       ACCESS:          0  HIT:          0  MISS:          0
cpu0_L1I PREFETCH  ACCESS:          0  HIT:          0  MISS:          0
cpu0_L1I WRITEBACK ACCESS:          0  HIT:          0  MISS:          0
cpu0_STLB TOTAL     ACCESS:     243517  HIT:      49720  MISS:     193797
cpu0_STLB LOAD      ACCESS:     238727  HIT:      45552  MISS:     193175
cpu0_STLB RFO       ACCESS:       4790  HIT:       4168  MISS:        622
cpu0_STLB PREFETCH  ACCESS:          0  HIT:          0  MISS:          0
cpu0_STLB WRITEBACK ACCESS:          0  HIT:          0  MISS:          0
cpu0_L1D TOTAL     ACCESS:   10399599  HIT:    8911000  MISS:    1488599
cpu0_L1D LOAD      ACCESS:    8404888  HIT:    6925563  MISS:    1479325
cpu0_L1D RFO       ACCESS:    1828711  HIT:    1822751  MISS:       5960
cpu0_L1D PREFETCH  ACCESS:          0  HIT:          0  MISS:          0
cpu0_L1D WRITEBACK ACCESS:          0  HIT:          0  MISS:          0
cpu0_L2C TOTAL     ACCESS:    1572889  HIT:      81982  MISS:    1490907
cpu0_L2C LOAD      ACCESS:    1549553  HIT:      63103  MISS:    1486450
cpu0_L2C RFO       ACCESS:       5960  HIT:       2357  MISS:       3603
cpu0_L2C PREFETCH  ACCESS:          0  HIT:          0  MISS:          0
cpu0_L2C WRITEBACK ACCESS:      14062  HIT:      13836  MISS:        226
LLC TOTAL     ACCESS:    1498919  HIT:    1100671  MISS:     398248
LLC LOAD      ACCESS:    1486450  HIT:    1090024  MISS:     396426
LLC RFO       ACCESS:       3603  HIT:       2177  MISS:       1426
LLC PREFETCH  ACCESS:          0  HIT:          0  MISS:          0
LLC WRITEBACK ACCESS:       8238  HIT:       7901  MISS:        337
Heartbeat CPU 0 instructions: 106000000 cycles: 130003200 heartbeat IPC: 0.561237 cumulative IPC: 0.484059 (Simulation time: 1 hr 0 min 42 sec) 

Region of Interest Statistics
cpu0_DTLB TOTAL     ACCESS:   12339724  HIT:   12103819  MISS:     235905
cpu0_DTLB LOAD      ACCESS:   11393665  HIT:   11162690  MISS:     230975
cpu0_DTLB RFO       ACCESS:     946059  HIT:     941129  MISS:       4930
cpu0_DTLB PREFETCH  ACCESS:          0  HIT:          0  MISS:          0
cpu0_DTLB WRITEBACK ACCESS:          0  HIT:          0  MISS:          0
cpu0_ITLB TOTAL     ACCESS:    7650222  HIT:    7634609  MISS:      15613
cpu0_ITLB LOAD      ACCESS:    7650222  HIT:    7634609  MISS:      15613
cpu0_ITLB RFO       ACCESS:          0  HIT:          0  MISS:          0
cpu0_ITLB PREFETCH  ACCESS:          0  HIT:          0  MISS:          0
cpu0_ITLB WRITEBACK ACCESS:          0  HIT:          0  MISS:          0
cpu0_L1I TOTAL     ACCESS:     426328  HIT:     353615  MISS:      72713
cpu0_L1I LOAD      ACCESS:     426328  HIT:     353615  MISS:      72713
cpu0_L1I RFO       ACCESS:          0  HIT:          0  MISS:          0
cpu0_L1I PREFETCH  ACCESS:          0  HIT:          0  MISS:          0
cpu0_L1I WRITEBACK ACCESS:          0  HIT:          0  MISS:          0
cpu0_STLB TOTAL     ACCESS:     251518  HIT:      51090  MISS:     200428
cpu0_STLB LOAD      ACCESS:     246588  HIT:      46811  MISS:     199777
cpu0_STLB RFO       ACCESS:       4930  HIT:       4279  MISS:        651
cpu0_STLB PREFETCH  ACCESS:          0  HIT:          0  MISS:          0
cpu0_STLB WRITEBACK ACCESS:          0  HIT:          0  MISS:          0
cpu0_L1D TOTAL     ACCESS:   10781295  HIT:    9238103  MISS:    1543192
cpu0_L1D LOAD      ACCESS:    8716326  HIT:    7182716  MISS:    1533610
cpu0_L1D RFO       ACCESS:    1893241  HIT:    1887098  MISS:       6143
cpu0_L1D PREFETCH  ACCESS:          0  HIT:          0  MISS:          0
cpu0_L1D WRITEBACK ACCESS:          0  HIT:          0  MISS:          0
cpu0_L2C TOTAL     ACCESS:    1630432  HIT:      84371  MISS:    1546061
cpu0_L2C LOAD      ACCESS:    1606322  HIT:      64884  MISS:    1541438
cpu0_L2C RFO       ACCESS:       6143  HIT:       2407  MISS:       3736
cpu0_L2C PREFETCH  ACCESS:          0  HIT:          0  MISS:          0
[...]
cpu0_DTLB PREFETCH  REQUESTED:          0  ISSUED:          0  USEFUL:          0  USELESS:          0
cpu0_DTLB AVERAGE MISS LATENCY: 42.1637 cycles
cpu0_ITLB TOTAL     ACCESS:  204494802  HIT:  204108409  MISS:     386393
cpu0_ITLB LOAD      ACCESS:  204494802  HIT:  204108409  MISS:     386393
cpu0_ITLB RFO       ACCESS:          0  HIT:          0  MISS:          0
cpu0_ITLB PREFETCH  ACCESS:          0  HIT:          0  MISS:          0
cpu0_ITLB WRITEBACK ACCESS:          0  HIT:          0  MISS:          0
cpu0_ITLB TRANSLATION ACCESS:          0  HIT:          0  MISS:          0
cpu0_ITLB PREFETCH  REQUESTED:          0  ISSUED:          0  USEFUL:          0  USELESS:          0
cpu0_ITLB AVERAGE MISS LATENCY: 10.7931 cycles
cpu0_L1I TOTAL     ACCESS:   10402691  HIT:    8530060  MISS:    1872631
cpu0_L1I LOAD      ACCESS:   10402691  HIT:    8530060  MISS:    1872631
cpu0_L1I RFO       ACCESS:          0  HIT:          0  MISS:          0
cpu0_L1I PREFETCH  ACCESS:          0  HIT:          0  MISS:          0
cpu0_L1I WRITEBACK ACCESS:          0  HIT:          0  MISS:          0
cpu0_L1I TRANSLATION ACCESS:          0  HIT:          0  MISS:          0
cpu0_L1I PREFETCH  REQUESTED:          0  ISSUED:          0  USEFUL:          0  USELESS:          0
cpu0_L1I AVERAGE MISS LATENCY: 22.0047 cycles
cpu0_STLB TOTAL     ACCESS:    6803415  HIT:    1216179  MISS:    5587236
cpu0_STLB LOAD      ACCESS:    6682968  HIT:    1114460  MISS:    5568508
cpu0_STLB RFO       ACCESS:     120447  HIT:     101719  MISS:      18728
cpu0_STLB PREFETCH  ACCESS:          0  HIT:          0  MISS:          0
cpu0_STLB WRITEBACK ACCESS:          0  HIT:          0  MISS:          0
cpu0_STLB TRANSLATION ACCESS:          0  HIT:          0  MISS:          0
cpu0_STLB PREFETCH  REQUESTED:          0  ISSUED:          0  USEFUL:          0  USELESS:          0
cpu0_STLB AVERAGE MISS LATENCY: 38.1239 cycles
cpu0_L1D TOTAL     ACCESS:  288436318  HIT:  246818906  MISS:   41617412
cpu0_L1D LOAD      ACCESS:  233775377  HIT:  192450816  MISS:   41324561
cpu0_L1D RFO       ACCESS:   49820306  HIT:   49615838  MISS:     204468
cpu0_L1D PREFETCH  ACCESS:          0  HIT:          0  MISS:          0
cpu0_L1D WRITEBACK ACCESS:          0  HIT:          0  MISS:          0
cpu0_L1D TRANSLATION ACCESS:    4840635  HIT:    4752252  MISS:      88383
cpu0_L1D PREFETCH  REQUESTED:          0  ISSUED:          0  USEFUL:          0  USELESS:          0
cpu0_L1D AVERAGE MISS LATENCY: 88.4569 cycles
cpu0_L2C TOTAL     ACCESS:   43909998  HIT:    2038577  MISS:   41871421
cpu0_L2C LOAD      ACCESS:   43197119  HIT:    1502215  MISS:   41694904
cpu0_L2C RFO       ACCESS:     204460  HIT:      51823  MISS:     152637
cpu0_L2C PREFETCH  ACCESS:          0  HIT:          0  MISS:          0
cpu0_L2C WRITEBACK ACCESS:     420036  HIT:     414291  MISS:       5745
cpu0_L2C TRANSLATION ACCESS:      88383  HIT:      70248  MISS:      18135
cpu0_L2C PREFETCH  REQUESTED:          0  ISSUED:          0  USEFUL:          0  USELESS:          0
cpu0_L2C AVERAGE MISS LATENCY: 77.3332 cycles
LLC TOTAL     ACCESS:   42158005  HIT:   29344529  MISS:   12813476
LLC LOAD      ACCESS:   41694904  HIT:   29028538  MISS:   12666366
LLC RFO       ACCESS:     152637  HIT:      64135  MISS:      88502
LLC PREFETCH  ACCESS:          0  HIT:          0  MISS:          0
LLC WRITEBACK ACCESS:     292329  HIT:     238473  MISS:      53856
LLC TRANSLATION ACCESS:      18135  HIT:      13383  MISS:       4752
LLC PREFETCH  REQUESTED:          0  ISSUED:          0  USEFUL:          0  USELESS:          0
LLC AVERAGE MISS LATENCY: 184.092 cycles
~~~~~~~~~~Reuse Distance Profiler output~~~~~~~~~~
0	49491248	30629056
1	33710320	26166096
2	26999360	26226576
3	5840880	5250656
4	8880864	8392288
5	11013808	4797920
6	3583856	3332016
7	973072	760624
8	1099808	868320
9	520064	364128
10	466656	280832
11	1375936	756048
12	2136352	224976
13	6988304	4850160
14	1630880	292432
15	998160	455472
16	474384	313184
17	770256	675056
18	1695744	1609312
19	4067344	4003200
20	327248	259824
21	244752	179952
22	185584	111776
23	214912	127840
24	301280	198368
25	448640	356608
26	1485360	1401920
27	4331040	4266112
28	3897008	3704400
29	2158656	1464560
30	2634016	541632
31	2175680	276784
32	1099600	317280
33	556640	265024
34	421936	262448
35	579488	375408
36	713056	536720
37	1330016	1263728
38	1629040	1599008
39	1608128	1588560
40	5507120	5488832
41	16362624	16342864
42	15560160	15533104
43	7147184	7127504
44	2334864	2314688
45	698816	676592
46	488768	465552
47	520192	481648
48	741776	699488
49	918832	875568
50	1163104	1137968
51	941776	914752
52	446512	421168
53	148080	123952
54	73648	51456
55	84832	59184
56	159760	114576
57	153216	117888
58	154768	129264
59	82464	67888
60	67312	48800
61	56128	39968
62	63536	47440
63	60304	46096
64	139664	109808
66	100784	74304
68	88704	68608
70	71392	55728
72	58912	44096
74	66064	57584
76	294160	287472
78	495664	489712
80	418416	411568
82	434768	427136
84	235280	227648
86	97216	92400
88	100368	95648
90	110736	105040
92	62928	58288
94	36256	31600
96	28480	23664
98	23024	18080
100	22064	19392
102	22896	20864
104	16736	14240
106	16496	13984
108	17728	15280
110	21120	19024
112	19584	16320
114	19856	14000
116	14528	12496
118	21584	18928
120	24928	21008
122	27616	23632
124	34656	30080
126	38640	35648
128	73136	67920
132	91360	84352
136	47792	40784
140	31440	23584
144	29600	23760
148	26816	20288
152	28032	21968
156	23568	18784
160	31616	24672
164	39824	34608
168	45536	37760
172	43184	36064
176	41040	34176
180	24928	18656
184	23440	16432
188	23344	17264
192	25360	18752
196	23920	18400
200	16880	14048
204	22032	19616
208	28560	24928
212	31568	27328
216	36448	31824
220	29008	24288
224	25536	21760
228	25024	20880
232	24592	21424
236	23472	20992
240	24720	21856
244	21248	18016
248	24096	21312
252	27392	23408
256	58560	52640
264	36816	32480
272	33584	29936
280	49696	44784
288	42432	38272
296	43216	38416
304	30592	26240
312	22800	18848
320	22896	19632
328	23200	19136
336	26816	23392
344	27152	24224
352	16064	13568
360	15008	12496
368	12640	10848
376	22592	21312
384	32480	31040
392	17936	16000
400	20512	17696
408	16416	14960
416	14816	13360
424	20512	19056
432	18464	16608
440	15648	12976
448	18064	15008
456	16976	13904
464	19696	16688
472	16432	14848
480	12832	11280
488	14528	13552
496	13504	12160
504	16304	15184
512	38112	35264
528	24544	22464
544	25744	22608
560	21856	19568
576	17232	14688
592	28640	22016
608	17184	11888
624	26096	19184
640	22368	18240
656	15728	13824
672	20832	18448
688	16928	15968
704	18240	17248
720	24592	20240
736	22160	16448
752	24208	18256
768	17232	12704
784	17440	13360
800	26368	21312
816	20560	16176
832	13584	10624
848	16016	13296
864	11344	9408
880	13952	12016
896	13696	11504
912	12848	10608
928	15712	12496
944	14352	11440
960	12704	10864
976	12416	9520
992	9088	6944
1008	11296	9760
1024	25808	22080
1056	22336	18464
1088	26000	24032
1120	18320	15984
1152	19712	17728
1184	18544	15248
1216	20064	17184
1248	19184	16144
1280	21440	18304
1312	23184	19968
1344	21376	17568
1376	25344	21312
1408	24448	21568
1440	23104	20400
1472	21344	19152
1504	21536	17760
1536	26256	22768
1568	35600	31920
1600	39504	35392
1632	31664	27728
1664	33248	29936
1696	34224	30560
1728	37712	34880
1760	37520	33824
1792	36096	31952
1824	34304	30048
1856	35216	32176
1888	26848	24432
1920	26992	24944
1952	27680	25008
1984	26096	23200
2016	26640	23616
2048	71152	63040
2112	103984	95408
2176	60784	54848
2240	51728	46112
2304	59920	54496
2368	70800	64672
2432	57648	52848
2496	51616	46544
2560	55888	47632
2624	50432	44576
2688	47600	43840
2752	60544	56368
2816	74640	66864
2880	78656	68016
2944	53936	45712
3008	45104	40304
3072	39856	36080
3136	44480	39920
3200	45472	40640
3264	39232	34352
3328	34960	30016
3392	33792	30592
3456	37968	34288
3520	53616	45104
3584	23296	19520
3648	19696	16112
3712	18576	16096
3776	19536	17488
3840	28496	25840
3904	20544	17952
3968	15968	13056
4032	12080	10624
4096	23616	20208
4224	24416	20320
4352	18240	14672
4480	15152	12240
4608	22768	18128
4736	25008	21696
4864	19808	16736
4992	30032	26768
5120	26656	24048
5248	11680	10080
5376	12336	10640
5504	16336	14784
5632	13344	12096
5760	18656	16880
5888	11440	10560
6016	19296	17744
6144	11904	10688
6272	9360	7744
6400	7280	5968
6528	4192	3104
6656	5248	4240
6784	11168	10368
6912	6080	5040
7040	5904	5040
7168	9264	7840
7296	6512	5408
7424	7680	6960
7552	8144	7360
7680	6096	5472
7808	7648	6576
7936	3072	2528
8064	2272	2000
8192	4928	4352
8448	4208	3712
8704	5200	4368
8960	3232	2896
9216	3344	2976
9472	3952	3584
9728	3792	3424
9984	3600	2896
10240	3376	2704
10496	4208	3536
10752	5920	4512
11008	6448	5520
11264	2000	1600
11520	1792	1376
11776	1664	1344
12032	1552	1344
12288	1440	1056
12544	1488	1248
12800	1184	1008
13056	976	832
13312	1184	1104
13568	976	768
13824	848	768
14080	960	816
14336	992	896
14592	1504	1216
14848	2400	2160
15104	5360	5072
15360	1952	1824
15616	1712	1408
15872	1184	1024
16128	704	608
16384	1920	1520
16896	2432	2112
17408	1904	1472
17920	2096	1664
18432	2176	1680
18944	1616	1344
19456	1760	1472
19968	960	752
20480	1888	1728
20992	2080	1904
21504	1984	1632
22016	1424	1232
22528	1744	1408
23040	2256	1680
23552	1648	1392
24064	2096	1968
24576	1696	1520
25088	2736	2528
25600	3552	2944
26112	4272	3872
26624	2368	2112
27136	3584	3056
27648	1840	1296
28160	3856	3200
28672	3520	3040
29184	1568	1456
29696	1648	1584
30208	1312	1120
30720	1296	1120
31232	1008	912
31744	1232	1120
32256	1296	1184
32768	1712	1376
33792	2624	2352
34816	4432	4144
35840	928	800
36864	3472	3360
37888	960	912
38912	2352	2192
39936	4032	3984
40960	2544	2416
41984	1024	960
43008	2992	2800
44032	3264	3104
45056	3792	3696
46080	3856	3616
47104	6912	6704
48128	1440	1312
49152	1408	1328
50176	1392	1248
51200	1072	912
52224	1632	1328
53248	16592	16368
54272	992	896
55296	944	848
56320	880	800
57344	768	688
58368	944	800
59392	960	896
60416	1072	992
61440	944	864
62464	752	688
63488	960	880
64512	6032	5840
65536	7744	7488
67584	1536	1376
69632	8992	8688
71680	16896	16592
73728	9248	8992
75776	23408	23152
77824	18416	18160
79872	2032	1888
81920	7248	7040
83968	10816	10656
86016	19840	19632
88064	11536	11376
90112	11888	11696
92160	2480	2304
94208	2416	2064
96256	2448	2336
98304	26848	26528
100352	13328	13088
102400	13744	13520
104448	2304	2176
106496	3472	3280
108544	39712	39456
110592	5888	5648
112640	22512	22304
114688	27856	27760
116736	28624	28336
118784	16768	16640
120832	53760	53600
122880	1632	1488
124928	16224	16160
126976	17200	17008
129024	1840	1664
131072	44592	44256
135168	3536	3344
139264	48688	48496
143360	13952	13760
147456	4432	4240
151552	16592	16432
155648	3744	3616
159744	41808	41616
163840	4112	3744
167936	55936	54768
172032	63568	61632
176128	48272	45216
180224	48848	47616
184320	42432	41344
188416	62560	61120
192512	108032	105888
196608	122944	121568
200704	144496	143648
204800	138320	137760
208896	86656	86160
212992	65408	64864
217088	17088	16384
221184	53840	52608
225280	45632	43296
229376	122272	120592
233472	25104	24432
237568	91264	90592
241664	64336	63472
245760	102992	101888
249856	87024	85504
253952	65008	63952
258048	18544	18256
262144	290016	289328
270336	118400	117760
278528	29376	28912
286720	125392	124864
294912	105248	105040
303104	143952	143584
311296	102528	102064
319488	150512	150096
327680	123728	123264
335872	122976	122576
344064	173856	173504
352256	68944	68496
360448	190096	189632
368640	74304	73952
376832	183920	183456
385024	190112	189728
393216	83984	83520
401408	201056	200624
409600	95264	94976
417792	252176	251648
425984	139328	138912
434176	196928	196528
442368	264032	263728
450560	289008	288576
458752	253616	253216
466944	168592	168256
475136	45168	44912
483328	160112	159824
491520	219632	219248
499712	130384	130208
507904	307216	306960
516096	109280	109008
524288	124624	124096
540672	123200	122752
557056	536192	535392
573440	403488	403232
589824	292816	292480
606208	100432	100016
622592	530176	529680
638976	233552	232832
655360	410192	409712
671744	334208	333616
688128	274384	273936
704512	199872	199440
720896	272016	271552
737280	341408	340928
753664	598512	598000
770048	471232	470720
786432	238320	238144
802816	130208	129920
819200	246208	245744
835584	246064	245760
851968	243952	243616
868352	464256	463792
884736	371024	370768
901120	413840	413424
917504	195424	192400
933888	2395648	2393280
950272	3091792	3089808
966656	377184	377024
983040	467136	467024
999424	294288	294096
1015808	294496	294336
1032192	315168	315056
1048576	335088	334816
1081344	363120	362768
1114112	603760	603344
1146880	570320	570048
1179648	419136	419024
1212416	378720	378592
1245184	396112	395936
1277952	524976	524848
1310720	336512	336400
1343488	411936	411792
1376256	242688	242576
1409024	295952	295792
1441792	658880	658720
1474560	119664	119488
1507328	290592	290528
1540096	542416	542304
1572864	207744	207664
1605632	271024	270960
1638400	1057136	1056928
1671168	623536	623472
1703936	271136	270992
1736704	414976	414800
1769472	427984	427904
1802240	189504	189440
1835008	287120	287024
1867776	219520	219408
1900544	125840	125824
1933312	110064	110048
1966080	402240	402144
1998848	162512	162480
2031616	19712	19616
2064384	248992	248960
2097152	438784	438496
2162688	272288	272160
2228224	59664	59552
2293760	301264	301040
2359296	132112	131792
2424832	411632	411568
2490368	94704	94592
2555904	372512	372320
2621440	74288	74224
2686976	120368	120240
2752512	140704	140624
2818048	271568	271360
2883584	193600	193408
2949120	42896	42720
3014656	130096	130000
3080192	165776	165536
3145728	176272	176128
3211264	135152	135024
3276800	223968	223696
3342336	147408	147328
3407872	81344	81200
3473408	144720	144624
3538944	82192	81920
3604480	34528	34464
3670016	9872	9808
3735552	123152	123056
3801088	7552	7424
3866624	114096	113888
3932160	64336	63888
3997696	68512	68256
4063232	26400	26192
4128768	30256	29952
4194304	414768	414320
4325376	271952	271472
4456448	156096	155984
4587520	84464	84336
4718592	122560	122464
4849664	75440	75312
4980736	60432	60304
5111808	82656	82512
5242880	161312	160960
5373952	118384	118144
5505024	41232	41152
5636096	8592	8544
5767168	90096	89856
5898240	5680	5536
6029312	136960	136608
6160384	95296	95056
6291456	26800	26736
6422528	5600	5424
6553600	69232	68960
6684672	91680	91440
6815744	68656	68304
6946816	3056	2960
7077888	3904	3616
7208960	4272	4128
7340032	16464	16320
7471104	105968	105904
7602176	5104	4976
7733248	12544	12432
7864320	16464	16304
7995392	97328	97152
8126464	2592	2384
8257536	4240	3952
8388608	32544	31600
8650752	23248	22608
8912896	7120	6672
9175040	8992	8384
9437184	67200	66768
9699328	47280	47056
9961472	7248	6912
10223616	11232	10784
10485760	72128	71632
10747904	4064	3632
11010048	33808	33184
11272192	11280	10960
11534336	2640	2544
11796480	5440	5280
12058624	61392	61072
12320768	5344	4864
12582912	4768	4256
12845056	2848	2752
13107200	3776	3408
13369344	18864	18544
13631488	4096	3904
13893632	3040	2448
14155776	3040	2592
14417920	2432	2272
14680064	3552	2832
14942208	3024	2704
15204352	4448	3824
15466496	3968	3152
15728640	2400	2112
15990784	3072	2624
16252928	3328	3088
16515072	2880	2480
16777216	9280	5760
17301504	6384	6064
17825792	7952	4464
18350080	5632	5344
18874368	6240	3776
19398656	4864	3888
19922944	19792	19376
20447232	5728	5248
20971520	5200	5104
21495808	7200	6688
22020096	4256	4016
22544384	7504	4544
23068672	3904	3296
23592960	3680	2896
24117248	5680	5472
24641536	6240	3184
25165824	6192	5408
25690112	4080	3728
26214400	5120	4928
26738688	4128	3712
27262976	4176	3728
27787264	5024	4368
28311552	4416	4016
28835840	3568	3136
29360128	4128	2960
29884416	3360	3168
30408704	3104	2832
30932992	4560	4416
31457280	4272	4128
31981568	2832	2640
32505856	2192	1968
33030144	2672	2304
33554432	5456	5120
34603008	5904	5712
35651584	7008	6384
36700160	5504	5232
37748736	5792	5552
38797312	5632	5376
39845888	4976	4608
40894464	5904	5744
41943040	4608	4464
42991616	4320	4240
44040192	5648	5392
45088768	4464	4192
46137344	5184	4976
47185920	4176	4112
48234496	4768	4144
49283072	5136	5088
50331648	4448	4368
51380224	5312	5072
52428800	4800	4752
53477376	3216	3184
54525952	3984	3984
55574528	4992	4992
56623104	3536	3536
57671680	4432	4384
58720256	3104	3104
59768832	4240	4096
60817408	3408	3408
61865984	4256	4256
62914560	2720	2656
63963136	2320	2304
65011712	2656	2640
66060288	3984	3856
67108864	5280	5248
69206016	4944	4928
71303168	4576	4560
73400320	5376	5376
75497472	5728	5712
77594624	4432	4416
79691776	3904	3904
81788928	4704	4704
83886080	4192	4192
85983232	2960	2960
88080384	2768	2768
90177536	3360	3360
92274688	3424	3392
94371840	2880	2880
96468992	3536	3520
98566144	4176	4160
100663296	2128	2128
102760448	2240	2240
104857600	2352	2352
106954752	1504	1504
109051904	2352	2352
111149056	2096	2096
113246208	2160	2160
115343360	2016	2016
117440512	2304	2304
119537664	1744	1744
121634816	1712	1712
123731968	1408	1408
125829120	1648	1648
127926272	1344	1328
130023424	1888	1888
132120576	1056	1056
134217728	3120	3120
138412032	2800	2800
142606336	2048	2048
146800640	2416	2400
150994944	2528	2528
155189248	1024	1024
159383552	1392	1392
163577856	1008	1008
167772160	1072	1072
171966464	784	784
176160768	768	768
180355072	672	672
184549376	544	544
188743680	1360	1360
192937984	320	320
197132288	656	656
201326592	400	400
205520896	912	912
209715200	288	288
213909504	496	496
218103808	496	496
222298112	288	288
226492416	320	320
230686720	144	144
234881024	176	176
239075328	80	80
243269632	192	192
247463936	160	160
251658240	160	160
255852544	128	128
260046848	64	64
264241152	80	80
268435456	96	96
276824064	48	48
285212672	16	16
293601280	0	0
301989888	0	0
310378496	0	0
318767104	0	0
327155712	0	0
335544320	0	0
343932928	0	0
352321536	0	0
360710144	0	0
369098752	0	0
377487360	0	0
385875968	0	0
394264576	0	0
402653184	0	0
411041792	0	0
419430400	0	0
427819008	0	0
436207616	0	0
444596224	0	0
452984832	0	0
461373440	0	0
469762048	0	0
478150656	0	0
486539264	0	0
494927872	0	0
503316480	0	0
511705088	0	0
520093696	0	0
528482304	0	0
536870912	0	0
553648128	0	0
570425344	0	0
587202560	0	0
603979776	0	0
620756992	0	0
637534208	0	0
654311424	0	0
671088640	0	0
687865856	0	0
704643072	0	0
721420288	0	0
738197504	0	0
754974720	0	0
771751936	0	0
788529152	0	0
805306368	0	0
822083584	0	0
838860800	0	0
855638016	0	0
872415232	0	0
889192448	0	0
905969664	0	0
922746880	0	0
939524096	0	0
956301312	0	0
973078528	0	0
989855744	0	0
1006632960	0	0
1023410176	0	0
1040187392	0	0
1056964608	0	0
1073741824	0	0
1107296256	0	0
1140850688	0	0
1174405120	0	0
1207959552	0	0
1241513984	0	0
1275068416	0	0
1308622848	0	0
1342177280	0	0
1375731712	0	0
1409286144	0	0
1442840576	0	0
1476395008	0	0
1509949440	0	0
1543503872	0	0
1577058304	0	0
1610612736	0	0
1644167168	0	0
1677721600	0	0
1711276032	0	0
1744830464	0	0
1778384896	0	0
1811939328	0	0
1845493760	0	0
1879048192	0	0
1912602624	0	0
1946157056	0	0
1979711488	0	0
2013265920	0	0
2046820352	0	0
2080374784	0	0
2113929216	0	0
2147483648	0	0
2214592512	0	0
2281701376	0	0
2348810240	0	0
2415919104	0	0
2483027968	0	0
2550136832	0	0
2617245696	0	0
2684354560	0	0
2751463424	0	0
2818572288	0	0
2885681152	0	0
2952790016	0	0
3019898880	0	0
3087007744	0	0
3154116608	0	0
3221225472	0	0
3288334336	0	0
3355443200	0	0
3422552064	0	0
3489660928	0	0
3556769792	0	0
3623878656	0	0
3690987520	0	0
3758096384	0	0
3825205248	0	0
3892314112	0	0
3959422976	0	0
4026531840	0	0
4093640704	0	0
4160749568	0	0
4227858432	0	0
~~~~~~~~~~Reuse Distance Profiler output end~~~~~~~~~~

Sampler size:26847

DRAM Statistics
 CHANNEL 0
 RQ ROW_BUFFER_HIT:    2129465  ROW_BUFFER_MISS:   10630150
 DBUS AVG_CONGESTED_CYCLE:    3.90653
 WQ ROW_BUFFER_HIT:      36650  ROW_BUFFER_MISS:      72492  FULL:          0


CPU 0 Branch Prediction Accuracy: 91.4372% MPKI: 24.4473 Average ROB Occupancy at Mispredict: 22.75
Branch type MPKI
BRANCH_DIRECT_JUMP: 2.26667e-05
BRANCH_INDIRECT: 0.00630933
BRANCH_CONDITIONAL: 24.3449
BRANCH_DIRECT_CALL: 2.06667e-05
BRANCH_INDIRECT_CALL: 0.0226987
BRANCH_RETURN: 0.073348

