
*** ChampSim Multicore Out-of-Order Simulator ***

Warmup Instructions: 50000000
Simulation Instructions: 1500000000
Number of CPUs: 1
Off-chip DRAM Size: 4 GiB Channels: 1 Width: 64-bit Data Rate: 3200 MT/s

VirtualMemory physical capacity: 8588881920 num_ppages: 2096895
VirtualMemory page size: 4096 log2_page_size: 12

CPU 0 runs /s/traces/champsim_traces/602.gcc_s-1850B.champsimtrace.xz
CPU 0 Bimodal branch predictor
Basic BTB sets: 1024 ways: 8 indirect buffer size: 4096 RAS size: 64
Initializing LRU.
Initializing LRU.
Initializing LRU.
Initializing LRU.
Initializing rdLRU.
Initializing LRU.
Initializing mockingjay of size: 2048
Heartbeat CPU 0 instructions: 2000001 cycles: 500075 heartbeat IPC: 3.9994 cumulative IPC: 3.9994 (Simulation time: 0 hr 1 min 4 sec) 
Heartbeat CPU 0 instructions: 4000001 cycles: 1000075 heartbeat IPC: 4 cumulative IPC: 3.9997 (Simulation time: 0 hr 2 min 4 sec) 
Heartbeat CPU 0 instructions: 6000001 cycles: 1500075 heartbeat IPC: 4 cumulative IPC: 3.9998 (Simulation time: 0 hr 3 min 10 sec) 
Heartbeat CPU 0 instructions: 8000001 cycles: 2000075 heartbeat IPC: 4 cumulative IPC: 3.99985 (Simulation time: 0 hr 4 min 15 sec) 
Heartbeat CPU 0 instructions: 10000001 cycles: 2500075 heartbeat IPC: 4 cumulative IPC: 3.99988 (Simulation time: 0 hr 5 min 20 sec) 
Heartbeat CPU 0 instructions: 12000001 cycles: 3000075 heartbeat IPC: 4 cumulative IPC: 3.9999 (Simulation time: 0 hr 6 min 26 sec) 
Heartbeat CPU 0 instructions: 14000001 cycles: 3500075 heartbeat IPC: 4 cumulative IPC: 3.99991 (Simulation time: 0 hr 7 min 31 sec) 
Heartbeat CPU 0 instructions: 16000001 cycles: 4000075 heartbeat IPC: 4 cumulative IPC: 3.99993 (Simulation time: 0 hr 8 min 37 sec) 
Heartbeat CPU 0 instructions: 18000001 cycles: 4500075 heartbeat IPC: 4 cumulative IPC: 3.99993 (Simulation time: 0 hr 9 min 41 sec) 
Heartbeat CPU 0 instructions: 20000001 cycles: 5000075 heartbeat IPC: 4 cumulative IPC: 3.99994 (Simulation time: 0 hr 10 min 47 sec) 
Heartbeat CPU 0 instructions: 22000001 cycles: 5500075 heartbeat IPC: 4 cumulative IPC: 3.99995 (Simulation time: 0 hr 11 min 52 sec) 
Heartbeat CPU 0 instructions: 24000001 cycles: 6000075 heartbeat IPC: 4 cumulative IPC: 3.99995 (Simulation time: 0 hr 12 min 57 sec) 
Heartbeat CPU 0 instructions: 26000001 cycles: 6500075 heartbeat IPC: 4 cumulative IPC: 3.99995 (Simulation time: 0 hr 14 min 1 sec) 
Heartbeat CPU 0 instructions: 28000001 cycles: 7000075 heartbeat IPC: 4 cumulative IPC: 3.99996 (Simulation time: 0 hr 15 min 7 sec) 
Heartbeat CPU 0 instructions: 30000003 cycles: 7500106 heartbeat IPC: 3.99976 cumulative IPC: 3.99994 (Simulation time: 0 hr 16 min 13 sec) 
Heartbeat CPU 0 instructions: 32000001 cycles: 8000075 heartbeat IPC: 4.00024 cumulative IPC: 3.99996 (Simulation time: 0 hr 17 min 19 sec) 
Heartbeat CPU 0 instructions: 34000001 cycles: 8500075 heartbeat IPC: 4 cumulative IPC: 3.99996 (Simulation time: 0 hr 18 min 21 sec) 
Heartbeat CPU 0 instructions: 36000001 cycles: 9000075 heartbeat IPC: 4 cumulative IPC: 3.99997 (Simulation time: 0 hr 19 min 24 sec) 
Heartbeat CPU 0 instructions: 38000001 cycles: 9500075 heartbeat IPC: 4 cumulative IPC: 3.99997 (Simulation time: 0 hr 20 min 26 sec) 
Heartbeat CPU 0 instructions: 40000001 cycles: 10000075 heartbeat IPC: 4 cumulative IPC: 3.99997 (Simulation time: 0 hr 21 min 30 sec) 
Heartbeat CPU 0 instructions: 42000001 cycles: 10500075 heartbeat IPC: 4 cumulative IPC: 3.99997 (Simulation time: 0 hr 22 min 34 sec) 
Heartbeat CPU 0 instructions: 44000001 cycles: 11000075 heartbeat IPC: 4 cumulative IPC: 3.99997 (Simulation time: 0 hr 23 min 36 sec) 
Heartbeat CPU 0 instructions: 46000001 cycles: 11500075 heartbeat IPC: 4 cumulative IPC: 3.99997 (Simulation time: 0 hr 24 min 39 sec) 
Heartbeat CPU 0 instructions: 48000001 cycles: 12000075 heartbeat IPC: 4 cumulative IPC: 3.99997 (Simulation time: 0 hr 25 min 41 sec) 
Heartbeat CPU 0 instructions: 50000001 cycles: 12500075 heartbeat IPC: 4 cumulative IPC: 3.99998 (Simulation time: 0 hr 26 min 42 sec) 

Warmup complete CPU 0 instructions: 50000001 cycles: 12500075 (Simulation time: 0 hr 26 min 42 sec) 

Heartbeat CPU 0 instructions: 52000001 cycles: 18770743 heartbeat IPC: 0.318945 cumulative IPC: 0.318945 (Simulation time: 0 hr 28 min 37 sec) 

Region of Interest Statistics
cpu0_DTLB TOTAL     ACCESS:     379888  HIT:     379230  MISS:        658
cpu0_DTLB LOAD      ACCESS:     315124  HIT:     314466  MISS:        658
cpu0_DTLB RFO       ACCESS:      64764  HIT:      64764  MISS:          0
cpu0_DTLB PREFETCH  ACCESS:          0  HIT:          0  MISS:          0
cpu0_DTLB WRITEBACK ACCESS:          0  HIT:          0  MISS:          0
cpu0_ITLB TOTAL     ACCESS:     228532  HIT:     228532  MISS:          0
cpu0_ITLB LOAD      ACCESS:     228532  HIT:     228532  MISS:          0
cpu0_ITLB RFO       ACCESS:          0  HIT:          0  MISS:          0
cpu0_ITLB PREFETCH  ACCESS:          0  HIT:          0  MISS:          0
cpu0_ITLB WRITEBACK ACCESS:          0  HIT:          0  MISS:          0
cpu0_STLB TOTAL     ACCESS:        658  HIT:         47  MISS:        611
cpu0_STLB LOAD      ACCESS:        658  HIT:         47  MISS:        611
cpu0_STLB RFO       ACCESS:          0  HIT:          0  MISS:          0
cpu0_STLB PREFETCH  ACCESS:          0  HIT:          0  MISS:          0
cpu0_STLB WRITEBACK ACCESS:          0  HIT:          0  MISS:          0
cpu0_L1D TOTAL     ACCESS:     443567  HIT:     395304  MISS:      48263
cpu0_L1D LOAD      ACCESS:     270319  HIT:     222115  MISS:      48204
cpu0_L1D RFO       ACCESS:     172637  HIT:     172633  MISS:          4
cpu0_L1D PREFETCH  ACCESS:          0  HIT:          0  MISS:          0
cpu0_L1D WRITEBACK ACCESS:          0  HIT:          0  MISS:          0
cpu0_L2C TOTAL     ACCESS:      48391  HIT:      12791  MISS:      35600
cpu0_L2C LOAD      ACCESS:      48204  HIT:      12616  MISS:      35588
cpu0_L2C RFO       ACCESS:          4  HIT:          0  MISS:          4
cpu0_L2C PREFETCH  ACCESS:          0  HIT:          0  MISS:          0
cpu0_L2C WRITEBACK ACCESS:        128  HIT:        128  MISS:          0
LLC TOTAL     ACCESS:      35633  HIT:         63  MISS:      35570
LLC LOAD      ACCESS:      35588  HIT:         60  MISS:      35528
LLC RFO       ACCESS:          4  HIT:          0  MISS:          4
LLC PREFETCH  ACCESS:          0  HIT:          0  MISS:          0
LLC WRITEBACK ACCESS:         33  HIT:          0  MISS:         33
Heartbeat CPU 0 instructions: 54000000 cycles: 25028246 heartbeat IPC: 0.319616 cumulative IPC: 0.31928 (Simulation time: 0 hr 30 min 30 sec) 

Region of Interest Statistics
cpu0_DTLB TOTAL     ACCESS:     759837  HIT:     758552  MISS:       1285
cpu0_DTLB LOAD      ACCESS:     630279  HIT:     628994  MISS:       1285
cpu0_DTLB RFO       ACCESS:     129558  HIT:     129558  MISS:          0
cpu0_DTLB PREFETCH  ACCESS:          0  HIT:          0  MISS:          0
cpu0_DTLB WRITEBACK ACCESS:          0  HIT:          0  MISS:          0
cpu0_ITLB TOTAL     ACCESS:     457114  HIT:     457114  MISS:          0
cpu0_ITLB LOAD      ACCESS:     457114  HIT:     457114  MISS:          0
cpu0_ITLB RFO       ACCESS:          0  HIT:          0  MISS:          0
cpu0_ITLB PREFETCH  ACCESS:          0  HIT:          0  MISS:          0
cpu0_ITLB WRITEBACK ACCESS:          0  HIT:          0  MISS:          0
cpu0_STLB TOTAL     ACCESS:       1285  HIT:         87  MISS:       1198
cpu0_STLB LOAD      ACCESS:       1285  HIT:         87  MISS:       1198
cpu0_STLB RFO       ACCESS:          0  HIT:          0  MISS:          0
cpu0_STLB PREFETCH  ACCESS:          0  HIT:          0  MISS:          0
cpu0_STLB WRITEBACK ACCESS:          0  HIT:          0  MISS:          0
cpu0_L1D TOTAL     ACCESS:     887167  HIT:     790845  MISS:      96322
cpu0_L1D LOAD      ACCESS:     540676  HIT:     444449  MISS:      96227
cpu0_L1D RFO       ACCESS:     345293  HIT:     345289  MISS:          4
cpu0_L1D PREFETCH  ACCESS:          0  HIT:          0  MISS:          0
cpu0_L1D WRITEBACK ACCESS:          0  HIT:          0  MISS:          0
cpu0_L2C TOTAL     ACCESS:      96575  HIT:      25408  MISS:      71167
cpu0_L2C LOAD      ACCESS:      96227  HIT:      25078  MISS:      71149
cpu0_L2C RFO       ACCESS:          4  HIT:          0  MISS:          4
cpu0_L2C PREFETCH  ACCESS:          0  HIT:          0  MISS:          0
cpu0_L2C WRITEBACK ACCESS:        253  HIT:        253  MISS:          0
LLC TOTAL     ACCESS:      71264  HIT:        119  MISS:      71145
LLC LOAD      ACCESS:      71149  HIT:        114  MISS:      71035
LLC RFO       ACCESS:          4  HIT:          0  MISS:          4
LLC PREFETCH  ACCESS:          0  HIT:          0  MISS:          0
LLC WRITEBACK ACCESS:         97  HIT:          0  MISS:         97
Heartbeat CPU 0 instructions: 56000003 cycles: 31263937 heartbeat IPC: 0.320735 cumulative IPC: 0.319764 (Simulation time: 0 hr 32 min 18 sec) 

Region of Interest Statistics
cpu0_DTLB TOTAL     ACCESS:    1139814  HIT:    1137907  MISS:       1907
cpu0_DTLB LOAD      ACCESS:     945468  HIT:     943562  MISS:       1906
cpu0_DTLB RFO       ACCESS:     194346  HIT:     194345  MISS:          1
cpu0_DTLB PREFETCH  ACCESS:          0  HIT:          0  MISS:          0
cpu0_DTLB WRITEBACK ACCESS:          0  HIT:          0  MISS:          0
cpu0_ITLB TOTAL     ACCESS:     685699  HIT:     685699  MISS:          0
cpu0_ITLB LOAD      ACCESS:     685699  HIT:     685699  MISS:          0
cpu0_ITLB RFO       ACCESS:          0  HIT:          0  MISS:          0
cpu0_ITLB PREFETCH  ACCESS:          0  HIT:          0  MISS:          0
cpu0_ITLB WRITEBACK ACCESS:          0  HIT:          0  MISS:          0
cpu0_STLB TOTAL     ACCESS:       1907  HIT:        104  MISS:       1803
cpu0_STLB LOAD      ACCESS:       1906  HIT:        104  MISS:       1802
cpu0_STLB RFO       ACCESS:          1  HIT:          0  MISS:          1
cpu0_STLB PREFETCH  ACCESS:          0  HIT:          0  MISS:          0
cpu0_STLB WRITEBACK ACCESS:          0  HIT:          0  MISS:          0
cpu0_L1D TOTAL     ACCESS:    1330868  HIT:    1186268  MISS:     144600
cpu0_L1D LOAD      ACCESS:     811103  HIT:     666681  MISS:     144422
cpu0_L1D RFO       ACCESS:     517962  HIT:     517931  MISS:         31
cpu0_L1D PREFETCH  ACCESS:          0  HIT:          0  MISS:          0
cpu0_L1D WRITEBACK ACCESS:          0  HIT:          0  MISS:          0
cpu0_L2C TOTAL     ACCESS:     144980  HIT:      38227  MISS:     106753
cpu0_L2C LOAD      ACCESS:     144422  HIT:      37724  MISS:     106698
cpu0_L2C RFO       ACCESS:         31  HIT:          0  MISS:         31
cpu0_L2C PREFETCH  ACCESS:          0  HIT:          0  MISS:          0
cpu0_L2C WRITEBACK ACCESS:        380  HIT:        380  MISS:          0
LLC TOTAL     ACCESS:     106893  HIT:        172  MISS:     106721
LLC LOAD      ACCESS:     106698  HIT:        163  MISS:     106535
LLC RFO       ACCESS:         31  HIT:          0  MISS:         31
LLC PREFETCH  ACCESS:          0  HIT:          0  MISS:          0
LLC WRITEBACK ACCESS:        140  HIT:          0  MISS:        140
Heartbeat CPU 0 instructions: 58000001 cycles: 37506412 heartbeat IPC: 0.320385 cumulative IPC: 0.319919 (Simulation time: 0 hr 34 min 11 sec) 

Region of Interest Statistics
cpu0_DTLB TOTAL     ACCESS:    1519793  HIT:    1517194  MISS:       2599
cpu0_DTLB LOAD      ACCESS:    1260671  HIT:    1258073  MISS:       2598
cpu0_DTLB RFO       ACCESS:     259122  HIT:     259121  MISS:          1
cpu0_DTLB PREFETCH  ACCESS:          0  HIT:          0  MISS:          0
cpu0_DTLB WRITEBACK ACCESS:          0  HIT:          0  MISS:          0
cpu0_ITLB TOTAL     ACCESS:     914267  HIT:     914267  MISS:          0
cpu0_ITLB LOAD      ACCESS:     914267  HIT:     914267  MISS:          0
cpu0_ITLB RFO       ACCESS:          0  HIT:          0  MISS:          0
cpu0_ITLB PREFETCH  ACCESS:          0  HIT:          0  MISS:          0
cpu0_ITLB WRITEBACK ACCESS:          0  HIT:          0  MISS:          0
cpu0_STLB TOTAL     ACCESS:       2599  HIT:        191  MISS:       2408
cpu0_STLB LOAD      ACCESS:       2598  HIT:        191  MISS:       2407
cpu0_STLB RFO       ACCESS:          1  HIT:          0  MISS:          1
cpu0_STLB PREFETCH  ACCESS:          0  HIT:          0  MISS:          0
cpu0_STLB WRITEBACK ACCESS:          0  HIT:          0  MISS:          0
cpu0_L1D TOTAL     ACCESS:    1774532  HIT:    1581715  MISS:     192817
cpu0_L1D LOAD      ACCESS:    1081522  HIT:     888967  MISS:     192555
cpu0_L1D RFO       ACCESS:     690602  HIT:     690537  MISS:         65
cpu0_L1D PREFETCH  ACCESS:          0  HIT:          0  MISS:          0
cpu0_L1D WRITEBACK ACCESS:          0  HIT:          0  MISS:          0
cpu0_L2C TOTAL     ACCESS:     193325  HIT:      50953  MISS:     142372
cpu0_L2C LOAD      ACCESS:     192555  HIT:      50285  MISS:     142270
cpu0_L2C RFO       ACCESS:         65  HIT:          0  MISS:         65
cpu0_L2C PREFETCH  ACCESS:          0  HIT:          0  MISS:          0
cpu0_L2C WRITEBACK ACCESS:        508  HIT:        508  MISS:          0
LLC TOTAL     ACCESS:     142571  HIT:        234  MISS:     142337
LLC LOAD      ACCESS:     142270  HIT:        220  MISS:     142050
LLC RFO       ACCESS:         65  HIT:          0  MISS:         65
LLC PREFETCH  ACCESS:          0  HIT:          0  MISS:          0
LLC WRITEBACK ACCESS:        199  HIT:          0  MISS:        199
Heartbeat CPU 0 instructions: 60000004 cycles: 43748072 heartbeat IPC: 0.320428 cumulative IPC: 0.320021 (Simulation time: 0 hr 35 min 57 sec) 

Region of Interest Statistics
cpu0_DTLB TOTAL     ACCESS:    1899701  HIT:    1896430  MISS:       3271
cpu0_DTLB LOAD      ACCESS:    1575804  HIT:    1572534  MISS:       3270
cpu0_DTLB RFO       ACCESS:     323897  HIT:     323896  MISS:          1
cpu0_DTLB PREFETCH  ACCESS:          0  HIT:          0  MISS:          0
cpu0_DTLB WRITEBACK ACCESS:          0  HIT:          0  MISS:          0
cpu0_ITLB TOTAL     ACCESS:    1142850  HIT:    1142850  MISS:          0
cpu0_ITLB LOAD      ACCESS:    1142850  HIT:    1142850  MISS:          0
cpu0_ITLB RFO       ACCESS:          0  HIT:          0  MISS:          0
cpu0_ITLB PREFETCH  ACCESS:          0  HIT:          0  MISS:          0
cpu0_ITLB WRITEBACK ACCESS:          0  HIT:          0  MISS:          0
cpu0_STLB TOTAL     ACCESS:       3271  HIT:        262  MISS:       3009
cpu0_STLB LOAD      ACCESS:       3270  HIT:        262  MISS:       3008
cpu0_STLB RFO       ACCESS:          1  HIT:          0  MISS:          1
cpu0_STLB PREFETCH  ACCESS:          0  HIT:          0  MISS:          0
cpu0_STLB WRITEBACK ACCESS:          0  HIT:          0  MISS:          0
cpu0_L1D TOTAL     ACCESS:    2218065  HIT:    1977070  MISS:     240995
cpu0_L1D LOAD      ACCESS:    1351832  HIT:    1111180  MISS:     240652
cpu0_L1D RFO       ACCESS:     863224  HIT:     863128  MISS:         96
cpu0_L1D PREFETCH  ACCESS:          0  HIT:          0  MISS:          0
cpu0_L1D WRITEBACK ACCESS:          0  HIT:          0  MISS:          0
cpu0_L2C TOTAL     ACCESS:     241631  HIT:      63663  MISS:     177968
cpu0_L2C LOAD      ACCESS:     240652  HIT:      62827  MISS:     177825
cpu0_L2C RFO       ACCESS:         96  HIT:          0  MISS:         96
cpu0_L2C PREFETCH  ACCESS:          0  HIT:          0  MISS:          0
cpu0_L2C WRITEBACK ACCESS:        636  HIT:        636  MISS:          0
LLC TOTAL     ACCESS:     178222  HIT:        290  MISS:     177932
LLC LOAD      ACCESS:     177825  HIT:        268  MISS:     177557
LLC RFO       ACCESS:         96  HIT:          0  MISS:         96
LLC PREFETCH  ACCESS:          0  HIT:          0  MISS:          0
LLC WRITEBACK ACCESS:        254  HIT:          0  MISS:        254
Heartbeat CPU 0 instructions: 62000000 cycles: 49988834 heartbeat IPC: 0.320473 cumulative IPC: 0.320096 (Simulation time: 0 hr 37 min 46 sec) 

Region of Interest Statistics
cpu0_DTLB TOTAL     ACCESS:    2279507  HIT:    2275540  MISS:       3967
cpu0_DTLB LOAD      ACCESS:    1890855  HIT:    1886889  MISS:       3966
cpu0_DTLB RFO       ACCESS:     388652  HIT:     388651  MISS:          1
cpu0_DTLB PREFETCH  ACCESS:          0  HIT:          0  MISS:          0
cpu0_DTLB WRITEBACK ACCESS:          0  HIT:          0  MISS:          0
cpu0_ITLB TOTAL     ACCESS:    1371404  HIT:    1371404  MISS:          0
cpu0_ITLB LOAD      ACCESS:    1371404  HIT:    1371404  MISS:          0
cpu0_ITLB RFO       ACCESS:          0  HIT:          0  MISS:          0
cpu0_ITLB PREFETCH  ACCESS:          0  HIT:          0  MISS:          0
cpu0_ITLB WRITEBACK ACCESS:          0  HIT:          0  MISS:          0
cpu0_STLB TOTAL     ACCESS:       3967  HIT:        321  MISS:       3646
cpu0_STLB LOAD      ACCESS:       3966  HIT:        321  MISS:       3645
cpu0_STLB RFO       ACCESS:          1  HIT:          0  MISS:          1
cpu0_STLB PREFETCH  ACCESS:          0  HIT:          0  MISS:          0
cpu0_STLB WRITEBACK ACCESS:          0  HIT:          0  MISS:          0
cpu0_L1D TOTAL     ACCESS:    2661575  HIT:    2372447  MISS:     289128
cpu0_L1D LOAD      ACCESS:    1622114  HIT:    1333432  MISS:     288682
cpu0_L1D RFO       ACCESS:    1035815  HIT:    1035693  MISS:        122
cpu0_L1D PREFETCH  ACCESS:          0  HIT:          0  MISS:          0
cpu0_L1D WRITEBACK ACCESS:          0  HIT:          0  MISS:          0
cpu0_L2C TOTAL     ACCESS:     289891  HIT:      76334  MISS:     213557
cpu0_L2C LOAD      ACCESS:     288682  HIT:      75307  MISS:     213375
cpu0_L2C RFO       ACCESS:        122  HIT:          0  MISS:        122
cpu0_L2C PREFETCH  ACCESS:          0  HIT:          0  MISS:          0
cpu0_L2C WRITEBACK ACCESS:        763  HIT:        763  MISS:          0
LLC TOTAL     ACCESS:     213856  HIT:        334  MISS:     213522
LLC LOAD      ACCESS:     213375  HIT:        307  MISS:     213068
LLC RFO       ACCESS:        122  HIT:          0  MISS:        122
LLC PREFETCH  ACCESS:          0  HIT:          0  MISS:          0
LLC WRITEBACK ACCESS:        299  HIT:          0  MISS:        299
Heartbeat CPU 0 instructions: 64000000 cycles: 56240768 heartbeat IPC: 0.319901 cumulative IPC: 0.320068 (Simulation time: 0 hr 39 min 41 sec) 

Region of Interest Statistics
cpu0_DTLB TOTAL     ACCESS:    2659206  HIT:    2654574  MISS:       4632
cpu0_DTLB LOAD      ACCESS:    2205825  HIT:    2201194  MISS:       4631
cpu0_DTLB RFO       ACCESS:     453381  HIT:     453380  MISS:          1
cpu0_DTLB PREFETCH  ACCESS:          0  HIT:          0  MISS:          0
cpu0_DTLB WRITEBACK ACCESS:          0  HIT:          0  MISS:          0
cpu0_ITLB TOTAL     ACCESS:    1599971  HIT:    1599971  MISS:          0
cpu0_ITLB LOAD      ACCESS:    1599971  HIT:    1599971  MISS:          0
cpu0_ITLB RFO       ACCESS:          0  HIT:          0  MISS:          0
cpu0_ITLB PREFETCH  ACCESS:          0  HIT:          0  MISS:          0
cpu0_ITLB WRITEBACK ACCESS:          0  HIT:          0  MISS:          0
cpu0_STLB TOTAL     ACCESS:       4632  HIT:        346  MISS:       4286
cpu0_STLB LOAD      ACCESS:       4631  HIT:        346  MISS:       4285
cpu0_STLB RFO       ACCESS:          1  HIT:          0  MISS:          1
cpu0_STLB PREFETCH  ACCESS:          0  HIT:          0  MISS:          0
cpu0_STLB WRITEBACK ACCESS:          0  HIT:          0  MISS:          0
cpu0_L1D TOTAL     ACCESS:    3104957  HIT:    2767562  MISS:     337395
cpu0_L1D LOAD      ACCESS:    1892347  HIT:    1555503  MISS:     336844
cpu0_L1D RFO       ACCESS:    1208324  HIT:    1208177  MISS:        147
cpu0_L1D PREFETCH  ACCESS:          0  HIT:          0  MISS:          0
cpu0_L1D WRITEBACK ACCESS:          0  HIT:          0  MISS:          0
cpu0_L2C TOTAL     ACCESS:     338288  HIT:      89057  MISS:     249231
cpu0_L2C LOAD      ACCESS:     336844  HIT:      87837  MISS:     249007
cpu0_L2C RFO       ACCESS:        147  HIT:          0  MISS:        147
cpu0_L2C PREFETCH  ACCESS:          0  HIT:          0  MISS:          0
cpu0_L2C WRITEBACK ACCESS:        893  HIT:        893  MISS:          0
LLC TOTAL     ACCESS:     249582  HIT:        403  MISS:     249179
LLC LOAD      ACCESS:     249007  HIT:        366  MISS:     248641
LLC RFO       ACCESS:        147  HIT:          0  MISS:        147
LLC PREFETCH  ACCESS:          0  HIT:          0  MISS:          0
LLC WRITEBACK ACCESS:        351  HIT:          0  MISS:        351
Heartbeat CPU 0 instructions: 66000000 cycles: 62470327 heartbeat IPC: 0.32105 cumulative IPC: 0.32019 (Simulation time: 0 hr 41 min 32 sec) 

Region of Interest Statistics
cpu0_DTLB TOTAL     ACCESS:    3038998  HIT:    3033759  MISS:       5239
cpu0_DTLB LOAD      ACCESS:    2520814  HIT:    2515576  MISS:       5238
cpu0_DTLB RFO       ACCESS:     518184  HIT:     518183  MISS:          1
cpu0_DTLB PREFETCH  ACCESS:          0  HIT:          0  MISS:          0
cpu0_DTLB WRITEBACK ACCESS:          0  HIT:          0  MISS:          0
cpu0_ITLB TOTAL     ACCESS:    1828526  HIT:    1828526  MISS:          0
cpu0_ITLB LOAD      ACCESS:    1828526  HIT:    1828526  MISS:          0
cpu0_ITLB RFO       ACCESS:          0  HIT:          0  MISS:          0
cpu0_ITLB PREFETCH  ACCESS:          0  HIT:          0  MISS:          0
cpu0_ITLB WRITEBACK ACCESS:          0  HIT:          0  MISS:          0
cpu0_STLB TOTAL     ACCESS:       5239  HIT:        358  MISS:       4881
cpu0_STLB LOAD      ACCESS:       5238  HIT:        358  MISS:       4880
cpu0_STLB RFO       ACCESS:          1  HIT:          0  MISS:          1
cpu0_STLB PREFETCH  ACCESS:          0  HIT:          0  MISS:          0
cpu0_STLB WRITEBACK ACCESS:          0  HIT:          0  MISS:          0
cpu0_L1D TOTAL     ACCESS:    3548441  HIT:    3163133  MISS:     385308
cpu0_L1D LOAD      ACCESS:    2162550  HIT:    1777843  MISS:     384707
cpu0_L1D RFO       ACCESS:    1381010  HIT:    1380860  MISS:        150
cpu0_L1D PREFETCH  ACCESS:          0  HIT:          0  MISS:          0
cpu0_L1D WRITEBACK ACCESS:          0  HIT:          0  MISS:          0
cpu0_L2C TOTAL     ACCESS:     386325  HIT:     101562  MISS:     284763
cpu0_L2C LOAD      ACCESS:     384707  HIT:     100180  MISS:     284527
cpu0_L2C RFO       ACCESS:        150  HIT:          0  MISS:        150
cpu0_L2C PREFETCH  ACCESS:          0  HIT:          0  MISS:          0
cpu0_L2C WRITEBACK ACCESS:       1017  HIT:       1017  MISS:          0
LLC TOTAL     ACCESS:     285161  HIT:        463  MISS:     284698
LLC LOAD      ACCESS:     284527  HIT:        421  MISS:     284106
LLC RFO       ACCESS:        150  HIT:          0  MISS:        150
LLC PREFETCH  ACCESS:          0  HIT:          0  MISS:          0
LLC WRITEBACK ACCESS:        398  HIT:          0  MISS:        398
Heartbeat CPU 0 instructions: 68000001 cycles: 68705340 heartbeat IPC: 0.320769 cumulative IPC: 0.320255 (Simulation time: 0 hr 43 min 24 sec) 

Region of Interest Statistics
cpu0_DTLB TOTAL     ACCESS:    3418990  HIT:    3413132  MISS:       5858
cpu0_DTLB LOAD      ACCESS:    2836042  HIT:    2830185  MISS:       5857
cpu0_DTLB RFO       ACCESS:     582948  HIT:     582947  MISS:          1
cpu0_DTLB PREFETCH  ACCESS:          0  HIT:          0  MISS:          0
cpu0_DTLB WRITEBACK ACCESS:          0  HIT:          0  MISS:          0
cpu0_ITLB TOTAL     ACCESS:    2057102  HIT:    2057102  MISS:          0
cpu0_ITLB LOAD      ACCESS:    2057102  HIT:    2057102  MISS:          0
cpu0_ITLB RFO       ACCESS:          0  HIT:          0  MISS:          0
cpu0_ITLB PREFETCH  ACCESS:          0  HIT:          0  MISS:          0
cpu0_ITLB WRITEBACK ACCESS:          0  HIT:          0  MISS:          0
cpu0_STLB TOTAL     ACCESS:       5858  HIT:        389  MISS:       5469
cpu0_STLB LOAD      ACCESS:       5857  HIT:        389  MISS:       5468
cpu0_STLB RFO       ACCESS:          1  HIT:          0  MISS:          1
cpu0_STLB PREFETCH  ACCESS:          0  HIT:          0  MISS:          0
cpu0_STLB WRITEBACK ACCESS:          0  HIT:          0  MISS:          0
cpu0_L1D TOTAL     ACCESS:    3992102  HIT:    3558680  MISS:     433422
cpu0_L1D LOAD      ACCESS:    2433037  HIT:    2000293  MISS:     432744
cpu0_L1D RFO       ACCESS:    1553596  HIT:    1553413  MISS:        183
cpu0_L1D PREFETCH  ACCESS:          0  HIT:          0  MISS:          0
cpu0_L1D WRITEBACK ACCESS:          0  HIT:          0  MISS:          0
cpu0_L2C TOTAL     ACCESS:     434567  HIT:     114192  MISS:     320375
cpu0_L2C LOAD      ACCESS:     432744  HIT:     112648  MISS:     320096
cpu0_L2C RFO       ACCESS:        183  HIT:          0  MISS:        183
cpu0_L2C PREFETCH  ACCESS:          0  HIT:          0  MISS:          0
cpu0_L2C WRITEBACK ACCESS:       1145  HIT:       1145  MISS:          0
LLC TOTAL     ACCESS:     320820  HIT:        517  MISS:     320303
LLC LOAD      ACCESS:     320096  HIT:        471  MISS:     319625
LLC RFO       ACCESS:        183  HIT:          0  MISS:        183
LLC PREFETCH  ACCESS:          0  HIT:          0  MISS:          0
LLC WRITEBACK ACCESS:        445  HIT:          0  MISS:        445
Heartbeat CPU 0 instructions: 70000000 cycles: 74913329 heartbeat IPC: 0.322165 cumulative IPC: 0.320445 (Simulation time: 0 hr 45 min 13 sec) 

Region of Interest Statistics
cpu0_DTLB TOTAL     ACCESS:    3799051  HIT:    3792625  MISS:       6426
cpu0_DTLB LOAD      ACCESS:    3151252  HIT:    3144828  MISS:       6424
cpu0_DTLB RFO       ACCESS:     647799  HIT:     647797  MISS:          2
cpu0_DTLB PREFETCH  ACCESS:          0  HIT:          0  MISS:          0
cpu0_DTLB WRITEBACK ACCESS:          0  HIT:          0  MISS:          0
cpu0_ITLB TOTAL     ACCESS:    2285683  HIT:    2285683  MISS:          0
cpu0_ITLB LOAD      ACCESS:    2285683  HIT:    2285683  MISS:          0
cpu0_ITLB RFO       ACCESS:          0  HIT:          0  MISS:          0
cpu0_ITLB PREFETCH  ACCESS:          0  HIT:          0  MISS:          0
cpu0_ITLB WRITEBACK ACCESS:          0  HIT:          0  MISS:          0
cpu0_STLB TOTAL     ACCESS:       6426  HIT:        398  MISS:       6028
cpu0_STLB LOAD      ACCESS:       6424  HIT:        398  MISS:       6026
cpu0_STLB RFO       ACCESS:          2  HIT:          0  MISS:          2
cpu0_STLB PREFETCH  ACCESS:          0  HIT:          0  MISS:          0
cpu0_STLB WRITEBACK ACCESS:          0  HIT:          0  MISS:          0
cpu0_L1D TOTAL     ACCESS:    4435861  HIT:    3954478  MISS:     481383
cpu0_L1D LOAD      ACCESS:    2703456  HIT:    2222807  MISS:     480649
cpu0_L1D RFO       ACCESS:    1726377  HIT:    1726161  MISS:        216
cpu0_L1D PREFETCH  ACCESS:          0  HIT:          0  MISS:          0
cpu0_L1D WRITEBACK ACCESS:          0  HIT:          0  MISS:          0
cpu0_L2C TOTAL     ACCESS:     482652  HIT:     126804  MISS:     355848
cpu0_L2C LOAD      ACCESS:     480649  HIT:     125116  MISS:     355533
cpu0_L2C RFO       ACCESS:        216  HIT:          0  MISS:        216
cpu0_L2C PREFETCH  ACCESS:          0  HIT:          0  MISS:          0
cpu0_L2C WRITEBACK ACCESS:       1269  HIT:       1269  MISS:          0
LLC TOTAL     ACCESS:     356328  HIT:        571  MISS:     355757
LLC LOAD      ACCESS:     355533  HIT:        523  MISS:     355010
LLC RFO       ACCESS:        216  HIT:          0  MISS:        216
LLC PREFETCH  ACCESS:          0  HIT:          0  MISS:          0
LLC WRITEBACK ACCESS:        480  HIT:          0  MISS:        480
Heartbeat CPU 0 instructions: 72000004 cycles: 81116115 heartbeat IPC: 0.322436 cumulative IPC: 0.320625 (Simulation time: 0 hr 47 min 1 sec) 

Region of Interest Statistics
cpu0_DTLB TOTAL     ACCESS:    4178850  HIT:    4171818  MISS:       7032
cpu0_DTLB LOAD      ACCESS:    3466316  HIT:    3459286  MISS:       7030
cpu0_DTLB RFO       ACCESS:     712534  HIT:     712532  MISS:          2
cpu0_DTLB PREFETCH  ACCESS:          0  HIT:          0  MISS:          0
cpu0_DTLB WRITEBACK ACCESS:          0  HIT:          0  MISS:          0
cpu0_ITLB TOTAL     ACCESS:    2514248  HIT:    2514248  MISS:          0
cpu0_ITLB LOAD      ACCESS:    2514248  HIT:    2514248  MISS:          0
cpu0_ITLB RFO       ACCESS:          0  HIT:          0  MISS:          0
cpu0_ITLB PREFETCH  ACCESS:          0  HIT:          0  MISS:          0
cpu0_ITLB WRITEBACK ACCESS:          0  HIT:          0  MISS:          0
cpu0_STLB TOTAL     ACCESS:       7032  HIT:        409  MISS:       6623
cpu0_STLB LOAD      ACCESS:       7030  HIT:        409  MISS:       6621
cpu0_STLB RFO       ACCESS:          2  HIT:          0  MISS:          2
cpu0_STLB PREFETCH  ACCESS:          0  HIT:          0  MISS:          0
cpu0_STLB WRITEBACK ACCESS:          0  HIT:          0  MISS:          0
cpu0_L1D TOTAL     ACCESS:    4879265  HIT:    4349654  MISS:     529611
cpu0_L1D LOAD      ACCESS:    2973758  HIT:    2444949  MISS:     528809
cpu0_L1D RFO       ACCESS:    1898884  HIT:    1898643  MISS:        241
cpu0_L1D PREFETCH  ACCESS:          0  HIT:          0  MISS:          0
cpu0_L1D WRITEBACK ACCESS:          0  HIT:          0  MISS:          0
cpu0_L2C TOTAL     ACCESS:     531010  HIT:     139538  MISS:     391472
cpu0_L2C LOAD      ACCESS:     528809  HIT:     137693  MISS:     391116
cpu0_L2C RFO       ACCESS:        241  HIT:          0  MISS:        241
cpu0_L2C PREFETCH  ACCESS:          0  HIT:          0  MISS:          0
cpu0_L2C WRITEBACK ACCESS:       1399  HIT:       1399  MISS:          0
LLC TOTAL     ACCESS:     391990  HIT:        633  MISS:     391357
LLC LOAD      ACCESS:     391116  HIT:        580  MISS:     390536
LLC RFO       ACCESS:        241  HIT:          0  MISS:        241
LLC PREFETCH  ACCESS:          0  HIT:          0  MISS:          0
LLC WRITEBACK ACCESS:        518  HIT:          0  MISS:        518
Heartbeat CPU 0 instructions: 74000000 cycles: 87353785 heartbeat IPC: 0.320632 cumulative IPC: 0.320625 (Simulation time: 0 hr 48 min 51 sec) 

Region of Interest Statistics
cpu0_DTLB TOTAL     ACCESS:    4558589  HIT:    4550910  MISS:       7679
cpu0_DTLB LOAD      ACCESS:    3781256  HIT:    3773579  MISS:       7677
cpu0_DTLB RFO       ACCESS:     777333  HIT:     777331  MISS:          2
cpu0_DTLB PREFETCH  ACCESS:          0  HIT:          0  MISS:          0
cpu0_DTLB WRITEBACK ACCESS:          0  HIT:          0  MISS:          0
cpu0_ITLB TOTAL     ACCESS:    2742795  HIT:    2742795  MISS:          0
cpu0_ITLB LOAD      ACCESS:    2742795  HIT:    2742795  MISS:          0
cpu0_ITLB RFO       ACCESS:          0  HIT:          0  MISS:          0
cpu0_ITLB PREFETCH  ACCESS:          0  HIT:          0  MISS:          0
cpu0_ITLB WRITEBACK ACCESS:          0  HIT:          0  MISS:          0
cpu0_STLB TOTAL     ACCESS:       7679  HIT:        441  MISS:       7238
cpu0_STLB LOAD      ACCESS:       7677  HIT:        441  MISS:       7236
cpu0_STLB RFO       ACCESS:          2  HIT:          0  MISS:          2
cpu0_STLB PREFETCH  ACCESS:          0  HIT:          0  MISS:          0
cpu0_STLB WRITEBACK ACCESS:          0  HIT:          0  MISS:          0
cpu0_L1D TOTAL     ACCESS:    5322714  HIT:    4744976  MISS:     577738
cpu0_L1D LOAD      ACCESS:    3243917  HIT:    2667066  MISS:     576851
cpu0_L1D RFO       ACCESS:    2071558  HIT:    2071297  MISS:        261
cpu0_L1D PREFETCH  ACCESS:          0  HIT:          0  MISS:          0
cpu0_L1D WRITEBACK ACCESS:          0  HIT:          0  MISS:          0
cpu0_L2C TOTAL     ACCESS:     579262  HIT:     152258  MISS:     427004
cpu0_L2C LOAD      ACCESS:     576851  HIT:     150239  MISS:     426612
cpu0_L2C RFO       ACCESS:        261  HIT:          0  MISS:        261
cpu0_L2C PREFETCH  ACCESS:          0  HIT:          0  MISS:          0
cpu0_L2C WRITEBACK ACCESS:       1524  HIT:       1524  MISS:          0
LLC TOTAL     ACCESS:     427577  HIT:        689  MISS:     426888
LLC LOAD      ACCESS:     426612  HIT:        630  MISS:     425982
LLC RFO       ACCESS:        261  HIT:          0  MISS:        261
LLC PREFETCH  ACCESS:          0  HIT:          0  MISS:          0
LLC WRITEBACK ACCESS:        573  HIT:          0  MISS:        573
Heartbeat CPU 0 instructions: 76000001 cycles: 93598728 heartbeat IPC: 0.320259 cumulative IPC: 0.320597 (Simulation time: 0 hr 50 min 43 sec) 

Region of Interest Statistics
cpu0_DTLB TOTAL     ACCESS:    4938540  HIT:    4930244  MISS:       8296
cpu0_DTLB LOAD      ACCESS:    4096438  HIT:    4088144  MISS:       8294
cpu0_DTLB RFO       ACCESS:     842102  HIT:     842100  MISS:          2
cpu0_DTLB PREFETCH  ACCESS:          0  HIT:          0  MISS:          0
cpu0_DTLB WRITEBACK ACCESS:          0  HIT:          0  MISS:          0
cpu0_ITLB TOTAL     ACCESS:    2971381  HIT:    2971381  MISS:          0
cpu0_ITLB LOAD      ACCESS:    2971381  HIT:    2971381  MISS:          0
cpu0_ITLB RFO       ACCESS:          0  HIT:          0  MISS:          0
cpu0_ITLB PREFETCH  ACCESS:          0  HIT:          0  MISS:          0
cpu0_ITLB WRITEBACK ACCESS:          0  HIT:          0  MISS:          0
cpu0_STLB TOTAL     ACCESS:       8296  HIT:        472  MISS:       7824
cpu0_STLB LOAD      ACCESS:       8294  HIT:        472  MISS:       7822
cpu0_STLB RFO       ACCESS:          2  HIT:          0  MISS:          2
cpu0_STLB PREFETCH  ACCESS:          0  HIT:          0  MISS:          0
cpu0_STLB WRITEBACK ACCESS:          0  HIT:          0  MISS:          0
cpu0_L1D TOTAL     ACCESS:    5766360  HIT:    5140474  MISS:     625886
cpu0_L1D LOAD      ACCESS:    3514393  HIT:    2889436  MISS:     624957
cpu0_L1D RFO       ACCESS:    2244142  HIT:    2243881  MISS:        261
cpu0_L1D PREFETCH  ACCESS:          0  HIT:          0  MISS:          0
cpu0_L1D WRITEBACK ACCESS:          0  HIT:          0  MISS:          0
cpu0_L2C TOTAL     ACCESS:     627539  HIT:     164928  MISS:     462611
cpu0_L2C LOAD      ACCESS:     624957  HIT:     162751  MISS:     462206
cpu0_L2C RFO       ACCESS:        261  HIT:          0  MISS:        261
cpu0_L2C PREFETCH  ACCESS:          0  HIT:          0  MISS:          0
cpu0_L2C WRITEBACK ACCESS:       1653  HIT:       1653  MISS:          0
LLC TOTAL     ACCESS:     463222  HIT:        733  MISS:     462489
LLC LOAD      ACCESS:     462206  HIT:        669  MISS:     461537
LLC RFO       ACCESS:        261  HIT:          0  MISS:        261
LLC PREFETCH  ACCESS:          0  HIT:          0  MISS:          0
LLC WRITEBACK ACCESS:        611  HIT:          0  MISS:        611
Heartbeat CPU 0 instructions: 78000001 cycles: 99822064 heartbeat IPC: 0.321371 cumulative IPC: 0.320652 (Simulation time: 0 hr 52 min 32 sec) 

Region of Interest Statistics
cpu0_DTLB TOTAL     ACCESS:    5318467  HIT:    5309576  MISS:       8891
cpu0_DTLB LOAD      ACCESS:    4411544  HIT:    4402655  MISS:       8889
cpu0_DTLB RFO       ACCESS:     906923  HIT:     906921  MISS:          2
cpu0_DTLB PREFETCH  ACCESS:          0  HIT:          0  MISS:          0
cpu0_DTLB WRITEBACK ACCESS:          0  HIT:          0  MISS:          0
cpu0_ITLB TOTAL     ACCESS:    3199939  HIT:    3199939  MISS:          0
cpu0_ITLB LOAD      ACCESS:    3199939  HIT:    3199939  MISS:          0
cpu0_ITLB RFO       ACCESS:          0  HIT:          0  MISS:          0
cpu0_ITLB PREFETCH  ACCESS:          0  HIT:          0  MISS:          0
cpu0_ITLB WRITEBACK ACCESS:          0  HIT:          0  MISS:          0
cpu0_STLB TOTAL     ACCESS:       8891  HIT:        488  MISS:       8403
cpu0_STLB LOAD      ACCESS:       8889  HIT:        488  MISS:       8401
cpu0_STLB RFO       ACCESS:          2  HIT:          0  MISS:          2
cpu0_STLB PREFETCH  ACCESS:          0  HIT:          0  MISS:          0
cpu0_STLB WRITEBACK ACCESS:          0  HIT:          0  MISS:          0
cpu0_L1D TOTAL     ACCESS:    6209971  HIT:    5536026  MISS:     673945
cpu0_L1D LOAD      ACCESS:    3784700  HIT:    3111736  MISS:     672964
cpu0_L1D RFO       ACCESS:    2416867  HIT:    2416595  MISS:        272
cpu0_L1D PREFETCH  ACCESS:          0  HIT:          0  MISS:          0
cpu0_L1D WRITEBACK ACCESS:          0  HIT:          0  MISS:          0
cpu0_L2C TOTAL     ACCESS:     675724  HIT:     177615  MISS:     498109
cpu0_L2C LOAD      ACCESS:     672964  HIT:     175280  MISS:     497684
cpu0_L2C RFO       ACCESS:        272  HIT:          0  MISS:        272
cpu0_L2C PREFETCH  ACCESS:          0  HIT:          0  MISS:          0
cpu0_L2C WRITEBACK ACCESS:       1779  HIT:       1779  MISS:          0
LLC TOTAL     ACCESS:     498767  HIT:        783  MISS:     497984
LLC LOAD      ACCESS:     497684  HIT:        716  MISS:     496968
LLC RFO       ACCESS:        272  HIT:          0  MISS:        272
LLC PREFETCH  ACCESS:          0  HIT:          0  MISS:          0
LLC WRITEBACK ACCESS:        658  HIT:          0  MISS:        658
Heartbeat CPU 0 instructions: 80000001 cycles: 106047338 heartbeat IPC: 0.321271 cumulative IPC: 0.320694 (Simulation time: 0 hr 54 min 21 sec) 

Region of Interest Statistics
cpu0_DTLB TOTAL     ACCESS:    5698225  HIT:    5688670  MISS:       9555
cpu0_DTLB LOAD      ACCESS:    4726583  HIT:    4717030  MISS:       9553
cpu0_DTLB RFO       ACCESS:     971642  HIT:     971640  MISS:          2
cpu0_DTLB PREFETCH  ACCESS:          0  HIT:          0  MISS:          0
cpu0_DTLB WRITEBACK ACCESS:          0  HIT:          0  MISS:          0
cpu0_ITLB TOTAL     ACCESS:    3428502  HIT:    3428502  MISS:          0
cpu0_ITLB LOAD      ACCESS:    3428502  HIT:    3428502  MISS:          0
cpu0_ITLB RFO       ACCESS:          0  HIT:          0  MISS:          0
cpu0_ITLB PREFETCH  ACCESS:          0  HIT:          0  MISS:          0
cpu0_ITLB WRITEBACK ACCESS:          0  HIT:          0  MISS:          0
cpu0_STLB TOTAL     ACCESS:       9555  HIT:        519  MISS:       9036
cpu0_STLB LOAD      ACCESS:       9553  HIT:        519  MISS:       9034
cpu0_STLB RFO       ACCESS:          2  HIT:          0  MISS:          2
cpu0_STLB PREFETCH  ACCESS:          0  HIT:          0  MISS:          0
cpu0_STLB WRITEBACK ACCESS:          0  HIT:          0  MISS:          0
cpu0_L1D TOTAL     ACCESS:    6653462  HIT:    5931269  MISS:     722193
cpu0_L1D LOAD      ACCESS:    4055078  HIT:    3333940  MISS:     721138
cpu0_L1D RFO       ACCESS:    2589347  HIT:    2589075  MISS:        272
cpu0_L1D PREFETCH  ACCESS:          0  HIT:          0  MISS:          0
cpu0_L1D WRITEBACK ACCESS:          0  HIT:          0  MISS:          0
cpu0_L2C TOTAL     ACCESS:     724102  HIT:     190345  MISS:     533757
cpu0_L2C LOAD      ACCESS:     721138  HIT:     187821  MISS:     533317
cpu0_L2C RFO       ACCESS:        272  HIT:          0  MISS:        272
cpu0_L2C PREFETCH  ACCESS:          0  HIT:          0  MISS:          0
cpu0_L2C WRITEBACK ACCESS:       1909  HIT:       1909  MISS:          0
LLC TOTAL     ACCESS:     534463  HIT:        832  MISS:     533631
LLC LOAD      ACCESS:     533317  HIT:        760  MISS:     532557
LLC RFO       ACCESS:        272  HIT:          0  MISS:        272
LLC PREFETCH  ACCESS:          0  HIT:          0  MISS:          0
LLC WRITEBACK ACCESS:        706  HIT:          0  MISS:        706
Heartbeat CPU 0 instructions: 82000002 cycles: 112285380 heartbeat IPC: 0.320614 cumulative IPC: 0.320689 (Simulation time: 0 hr 56 min 6 sec) 

Region of Interest Statistics
cpu0_DTLB TOTAL     ACCESS:    6077931  HIT:    6067707  MISS:      10224
cpu0_DTLB LOAD      ACCESS:    5041503  HIT:    5031282  MISS:      10221
cpu0_DTLB RFO       ACCESS:    1036428  HIT:    1036425  MISS:          3
cpu0_DTLB PREFETCH  ACCESS:          0  HIT:          0  MISS:          0
cpu0_DTLB WRITEBACK ACCESS:          0  HIT:          0  MISS:          0
cpu0_ITLB TOTAL     ACCESS:    3657044  HIT:    3657044  MISS:          0
cpu0_ITLB LOAD      ACCESS:    3657044  HIT:    3657044  MISS:          0
cpu0_ITLB RFO       ACCESS:          0  HIT:          0  MISS:          0
cpu0_ITLB PREFETCH  ACCESS:          0  HIT:          0  MISS:          0
cpu0_ITLB WRITEBACK ACCESS:          0  HIT:          0  MISS:          0
cpu0_STLB TOTAL     ACCESS:      10224  HIT:        541  MISS:       9683
cpu0_STLB LOAD      ACCESS:      10221  HIT:        541  MISS:       9680
cpu0_STLB RFO       ACCESS:          3  HIT:          0  MISS:          3
cpu0_STLB PREFETCH  ACCESS:          0  HIT:          0  MISS:          0
cpu0_STLB WRITEBACK ACCESS:          0  HIT:          0  MISS:          0
cpu0_L1D TOTAL     ACCESS:    7096934  HIT:    6326638  MISS:     770296
cpu0_L1D LOAD      ACCESS:    4325234  HIT:    3556075  MISS:     769159
cpu0_L1D RFO       ACCESS:    2762016  HIT:    2761740  MISS:        276
cpu0_L1D PREFETCH  ACCESS:          0  HIT:          0  MISS:          0
cpu0_L1D WRITEBACK ACCESS:          0  HIT:          0  MISS:          0
cpu0_L2C TOTAL     ACCESS:     772330  HIT:     203004  MISS:     569326
cpu0_L2C LOAD      ACCESS:     769159  HIT:     200291  MISS:     568868
cpu0_L2C RFO       ACCESS:        276  HIT:          0  MISS:        276
cpu0_L2C PREFETCH  ACCESS:          0  HIT:          0  MISS:          0
cpu0_L2C WRITEBACK ACCESS:       2034  HIT:       2034  MISS:          0
LLC TOTAL     ACCESS:     570092  HIT:        897  MISS:     569195
LLC LOAD      ACCESS:     568868  HIT:        818  MISS:     568050
LLC RFO       ACCESS:        276  HIT:          0  MISS:        276
LLC PREFETCH  ACCESS:          0  HIT:          0  MISS:          0
LLC WRITEBACK ACCESS:        766  HIT:          0  MISS:        766
Heartbeat CPU 0 instructions: 84000002 cycles: 118535999 heartbeat IPC: 0.319968 cumulative IPC: 0.320646 (Simulation time: 0 hr 57 min 50 sec) 

Region of Interest Statistics
cpu0_DTLB TOTAL     ACCESS:    6457859  HIT:    6446978  MISS:      10881
cpu0_DTLB LOAD      ACCESS:    5356689  HIT:    5345811  MISS:      10878
cpu0_DTLB RFO       ACCESS:    1101170  HIT:    1101167  MISS:          3
cpu0_DTLB PREFETCH  ACCESS:          0  HIT:          0  MISS:          0
cpu0_DTLB WRITEBACK ACCESS:          0  HIT:          0  MISS:          0
cpu0_ITLB TOTAL     ACCESS:    3885632  HIT:    3885632  MISS:          0
cpu0_ITLB LOAD      ACCESS:    3885632  HIT:    3885632  MISS:          0
cpu0_ITLB RFO       ACCESS:          0  HIT:          0  MISS:          0
cpu0_ITLB PREFETCH  ACCESS:          0  HIT:          0  MISS:          0
cpu0_ITLB WRITEBACK ACCESS:          0  HIT:          0  MISS:          0
cpu0_STLB TOTAL     ACCESS:      10881  HIT:        581  MISS:      10300
cpu0_STLB LOAD      ACCESS:      10878  HIT:        581  MISS:      10297
cpu0_STLB RFO       ACCESS:          3  HIT:          0  MISS:          3
cpu0_STLB PREFETCH  ACCESS:          0  HIT:          0  MISS:          0
cpu0_STLB WRITEBACK ACCESS:          0  HIT:          0  MISS:          0
cpu0_L1D TOTAL     ACCESS:    7540522  HIT:    6721957  MISS:     818565
cpu0_L1D LOAD      ACCESS:    4595677  HIT:    3778328  MISS:     817349
cpu0_L1D RFO       ACCESS:    2934544  HIT:    2934248  MISS:        296
cpu0_L1D PREFETCH  ACCESS:          0  HIT:          0  MISS:          0
cpu0_L1D WRITEBACK ACCESS:          0  HIT:          0  MISS:          0
cpu0_L2C TOTAL     ACCESS:     820726  HIT:     215736  MISS:     604990
cpu0_L2C LOAD      ACCESS:     817349  HIT:     212847  MISS:     604502
cpu0_L2C RFO       ACCESS:        296  HIT:          0  MISS:        296
cpu0_L2C PREFETCH  ACCESS:          0  HIT:          0  MISS:          0
cpu0_L2C WRITEBACK ACCESS:       2161  HIT:       2161  MISS:          0
LLC TOTAL     ACCESS:     605807  HIT:        946  MISS:     604861
LLC LOAD      ACCESS:     604502  HIT:        862  MISS:     603640
LLC RFO       ACCESS:        296  HIT:          0  MISS:        296
LLC PREFETCH  ACCESS:          0  HIT:          0  MISS:          0
LLC WRITEBACK ACCESS:        817  HIT:          0  MISS:        817
Heartbeat CPU 0 instructions: 86000002 cycles: 124753833 heartbeat IPC: 0.321655 cumulative IPC: 0.320702 (Simulation time: 0 hr 59 min 36 sec) 

Region of Interest Statistics
cpu0_DTLB TOTAL     ACCESS:    6837884  HIT:    6826361  MISS:      11523
cpu0_DTLB LOAD      ACCESS:    5671875  HIT:    5660355  MISS:      11520
cpu0_DTLB RFO       ACCESS:    1166009  HIT:    1166006  MISS:          3
cpu0_DTLB PREFETCH  ACCESS:          0  HIT:          0  MISS:          0
cpu0_DTLB WRITEBACK ACCESS:          0  HIT:          0  MISS:          0
cpu0_ITLB TOTAL     ACCESS:    4114201  HIT:    4114201  MISS:          0
cpu0_ITLB LOAD      ACCESS:    4114201  HIT:    4114201  MISS:          0
cpu0_ITLB RFO       ACCESS:          0  HIT:          0  MISS:          0
cpu0_ITLB PREFETCH  ACCESS:          0  HIT:          0  MISS:          0
cpu0_ITLB WRITEBACK ACCESS:          0  HIT:          0  MISS:          0
cpu0_STLB TOTAL     ACCESS:      11523  HIT:        646  MISS:      10877
cpu0_STLB LOAD      ACCESS:      11520  HIT:        646  MISS:      10874
cpu0_STLB RFO       ACCESS:          3  HIT:          0  MISS:          3
cpu0_STLB PREFETCH  ACCESS:          0  HIT:          0  MISS:          0
cpu0_STLB WRITEBACK ACCESS:          0  HIT:          0  MISS:          0
cpu0_L1D TOTAL     ACCESS:    7984266  HIT:    7117577  MISS:     866689
cpu0_L1D LOAD      ACCESS:    4866069  HIT:    4000636  MISS:     865433
cpu0_L1D RFO       ACCESS:    3107319  HIT:    3107023  MISS:        296
cpu0_L1D PREFETCH  ACCESS:          0  HIT:          0  MISS:          0
cpu0_L1D WRITEBACK ACCESS:          0  HIT:          0  MISS:          0
cpu0_L2C TOTAL     ACCESS:     868978  HIT:     228500  MISS:     640478
cpu0_L2C LOAD      ACCESS:     865433  HIT:     225453  MISS:     639980
cpu0_L2C RFO       ACCESS:        296  HIT:          0  MISS:        296
cpu0_L2C PREFETCH  ACCESS:          0  HIT:          0  MISS:          0
cpu0_L2C WRITEBACK ACCESS:       2289  HIT:       2289  MISS:          0
LLC TOTAL     ACCESS:     641343  HIT:       1001  MISS:     640342
LLC LOAD      ACCESS:     639980  HIT:        911  MISS:     639069
LLC RFO       ACCESS:        296  HIT:          0  MISS:        296
LLC PREFETCH  ACCESS:          0  HIT:          0  MISS:          0
LLC WRITEBACK ACCESS:        865  HIT:          0  MISS:        865
Heartbeat CPU 0 instructions: 88000000 cycles: 130992658 heartbeat IPC: 0.320573 cumulative IPC: 0.320695 (Simulation time: 1 hr 1 min 24 sec) 

Region of Interest Statistics
cpu0_DTLB TOTAL     ACCESS:    7217899  HIT:    7205734  MISS:      12165
cpu0_DTLB LOAD      ACCESS:    5987138  HIT:    5974976  MISS:      12162
cpu0_DTLB RFO       ACCESS:    1230761  HIT:    1230758  MISS:          3
cpu0_DTLB PREFETCH  ACCESS:          0  HIT:          0  MISS:          0
cpu0_DTLB WRITEBACK ACCESS:          0  HIT:          0  MISS:          0
cpu0_ITLB TOTAL     ACCESS:    4342795  HIT:    4342795  MISS:          0
cpu0_ITLB LOAD      ACCESS:    4342795  HIT:    4342795  MISS:          0
cpu0_ITLB RFO       ACCESS:          0  HIT:          0  MISS:          0
cpu0_ITLB PREFETCH  ACCESS:          0  HIT:          0  MISS:          0
cpu0_ITLB WRITEBACK ACCESS:          0  HIT:          0  MISS:          0
cpu0_STLB TOTAL     ACCESS:      12165  HIT:        700  MISS:      11465
cpu0_STLB LOAD      ACCESS:      12162  HIT:        700  MISS:      11462
cpu0_STLB RFO       ACCESS:          3  HIT:          0  MISS:          3
cpu0_STLB PREFETCH  ACCESS:          0  HIT:          0  MISS:          0
cpu0_STLB WRITEBACK ACCESS:          0  HIT:          0  MISS:          0
cpu0_L1D TOTAL     ACCESS:    8427980  HIT:    7513070  MISS:     914910
cpu0_L1D LOAD      ACCESS:    5136637  HIT:    4223031  MISS:     913606
cpu0_L1D RFO       ACCESS:    3279877  HIT:    3279581  MISS:        296
cpu0_L1D PREFETCH  ACCESS:          0  HIT:          0  MISS:          0
cpu0_L1D WRITEBACK ACCESS:          0  HIT:          0  MISS:          0
cpu0_L2C TOTAL     ACCESS:     917324  HIT:     241210  MISS:     676114
cpu0_L2C LOAD      ACCESS:     913606  HIT:     238003  MISS:     675603
cpu0_L2C RFO       ACCESS:        296  HIT:          0  MISS:        296
cpu0_L2C PREFETCH  ACCESS:          0  HIT:          0  MISS:          0
cpu0_L2C WRITEBACK ACCESS:       2414  HIT:       2414  MISS:          0
LLC TOTAL     ACCESS:     677036  HIT:       1054  MISS:     675982
LLC LOAD      ACCESS:     675603  HIT:        955  MISS:     674648
LLC RFO       ACCESS:        296  HIT:          0  MISS:        296
LLC PREFETCH  ACCESS:          0  HIT:          0  MISS:          0
LLC WRITEBACK ACCESS:        922  HIT:          0  MISS:        922
Heartbeat CPU 0 instructions: 90000000 cycles: 137220521 heartbeat IPC: 0.321137 cumulative IPC: 0.320717 (Simulation time: 1 hr 3 min 4 sec) 

Region of Interest Statistics
cpu0_DTLB TOTAL     ACCESS:    7597910  HIT:    7585100  MISS:      12810
cpu0_DTLB LOAD      ACCESS:    6302316  HIT:    6289509  MISS:      12807
cpu0_DTLB RFO       ACCESS:    1295594  HIT:    1295591  MISS:          3
cpu0_DTLB PREFETCH  ACCESS:          0  HIT:          0  MISS:          0
cpu0_DTLB WRITEBACK ACCESS:          0  HIT:          0  MISS:          0
cpu0_ITLB TOTAL     ACCESS:    4571365  HIT:    4571365  MISS:          0
cpu0_ITLB LOAD      ACCESS:    4571365  HIT:    4571365  MISS:          0
cpu0_ITLB RFO       ACCESS:          0  HIT:          0  MISS:          0
cpu0_ITLB PREFETCH  ACCESS:          0  HIT:          0  MISS:          0
cpu0_ITLB WRITEBACK ACCESS:          0  HIT:          0  MISS:          0
cpu0_STLB TOTAL     ACCESS:      12810  HIT:        758  MISS:      12052
cpu0_STLB LOAD      ACCESS:      12807  HIT:        758  MISS:      12049
cpu0_STLB RFO       ACCESS:          3  HIT:          0  MISS:          3
cpu0_STLB PREFETCH  ACCESS:          0  HIT:          0  MISS:          0
cpu0_STLB WRITEBACK ACCESS:          0  HIT:          0  MISS:          0
cpu0_L1D TOTAL     ACCESS:    8871652  HIT:    7908664  MISS:     962988
cpu0_L1D LOAD      ACCESS:    5406951  HIT:    4445314  MISS:     961637
cpu0_L1D RFO       ACCESS:    3452648  HIT:    3452352  MISS:        296
cpu0_L1D PREFETCH  ACCESS:          0  HIT:          0  MISS:          0
cpu0_L1D WRITEBACK ACCESS:          0  HIT:          0  MISS:          0
cpu0_L2C TOTAL     ACCESS:     965528  HIT:     253920  MISS:     711608
cpu0_L2C LOAD      ACCESS:     961637  HIT:     250552  MISS:     711085
cpu0_L2C RFO       ACCESS:        296  HIT:          0  MISS:        296
cpu0_L2C PREFETCH  ACCESS:          0  HIT:          0  MISS:          0
cpu0_L2C WRITEBACK ACCESS:       2540  HIT:       2540  MISS:          0
LLC TOTAL     ACCESS:     712571  HIT:       1099  MISS:     711472
LLC LOAD      ACCESS:     711085  HIT:        996  MISS:     710089
LLC RFO       ACCESS:        296  HIT:          0  MISS:        296
LLC PREFETCH  ACCESS:          0  HIT:          0  MISS:          0
LLC WRITEBACK ACCESS:        963  HIT:          0  MISS:        963
Heartbeat CPU 0 instructions: 92000000 cycles: 143453698 heartbeat IPC: 0.320864 cumulative IPC: 0.320724 (Simulation time: 1 hr 4 min 50 sec) 

Region of Interest Statistics
cpu0_DTLB TOTAL     ACCESS:    7977988  HIT:    7964539  MISS:      13449
cpu0_DTLB LOAD      ACCESS:    6617637  HIT:    6604192  MISS:      13445
cpu0_DTLB RFO       ACCESS:    1360351  HIT:    1360347  MISS:          4
cpu0_DTLB PREFETCH  ACCESS:          0  HIT:          0  MISS:          0
cpu0_DTLB WRITEBACK ACCESS:          0  HIT:          0  MISS:          0
cpu0_ITLB TOTAL     ACCESS:    4799962  HIT:    4799962  MISS:          0
cpu0_ITLB LOAD      ACCESS:    4799962  HIT:    4799962  MISS:          0
cpu0_ITLB RFO       ACCESS:          0  HIT:          0  MISS:          0
cpu0_ITLB PREFETCH  ACCESS:          0  HIT:          0  MISS:          0
cpu0_ITLB WRITEBACK ACCESS:          0  HIT:          0  MISS:          0
cpu0_STLB TOTAL     ACCESS:      13449  HIT:        810  MISS:      12639
cpu0_STLB LOAD      ACCESS:      13445  HIT:        810  MISS:      12635
cpu0_STLB RFO       ACCESS:          4  HIT:          0  MISS:          4
cpu0_STLB PREFETCH  ACCESS:          0  HIT:          0  MISS:          0
cpu0_STLB WRITEBACK ACCESS:          0  HIT:          0  MISS:          0
cpu0_L1D TOTAL     ACCESS:    9315395  HIT:    8304121  MISS:    1011274
cpu0_L1D LOAD      ACCESS:    5677537  HIT:    4667660  MISS:    1009877
cpu0_L1D RFO       ACCESS:    3625218  HIT:    3624919  MISS:        299
cpu0_L1D PREFETCH  ACCESS:          0  HIT:          0  MISS:          0
cpu0_L1D WRITEBACK ACCESS:          0  HIT:          0  MISS:          0
cpu0_L2C TOTAL     ACCESS:    1013941  HIT:     266692  MISS:     747249
cpu0_L2C LOAD      ACCESS:    1009877  HIT:     263162  MISS:     746715
cpu0_L2C RFO       ACCESS:        299  HIT:          0  MISS:        299
cpu0_L2C PREFETCH  ACCESS:          0  HIT:          0  MISS:          0
cpu0_L2C WRITEBACK ACCESS:       2667  HIT:       2667  MISS:          0
LLC TOTAL     ACCESS:     748260  HIT:       1151  MISS:     747109
LLC LOAD      ACCESS:     746715  HIT:       1044  MISS:     745671
LLC RFO       ACCESS:        299  HIT:          0  MISS:        299
LLC PREFETCH  ACCESS:          0  HIT:          0  MISS:          0
LLC WRITEBACK ACCESS:       1011  HIT:          0  MISS:       1011
Heartbeat CPU 0 instructions: 94000003 cycles: 149659493 heartbeat IPC: 0.32228 cumulative IPC: 0.320795 (Simulation time: 1 hr 6 min 40 sec) 

Region of Interest Statistics
cpu0_DTLB TOTAL     ACCESS:    8357964  HIT:    8343851  MISS:      14113
cpu0_DTLB LOAD      ACCESS:    6932772  HIT:    6918663  MISS:      14109
cpu0_DTLB RFO       ACCESS:    1425192  HIT:    1425188  MISS:          4
cpu0_DTLB PREFETCH  ACCESS:          0  HIT:          0  MISS:          0
cpu0_DTLB WRITEBACK ACCESS:          0  HIT:          0  MISS:          0
cpu0_ITLB TOTAL     ACCESS:    5028541  HIT:    5028541  MISS:          0
cpu0_ITLB LOAD      ACCESS:    5028541  HIT:    5028541  MISS:          0
cpu0_ITLB RFO       ACCESS:          0  HIT:          0  MISS:          0
cpu0_ITLB PREFETCH  ACCESS:          0  HIT:          0  MISS:          0
cpu0_ITLB WRITEBACK ACCESS:          0  HIT:          0  MISS:          0
cpu0_STLB TOTAL     ACCESS:      14113  HIT:        885  MISS:      13228
cpu0_STLB LOAD      ACCESS:      14109  HIT:        885  MISS:      13224
cpu0_STLB RFO       ACCESS:          4  HIT:          0  MISS:          4
cpu0_STLB PREFETCH  ACCESS:          0  HIT:          0  MISS:          0
cpu0_STLB WRITEBACK ACCESS:          0  HIT:          0  MISS:          0
cpu0_L1D TOTAL     ACCESS:    9759067  HIT:    8699599  MISS:    1059468
cpu0_L1D LOAD      ACCESS:    5947831  HIT:    4889859  MISS:    1057972
cpu0_L1D RFO       ACCESS:    3798007  HIT:    3797674  MISS:        333
cpu0_L1D PREFETCH  ACCESS:          0  HIT:          0  MISS:          0
cpu0_L1D WRITEBACK ACCESS:          0  HIT:          0  MISS:          0
cpu0_L2C TOTAL     ACCESS:    1062262  HIT:     279525  MISS:     782737
cpu0_L2C LOAD      ACCESS:    1057972  HIT:     275814  MISS:     782158
cpu0_L2C RFO       ACCESS:        333  HIT:          0  MISS:        333
cpu0_L2C PREFETCH  ACCESS:          0  HIT:          0  MISS:          0
cpu0_L2C WRITEBACK ACCESS:       2794  HIT:       2794  MISS:          0
LLC TOTAL     ACCESS:     783793  HIT:       1199  MISS:     782594
LLC LOAD      ACCESS:     782158  HIT:       1086  MISS:     781072
LLC RFO       ACCESS:        333  HIT:          0  MISS:        333
LLC PREFETCH  ACCESS:          0  HIT:          0  MISS:          0
LLC WRITEBACK ACCESS:       1056  HIT:          0  MISS:       1056
Heartbeat CPU 0 instructions: 96000001 cycles: 155902958 heartbeat IPC: 0.320335 cumulative IPC: 0.320775 (Simulation time: 1 hr 8 min 30 sec) 

Region of Interest Statistics
cpu0_DTLB TOTAL     ACCESS:    8737800  HIT:    8723024  MISS:      14776
cpu0_DTLB LOAD      ACCESS:    7247871  HIT:    7233099  MISS:      14772
cpu0_DTLB RFO       ACCESS:    1489929  HIT:    1489925  MISS:          4
cpu0_DTLB PREFETCH  ACCESS:          0  HIT:          0  MISS:          0
cpu0_DTLB WRITEBACK ACCESS:          0  HIT:          0  MISS:          0
cpu0_ITLB TOTAL     ACCESS:    5257124  HIT:    5257124  MISS:          0
cpu0_ITLB LOAD      ACCESS:    5257124  HIT:    5257124  MISS:          0
cpu0_ITLB RFO       ACCESS:          0  HIT:          0  MISS:          0
cpu0_ITLB PREFETCH  ACCESS:          0  HIT:          0  MISS:          0
cpu0_ITLB WRITEBACK ACCESS:          0  HIT:          0  MISS:          0
cpu0_STLB TOTAL     ACCESS:      14776  HIT:        926  MISS:      13850
cpu0_STLB LOAD      ACCESS:      14772  HIT:        926  MISS:      13846
cpu0_STLB RFO       ACCESS:          4  HIT:          0  MISS:          4
cpu0_STLB PREFETCH  ACCESS:          0  HIT:          0  MISS:          0
cpu0_STLB WRITEBACK ACCESS:          0  HIT:          0  MISS:          0
cpu0_L1D TOTAL     ACCESS:   10202588  HIT:    9094834  MISS:    1107754
cpu0_L1D LOAD      ACCESS:    6218218  HIT:    5112068  MISS:    1106150
cpu0_L1D RFO       ACCESS:    3970519  HIT:    3970150  MISS:        369
cpu0_L1D PREFETCH  ACCESS:          0  HIT:          0  MISS:          0
cpu0_L1D WRITEBACK ACCESS:          0  HIT:          0  MISS:          0
cpu0_L2C TOTAL     ACCESS:    1110674  HIT:     292249  MISS:     818425
cpu0_L2C LOAD      ACCESS:    1106150  HIT:     288350  MISS:     817800
cpu0_L2C RFO       ACCESS:        369  HIT:          0  MISS:        369
cpu0_L2C PREFETCH  ACCESS:          0  HIT:          0  MISS:          0
cpu0_L2C WRITEBACK ACCESS:       2920  HIT:       2920  MISS:          0
LLC TOTAL     ACCESS:     819535  HIT:       1255  MISS:     818280
LLC LOAD      ACCESS:     817800  HIT:       1136  MISS:     816664
LLC RFO       ACCESS:        369  HIT:          0  MISS:        369
LLC PREFETCH  ACCESS:          0  HIT:          0  MISS:          0
LLC WRITEBACK ACCESS:       1110  HIT:          0  MISS:       1110
Heartbeat CPU 0 instructions: 98000000 cycles: 162125290 heartbeat IPC: 0.321423 cumulative IPC: 0.320802 (Simulation time: 1 hr 10 min 18 sec) 

Region of Interest Statistics
cpu0_DTLB TOTAL     ACCESS:    9117788  HIT:    9102361  MISS:      15427
cpu0_DTLB LOAD      ACCESS:    7563048  HIT:    7547626  MISS:      15422
cpu0_DTLB RFO       ACCESS:    1554740  HIT:    1554735  MISS:          5
cpu0_DTLB PREFETCH  ACCESS:          0  HIT:          0  MISS:          0
cpu0_DTLB WRITEBACK ACCESS:          0  HIT:          0  MISS:          0
cpu0_ITLB TOTAL     ACCESS:    5485698  HIT:    5485698  MISS:          0
cpu0_ITLB LOAD      ACCESS:    5485698  HIT:    5485698  MISS:          0
cpu0_ITLB RFO       ACCESS:          0  HIT:          0  MISS:          0
cpu0_ITLB PREFETCH  ACCESS:          0  HIT:          0  MISS:          0
cpu0_ITLB WRITEBACK ACCESS:          0  HIT:          0  MISS:          0
cpu0_STLB TOTAL     ACCESS:      15427  HIT:        969  MISS:      14458
cpu0_STLB LOAD      ACCESS:      15422  HIT:        969  MISS:      14453
cpu0_STLB RFO       ACCESS:          5  HIT:          0  MISS:          5
cpu0_STLB PREFETCH  ACCESS:          0  HIT:          0  MISS:          0
cpu0_STLB WRITEBACK ACCESS:          0  HIT:          0  MISS:          0
cpu0_L1D TOTAL     ACCESS:   10646266  HIT:    9490165  MISS:    1156101
cpu0_L1D LOAD      ACCESS:    6488539  HIT:    5334131  MISS:    1154408
cpu0_L1D RFO       ACCESS:    4143268  HIT:    4142878  MISS:        390
cpu0_L1D PREFETCH  ACCESS:          0  HIT:          0  MISS:          0
cpu0_L1D WRITEBACK ACCESS:          0  HIT:          0  MISS:          0
cpu0_L2C TOTAL     ACCESS:    1159146  HIT:     305183  MISS:     853963
cpu0_L2C LOAD      ACCESS:    1154408  HIT:     301107  MISS:     853301
cpu0_L2C RFO       ACCESS:        390  HIT:          0  MISS:        390
cpu0_L2C PREFETCH  ACCESS:          0  HIT:          0  MISS:          0
cpu0_L2C WRITEBACK ACCESS:       3045  HIT:       3045  MISS:          0
LLC TOTAL     ACCESS:     855116  HIT:       1316  MISS:     853800
LLC LOAD      ACCESS:     853301  HIT:       1189  MISS:     852112
LLC RFO       ACCESS:        390  HIT:          0  MISS:        390
LLC PREFETCH  ACCESS:          0  HIT:          0  MISS:          0
LLC WRITEBACK ACCESS:       1153  HIT:          0  MISS:       1153
Heartbeat CPU 0 instructions: 100000000 cycles: 168362798 heartbeat IPC: 0.320641 cumulative IPC: 0.320795 (Simulation time: 1 hr 12 min 8 sec) 

Region of Interest Statistics
cpu0_DTLB TOTAL     ACCESS:    9497883  HIT:    9481858  MISS:      16025
cpu0_DTLB LOAD      ACCESS:    7878383  HIT:    7862363  MISS:      16020
cpu0_DTLB RFO       ACCESS:    1619500  HIT:    1619495  MISS:          5
cpu0_DTLB PREFETCH  ACCESS:          0  HIT:          0  MISS:          0
cpu0_DTLB WRITEBACK ACCESS:          0  HIT:          0  MISS:          0
cpu0_ITLB TOTAL     ACCESS:    5714303  HIT:    5714303  MISS:          0
cpu0_ITLB LOAD      ACCESS:    5714303  HIT:    5714303  MISS:          0
cpu0_ITLB RFO       ACCESS:          0  HIT:          0  MISS:          0
cpu0_ITLB PREFETCH  ACCESS:          0  HIT:          0  MISS:          0
cpu0_ITLB WRITEBACK ACCESS:          0  HIT:          0  MISS:          0
cpu0_STLB TOTAL     ACCESS:      16025  HIT:        997  MISS:      15028
cpu0_STLB LOAD      ACCESS:      16020  HIT:        997  MISS:      15023
cpu0_STLB RFO       ACCESS:          5  HIT:          0  MISS:          5
cpu0_STLB PREFETCH  ACCESS:          0  HIT:          0  MISS:          0
cpu0_STLB WRITEBACK ACCESS:          0  HIT:          0  MISS:          0
cpu0_L1D TOTAL     ACCESS:   11089997  HIT:    9885773  MISS:    1204224
cpu0_L1D LOAD      ACCESS:    6759124  HIT:    5556628  MISS:    1202496
cpu0_L1D RFO       ACCESS:    4315844  HIT:    4315454  MISS:        390
cpu0_L1D PREFETCH  ACCESS:          0  HIT:          0  MISS:          0
cpu0_L1D WRITEBACK ACCESS:          0  HIT:          0  MISS:          0
cpu0_L2C TOTAL     ACCESS:    1207396  HIT:     317806  MISS:     889590
cpu0_L2C LOAD      ACCESS:    1202496  HIT:     313576  MISS:     888920
cpu0_L2C RFO       ACCESS:        390  HIT:          0  MISS:        390
cpu0_L2C PREFETCH  ACCESS:          0  HIT:          0  MISS:          0
cpu0_L2C WRITEBACK ACCESS:       3172  HIT:       3172  MISS:          0
LLC TOTAL     ACCESS:     890799  HIT:       1362  MISS:     889437
LLC LOAD      ACCESS:     888920  HIT:       1230  MISS:     887690
LLC RFO       ACCESS:        390  HIT:          0  MISS:        390
LLC PREFETCH  ACCESS:          0  HIT:          0  MISS:          0
LLC WRITEBACK ACCESS:       1209  HIT:          0  MISS:       1209
Heartbeat CPU 0 instructions: 102000000 cycles: 174619917 heartbeat IPC: 0.319636 cumulative IPC: 0.32075 (Simulation time: 1 hr 13 min 54 sec) 

Region of Interest Statistics
cpu0_DTLB TOTAL     ACCESS:    9877786  HIT:    9861056  MISS:      16730
cpu0_DTLB LOAD      ACCESS:    8193465  HIT:    8176740  MISS:      16725
cpu0_DTLB RFO       ACCESS:    1684321  HIT:    1684316  MISS:          5
cpu0_DTLB PREFETCH  ACCESS:          0  HIT:          0  MISS:          0
cpu0_DTLB WRITEBACK ACCESS:          0  HIT:          0  MISS:          0
cpu0_ITLB TOTAL     ACCESS:    5942860  HIT:    5942860  MISS:          0
cpu0_ITLB LOAD      ACCESS:    5942860  HIT:    5942860  MISS:          0
cpu0_ITLB RFO       ACCESS:          0  HIT:          0  MISS:          0
cpu0_ITLB PREFETCH  ACCESS:          0  HIT:          0  MISS:          0
cpu0_ITLB WRITEBACK ACCESS:          0  HIT:          0  MISS:          0
cpu0_STLB TOTAL     ACCESS:      16730  HIT:       1050  MISS:      15680
cpu0_STLB LOAD      ACCESS:      16725  HIT:       1050  MISS:      15675
cpu0_STLB RFO       ACCESS:          5  HIT:          0  MISS:          5
cpu0_STLB PREFETCH  ACCESS:          0  HIT:          0  MISS:          0
cpu0_STLB WRITEBACK ACCESS:          0  HIT:          0  MISS:          0
cpu0_L1D TOTAL     ACCESS:   11533701  HIT:   10281114  MISS:    1252587
cpu0_L1D LOAD      ACCESS:    7029428  HIT:    5778659  MISS:    1250769
cpu0_L1D RFO       ACCESS:    4488593  HIT:    4488186  MISS:        407
cpu0_L1D PREFETCH  ACCESS:          0  HIT:          0  MISS:          0
cpu0_L1D WRITEBACK ACCESS:          0  HIT:          0  MISS:          0
cpu0_L2C TOTAL     ACCESS:    1255886  HIT:     330623  MISS:     925263
cpu0_L2C LOAD      ACCESS:    1250769  HIT:     326208  MISS:     924561
cpu0_L2C RFO       ACCESS:        407  HIT:          0  MISS:        407
cpu0_L2C PREFETCH  ACCESS:          0  HIT:          0  MISS:          0
cpu0_L2C WRITEBACK ACCESS:       3299  HIT:       3299  MISS:          0
LLC TOTAL     ACCESS:     926517  HIT:       1416  MISS:     925101
LLC LOAD      ACCESS:     924561  HIT:       1279  MISS:     923282
LLC RFO       ACCESS:        407  HIT:          0  MISS:        407
LLC PREFETCH  ACCESS:          0  HIT:          0  MISS:          0
LLC WRITEBACK ACCESS:       1254  HIT:          0  MISS:       1254
Heartbeat CPU 0 instructions: 104000004 cycles: 180846097 heartbeat IPC: 0.321225 cumulative IPC: 0.320768 (Simulation time: 1 hr 15 min 38 sec) 

Region of Interest Statistics
cpu0_DTLB TOTAL     ACCESS:   10257615  HIT:   10240201  MISS:      17414
cpu0_DTLB LOAD      ACCESS:    8508573  HIT:    8491164  MISS:      17409
cpu0_DTLB RFO       ACCESS:    1749042  HIT:    1749037  MISS:          5
cpu0_DTLB PREFETCH  ACCESS:          0  HIT:          0  MISS:          0
cpu0_DTLB WRITEBACK ACCESS:          0  HIT:          0  MISS:          0
cpu0_ITLB TOTAL     ACCESS:    6171452  HIT:    6171452  MISS:          0
cpu0_ITLB LOAD      ACCESS:    6171452  HIT:    6171452  MISS:          0
cpu0_ITLB RFO       ACCESS:          0  HIT:          0  MISS:          0
cpu0_ITLB PREFETCH  ACCESS:          0  HIT:          0  MISS:          0
cpu0_ITLB WRITEBACK ACCESS:          0  HIT:          0  MISS:          0
cpu0_STLB TOTAL     ACCESS:      17414  HIT:       1124  MISS:      16290
cpu0_STLB LOAD      ACCESS:      17409  HIT:       1124  MISS:      16285
cpu0_STLB RFO       ACCESS:          5  HIT:          0  MISS:          5
cpu0_STLB PREFETCH  ACCESS:          0  HIT:          0  MISS:          0
cpu0_STLB WRITEBACK ACCESS:          0  HIT:          0  MISS:          0
cpu0_L1D TOTAL     ACCESS:   11977181  HIT:   10676281  MISS:    1300900
cpu0_L1D LOAD      ACCESS:    7299810  HIT:    6000803  MISS:    1299007
cpu0_L1D RFO       ACCESS:    4661081  HIT:    4660661  MISS:        420
cpu0_L1D PREFETCH  ACCESS:          0  HIT:          0  MISS:          0
cpu0_L1D WRITEBACK ACCESS:          0  HIT:          0  MISS:          0
cpu0_L2C TOTAL     ACCESS:    1304324  HIT:     343377  MISS:     960947
cpu0_L2C LOAD      ACCESS:    1299007  HIT:     338785  MISS:     960222
cpu0_L2C RFO       ACCESS:        420  HIT:          0  MISS:        420
cpu0_L2C PREFETCH  ACCESS:          0  HIT:          0  MISS:          0
cpu0_L2C WRITEBACK ACCESS:       3424  HIT:       3424  MISS:          0
LLC TOTAL     ACCESS:     962259  HIT:       1480  MISS:     960779
LLC LOAD      ACCESS:     960222  HIT:       1339  MISS:     958883
LLC RFO       ACCESS:        420  HIT:          0  MISS:        420
LLC PREFETCH  ACCESS:          0  HIT:          0  MISS:          0
LLC WRITEBACK ACCESS:       1312  HIT:          0  MISS:       1312
Heartbeat CPU 0 instructions: 106000004 cycles: 187052457 heartbeat IPC: 0.32225 cumulative IPC: 0.320821 (Simulation time: 1 hr 17 min 24 sec) 

Region of Interest Statistics
cpu0_DTLB TOTAL     ACCESS:   10637631  HIT:   10619602  MISS:      18029
cpu0_DTLB LOAD      ACCESS:    8823739  HIT:    8805715  MISS:      18024
cpu0_DTLB RFO       ACCESS:    1813892  HIT:    1813887  MISS:          5
cpu0_DTLB PREFETCH  ACCESS:          0  HIT:          0  MISS:          0
cpu0_DTLB WRITEBACK ACCESS:          0  HIT:          0  MISS:          0
cpu0_ITLB TOTAL     ACCESS:    6400026  HIT:    6400026  MISS:          0
cpu0_ITLB LOAD      ACCESS:    6400026  HIT:    6400026  MISS:          0
cpu0_ITLB RFO       ACCESS:          0  HIT:          0  MISS:          0
cpu0_ITLB PREFETCH  ACCESS:          0  HIT:          0  MISS:          0
cpu0_ITLB WRITEBACK ACCESS:          0  HIT:          0  MISS:          0
cpu0_STLB TOTAL     ACCESS:      18029  HIT:       1151  MISS:      16878
cpu0_STLB LOAD      ACCESS:      18024  HIT:       1151  MISS:      16873
cpu0_STLB RFO       ACCESS:          5  HIT:          0  MISS:          5
cpu0_STLB PREFETCH  ACCESS:          0  HIT:          0  MISS:          0
cpu0_STLB WRITEBACK ACCESS:          0  HIT:          0  MISS:          0
cpu0_L1D TOTAL     ACCESS:   12420995  HIT:   11071929  MISS:    1349066
cpu0_L1D LOAD      ACCESS:    7570228  HIT:    6223140  MISS:    1347088
cpu0_L1D RFO       ACCESS:    4833889  HIT:    4833446  MISS:        443
cpu0_L1D PREFETCH  ACCESS:          0  HIT:          0  MISS:          0
cpu0_L1D WRITEBACK ACCESS:          0  HIT:          0  MISS:          0
cpu0_L2C TOTAL     ACCESS:    1352615  HIT:     356190  MISS:     996425
cpu0_L2C LOAD      ACCESS:    1347088  HIT:     351422  MISS:     995666
cpu0_L2C RFO       ACCESS:        443  HIT:          0  MISS:        443
cpu0_L2C PREFETCH  ACCESS:          0  HIT:          0  MISS:          0
cpu0_L2C WRITEBACK ACCESS:       3549  HIT:       3549  MISS:          0
LLC TOTAL     ACCESS:     997784  HIT:       1534  MISS:     996250
LLC LOAD      ACCESS:     995666  HIT:       1384  MISS:     994282
LLC RFO       ACCESS:        443  HIT:          0  MISS:        443
LLC PREFETCH  ACCESS:          0  HIT:          0  MISS:          0
LLC WRITEBACK ACCESS:       1359  HIT:          0  MISS:       1359
Heartbeat CPU 0 instructions: 108000001 cycles: 193314143 heartbeat IPC: 0.319402 cumulative IPC: 0.320772 (Simulation time: 1 hr 19 min 10 sec) 

Region of Interest Statistics
cpu0_DTLB TOTAL     ACCESS:   11017418  HIT:   10998708  MISS:      18710
cpu0_DTLB LOAD      ACCESS:    9138804  HIT:    9120099  MISS:      18705
cpu0_DTLB RFO       ACCESS:    1878614  HIT:    1878609  MISS:          5
cpu0_DTLB PREFETCH  ACCESS:          0  HIT:          0  MISS:          0
cpu0_DTLB WRITEBACK ACCESS:          0  HIT:          0  MISS:          0
cpu0_ITLB TOTAL     ACCESS:    6628607  HIT:    6628607  MISS:          0
cpu0_ITLB LOAD      ACCESS:    6628607  HIT:    6628607  MISS:          0
cpu0_ITLB RFO       ACCESS:          0  HIT:          0  MISS:          0
cpu0_ITLB PREFETCH  ACCESS:          0  HIT:          0  MISS:          0
cpu0_ITLB WRITEBACK ACCESS:          0  HIT:          0  MISS:          0
cpu0_STLB TOTAL     ACCESS:      18710  HIT:       1202  MISS:      17508
cpu0_STLB LOAD      ACCESS:      18705  HIT:       1202  MISS:      17503
cpu0_STLB RFO       ACCESS:          5  HIT:          0  MISS:          5
cpu0_STLB PREFETCH  ACCESS:          0  HIT:          0  MISS:          0
cpu0_STLB WRITEBACK ACCESS:          0  HIT:          0  MISS:          0
cpu0_L1D TOTAL     ACCESS:   12864519  HIT:   11467211  MISS:    1397308
cpu0_L1D LOAD      ACCESS:    7840645  HIT:    6445383  MISS:    1395262
cpu0_L1D RFO       ACCESS:    5006366  HIT:    5005922  MISS:        444
cpu0_L1D PREFETCH  ACCESS:          0  HIT:          0  MISS:          0
cpu0_L1D WRITEBACK ACCESS:          0  HIT:          0  MISS:          0
cpu0_L2C TOTAL     ACCESS:    1400984  HIT:     368855  MISS:    1032129
cpu0_L2C LOAD      ACCESS:    1395262  HIT:     363906  MISS:    1031356
cpu0_L2C RFO       ACCESS:        444  HIT:          0  MISS:        444
cpu0_L2C PREFETCH  ACCESS:          0  HIT:          0  MISS:          0
cpu0_L2C WRITEBACK ACCESS:       3676  HIT:       3676  MISS:          0
LLC TOTAL     ACCESS:    1033534  HIT:       1609  MISS:    1031925
LLC LOAD      ACCESS:    1031356  HIT:       1452  MISS:    1029904
LLC RFO       ACCESS:        444  HIT:          0  MISS:        444
LLC PREFETCH  ACCESS:          0  HIT:          0  MISS:          0
LLC WRITEBACK ACCESS:       1405  HIT:          0  MISS:       1405
Heartbeat CPU 0 instructions: 110000000 cycles: 199563520 heartbeat IPC: 0.320032 cumulative IPC: 0.320747 (Simulation time: 1 hr 20 min 58 sec) 

Region of Interest Statistics
cpu0_DTLB TOTAL     ACCESS:   11397067  HIT:   11377599  MISS:      19468
cpu0_DTLB LOAD      ACCESS:    9453655  HIT:    9434193  MISS:      19462
cpu0_DTLB RFO       ACCESS:    1943412  HIT:    1943406  MISS:          6
cpu0_DTLB PREFETCH  ACCESS:          0  HIT:          0  MISS:          0
cpu0_DTLB WRITEBACK ACCESS:          0  HIT:          0  MISS:          0
cpu0_ITLB TOTAL     ACCESS:    6857142  HIT:    6857142  MISS:          0
cpu0_ITLB LOAD      ACCESS:    6857142  HIT:    6857142  MISS:          0
cpu0_ITLB RFO       ACCESS:          0  HIT:          0  MISS:          0
cpu0_ITLB PREFETCH  ACCESS:          0  HIT:          0  MISS:          0
cpu0_ITLB WRITEBACK ACCESS:          0  HIT:          0  MISS:          0
cpu0_STLB TOTAL     ACCESS:      19468  HIT:       1312  MISS:      18156
cpu0_STLB LOAD      ACCESS:      19462  HIT:       1312  MISS:      18150
cpu0_STLB RFO       ACCESS:          6  HIT:          0  MISS:          6
cpu0_STLB PREFETCH  ACCESS:          0  HIT:          0  MISS:          0
cpu0_STLB WRITEBACK ACCESS:          0  HIT:          0  MISS:          0
cpu0_L1D TOTAL     ACCESS:   13307898  HIT:   11862642  MISS:    1445256
cpu0_L1D LOAD      ACCESS:    8110699  HIT:    6667569  MISS:    1443130
cpu0_L1D RFO       ACCESS:    5179043  HIT:    5178584  MISS:        459
cpu0_L1D PREFETCH  ACCESS:          0  HIT:          0  MISS:          0
cpu0_L1D WRITEBACK ACCESS:          0  HIT:          0  MISS:          0
cpu0_L2C TOTAL     ACCESS:    1449060  HIT:     381431  MISS:    1067629
cpu0_L2C LOAD      ACCESS:    1443130  HIT:     376297  MISS:    1066833
cpu0_L2C RFO       ACCESS:        459  HIT:          0  MISS:        459
cpu0_L2C PREFETCH  ACCESS:          0  HIT:          0  MISS:          0
cpu0_L2C WRITEBACK ACCESS:       3804  HIT:       3804  MISS:          0
LLC TOTAL     ACCESS:    1069078  HIT:       1663  MISS:    1067415
LLC LOAD      ACCESS:    1066833  HIT:       1502  MISS:    1065331
LLC RFO       ACCESS:        459  HIT:          0  MISS:        459
LLC PREFETCH  ACCESS:          0  HIT:          0  MISS:          0
LLC WRITEBACK ACCESS:       1449  HIT:          0  MISS:       1449
Heartbeat CPU 0 instructions: 112000004 cycles: 205793368 heartbeat IPC: 0.321036 cumulative IPC: 0.320756 (Simulation time: 1 hr 22 min 48 sec) 

Region of Interest Statistics
cpu0_DTLB TOTAL     ACCESS:   11776959  HIT:   11756899  MISS:      20060
cpu0_DTLB LOAD      ACCESS:    9768766  HIT:    9748712  MISS:      20054
cpu0_DTLB RFO       ACCESS:    2008193  HIT:    2008187  MISS:          6
cpu0_DTLB PREFETCH  ACCESS:          0  HIT:          0  MISS:          0
cpu0_DTLB WRITEBACK ACCESS:          0  HIT:          0  MISS:          0
cpu0_ITLB TOTAL     ACCESS:    7085749  HIT:    7085749  MISS:          0
cpu0_ITLB LOAD      ACCESS:    7085749  HIT:    7085749  MISS:          0
cpu0_ITLB RFO       ACCESS:          0  HIT:          0  MISS:          0
cpu0_ITLB PREFETCH  ACCESS:          0  HIT:          0  MISS:          0
cpu0_ITLB WRITEBACK ACCESS:          0  HIT:          0  MISS:          0
cpu0_STLB TOTAL     ACCESS:      20060  HIT:       1345  MISS:      18715
cpu0_STLB LOAD      ACCESS:      20054  HIT:       1345  MISS:      18709
cpu0_STLB RFO       ACCESS:          6  HIT:          0  MISS:          6
cpu0_STLB PREFETCH  ACCESS:          0  HIT:          0  MISS:          0
cpu0_STLB WRITEBACK ACCESS:          0  HIT:          0  MISS:          0
cpu0_L1D TOTAL     ACCESS:   13751516  HIT:   12258179  MISS:    1493337
cpu0_L1D LOAD      ACCESS:    8381174  HIT:    6890004  MISS:    1491170
cpu0_L1D RFO       ACCESS:    5351627  HIT:    5351149  MISS:        478
cpu0_L1D PREFETCH  ACCESS:          0  HIT:          0  MISS:          0
cpu0_L1D WRITEBACK ACCESS:          0  HIT:          0  MISS:          0
cpu0_L2C TOTAL     ACCESS:    1497265  HIT:     394042  MISS:    1103223
cpu0_L2C LOAD      ACCESS:    1491170  HIT:     388765  MISS:    1102405
cpu0_L2C RFO       ACCESS:        478  HIT:          0  MISS:        478
cpu0_L2C PREFETCH  ACCESS:          0  HIT:          0  MISS:          0
cpu0_L2C WRITEBACK ACCESS:       3928  HIT:       3928  MISS:          0
LLC TOTAL     ACCESS:    1104710  HIT:       1703  MISS:    1103007
LLC LOAD      ACCESS:    1102405  HIT:       1540  MISS:    1100865
LLC RFO       ACCESS:        478  HIT:          0  MISS:        478
LLC PREFETCH  ACCESS:          0  HIT:          0  MISS:          0
LLC WRITEBACK ACCESS:       1487  HIT:          0  MISS:       1487
Heartbeat CPU 0 instructions: 114000000 cycles: 212020523 heartbeat IPC: 0.321173 cumulative IPC: 0.320769 (Simulation time: 1 hr 24 min 32 sec) 

Region of Interest Statistics
cpu0_DTLB TOTAL     ACCESS:   12156641  HIT:   12135882  MISS:      20759
cpu0_DTLB LOAD      ACCESS:   10083657  HIT:   10062904  MISS:      20753
cpu0_DTLB RFO       ACCESS:    2072984  HIT:    2072978  MISS:          6
cpu0_DTLB PREFETCH  ACCESS:          0  HIT:          0  MISS:          0
cpu0_DTLB WRITEBACK ACCESS:          0  HIT:          0  MISS:          0
cpu0_ITLB TOTAL     ACCESS:    7314268  HIT:    7314268  MISS:          0
cpu0_ITLB LOAD      ACCESS:    7314268  HIT:    7314268  MISS:          0
cpu0_ITLB RFO       ACCESS:          0  HIT:          0  MISS:          0
cpu0_ITLB PREFETCH  ACCESS:          0  HIT:          0  MISS:          0
cpu0_ITLB WRITEBACK ACCESS:          0  HIT:          0  MISS:          0
cpu0_STLB TOTAL     ACCESS:      20759  HIT:       1423  MISS:      19336
cpu0_STLB LOAD      ACCESS:      20753  HIT:       1423  MISS:      19330
cpu0_STLB RFO       ACCESS:          6  HIT:          0  MISS:          6
cpu0_STLB PREFETCH  ACCESS:          0  HIT:          0  MISS:          0
cpu0_STLB WRITEBACK ACCESS:          0  HIT:          0  MISS:          0
cpu0_L1D TOTAL     ACCESS:   14194904  HIT:   12653469  MISS:    1541435
cpu0_L1D LOAD      ACCESS:    8651280  HIT:    7112088  MISS:    1539192
cpu0_L1D RFO       ACCESS:    5524288  HIT:    5523804  MISS:        484
cpu0_L1D PREFETCH  ACCESS:          0  HIT:          0  MISS:          0
cpu0_L1D WRITEBACK ACCESS:          0  HIT:          0  MISS:          0
cpu0_L2C TOTAL     ACCESS:    1545492  HIT:     406765  MISS:    1138727
cpu0_L2C LOAD      ACCESS:    1539192  HIT:     401298  MISS:    1137894
cpu0_L2C RFO       ACCESS:        484  HIT:          0  MISS:        484
cpu0_L2C PREFETCH  ACCESS:          0  HIT:          0  MISS:          0
cpu0_L2C WRITEBACK ACCESS:       4057  HIT:       4057  MISS:          0
LLC TOTAL     ACCESS:    1140264  HIT:       1764  MISS:    1138500
LLC LOAD      ACCESS:    1137894  HIT:       1596  MISS:    1136298
LLC RFO       ACCESS:        484  HIT:          0  MISS:        484
LLC PREFETCH  ACCESS:          0  HIT:          0  MISS:          0
LLC WRITEBACK ACCESS:       1537  HIT:          0  MISS:       1537
Heartbeat CPU 0 instructions: 116000000 cycles: 218259903 heartbeat IPC: 0.320545 cumulative IPC: 0.320762 (Simulation time: 1 hr 26 min 21 sec) 

Region of Interest Statistics
cpu0_DTLB TOTAL     ACCESS:   12536408  HIT:   12514956  MISS:      21452
cpu0_DTLB LOAD      ACCESS:   10398695  HIT:   10377249  MISS:      21446
cpu0_DTLB RFO       ACCESS:    2137713  HIT:    2137707  MISS:          6
cpu0_DTLB PREFETCH  ACCESS:          0  HIT:          0  MISS:          0
[...]
cpu0_ITLB RFO       ACCESS:          0  HIT:          0  MISS:          0
cpu0_ITLB PREFETCH  ACCESS:          0  HIT:          0  MISS:          0
cpu0_ITLB WRITEBACK ACCESS:          0  HIT:          0  MISS:          0
cpu0_L1I TOTAL     ACCESS:      11703  HIT:      11663  MISS:         40
cpu0_L1I LOAD      ACCESS:      11703  HIT:      11663  MISS:         40
cpu0_L1I RFO       ACCESS:          0  HIT:          0  MISS:          0
cpu0_L1I PREFETCH  ACCESS:          0  HIT:          0  MISS:          0
cpu0_L1I WRITEBACK ACCESS:          0  HIT:          0  MISS:          0
cpu0_STLB TOTAL     ACCESS:     583686  HIT:      94564  MISS:     489122
cpu0_STLB LOAD      ACCESS:     583383  HIT:      94470  MISS:     488913
cpu0_STLB RFO       ACCESS:        303  HIT:         94  MISS:        209
cpu0_STLB PREFETCH  ACCESS:          0  HIT:          0  MISS:          0
cpu0_STLB WRITEBACK ACCESS:          0  HIT:          0  MISS:          0
cpu0_L1D TOTAL     ACCESS:  332768053  HIT:  296525022  MISS:   36243031
cpu0_L1D LOAD      ACCESS:  202814761  HIT:  166626408  MISS:   36188353
cpu0_L1D RFO       ACCESS:  129464286  HIT:  129451404  MISS:      12882
cpu0_L1D PREFETCH  ACCESS:          0  HIT:          0  MISS:          0
cpu0_L1D WRITEBACK ACCESS:          0  HIT:          0  MISS:          0
cpu0_L2C TOTAL     ACCESS:   36339162  HIT:    9576430  MISS:   26762732
cpu0_L2C LOAD      ACCESS:   36188393  HIT:    9446067  MISS:   26742326
cpu0_L2C RFO       ACCESS:      12882  HIT:        163  MISS:      12719
cpu0_L2C PREFETCH  ACCESS:          0  HIT:          0  MISS:          0
cpu0_L2C WRITEBACK ACCESS:      96091  HIT:      96049  MISS:         42
LLC TOTAL     ACCESS:   26800222  HIT:      61780  MISS:   26738442
LLC LOAD      ACCESS:   26742326  HIT:      57979  MISS:   26684347
LLC RFO       ACCESS:      12719  HIT:        126  MISS:      12593
LLC PREFETCH  ACCESS:          0  HIT:          0  MISS:          0
LLC WRITEBACK ACCESS:      37532  HIT:        877  MISS:      36655
Finished CPU 0 instructions: 1500000002 cycles: 4687278600 cumulative IPC: 0.320015 (Simulation time: 18 hr 32 min 38 sec) 

ChampSim completed all CPUs

Region of Interest Statistics

CPU 0 cumulative IPC: 0.320015 instructions: 1500000002 cycles: 4687278600
cpu0_DTLB TOTAL     ACCESS:  284919791  HIT:  284336108  MISS:     583683
cpu0_DTLB LOAD      ACCESS:  236331259  HIT:  235747879  MISS:     583380
cpu0_DTLB RFO       ACCESS:   48588532  HIT:   48588229  MISS:        303
cpu0_DTLB PREFETCH  ACCESS:          0  HIT:          0  MISS:          0
cpu0_DTLB WRITEBACK ACCESS:          0  HIT:          0  MISS:          0
cpu0_DTLB TRANSLATION ACCESS:          0  HIT:          0  MISS:          0
cpu0_DTLB PREFETCH  REQUESTED:          0  ISSUED:          0  USEFUL:          0  USELESS:          0
cpu0_DTLB AVERAGE MISS LATENCY: 171.121 cycles
cpu0_ITLB TOTAL     ACCESS:  171395495  HIT:  171395492  MISS:          3
cpu0_ITLB LOAD      ACCESS:  171395495  HIT:  171395492  MISS:          3
cpu0_ITLB RFO       ACCESS:          0  HIT:          0  MISS:          0
cpu0_ITLB PREFETCH  ACCESS:          0  HIT:          0  MISS:          0
cpu0_ITLB WRITEBACK ACCESS:          0  HIT:          0  MISS:          0
cpu0_ITLB TRANSLATION ACCESS:          0  HIT:          0  MISS:          0
cpu0_ITLB PREFETCH  REQUESTED:          0  ISSUED:          0  USEFUL:          0  USELESS:          0
cpu0_ITLB AVERAGE MISS LATENCY: 282 cycles
cpu0_L1I TOTAL     ACCESS:      11703  HIT:      11663  MISS:         40
cpu0_L1I LOAD      ACCESS:      11703  HIT:      11663  MISS:         40
cpu0_L1I RFO       ACCESS:          0  HIT:          0  MISS:          0
cpu0_L1I PREFETCH  ACCESS:          0  HIT:          0  MISS:          0
cpu0_L1I WRITEBACK ACCESS:          0  HIT:          0  MISS:          0
cpu0_L1I TRANSLATION ACCESS:          0  HIT:          0  MISS:          0
cpu0_L1I PREFETCH  REQUESTED:          0  ISSUED:          0  USEFUL:          0  USELESS:          0
cpu0_L1I AVERAGE MISS LATENCY: 213.3 cycles
cpu0_STLB TOTAL     ACCESS:     583686  HIT:      94564  MISS:     489122
cpu0_STLB LOAD      ACCESS:     583383  HIT:      94470  MISS:     488913
cpu0_STLB RFO       ACCESS:        303  HIT:         94  MISS:        209
cpu0_STLB PREFETCH  ACCESS:          0  HIT:          0  MISS:          0
cpu0_STLB WRITEBACK ACCESS:          0  HIT:          0  MISS:          0
cpu0_STLB TRANSLATION ACCESS:          0  HIT:          0  MISS:          0
cpu0_STLB PREFETCH  REQUESTED:          0  ISSUED:          0  USEFUL:          0  USELESS:          0
cpu0_STLB AVERAGE MISS LATENCY: 193.465 cycles
cpu0_L1D TOTAL     ACCESS:  332768053  HIT:  296525022  MISS:   36243031
cpu0_L1D LOAD      ACCESS:  202814761  HIT:  166626408  MISS:   36188353
cpu0_L1D RFO       ACCESS:  129464286  HIT:  129451404  MISS:      12882
cpu0_L1D PREFETCH  ACCESS:          0  HIT:          0  MISS:          0
cpu0_L1D WRITEBACK ACCESS:          0  HIT:          0  MISS:          0
cpu0_L1D TRANSLATION ACCESS:     489006  HIT:     447210  MISS:      41796
cpu0_L1D PREFETCH  REQUESTED:          0  ISSUED:          0  USEFUL:          0  USELESS:          0
cpu0_L1D AVERAGE MISS LATENCY: 86.2035 cycles
cpu0_L2C TOTAL     ACCESS:   36339162  HIT:    9576430  MISS:   26762732
cpu0_L2C LOAD      ACCESS:   36188393  HIT:    9446067  MISS:   26742326
cpu0_L2C RFO       ACCESS:      12882  HIT:        163  MISS:      12719
cpu0_L2C PREFETCH  ACCESS:          0  HIT:          0  MISS:          0
cpu0_L2C WRITEBACK ACCESS:      96091  HIT:      96049  MISS:         42
cpu0_L2C TRANSLATION ACCESS:      41796  HIT:      34151  MISS:       7645
cpu0_L2C PREFETCH  REQUESTED:          0  ISSUED:          0  USEFUL:          0  USELESS:          0
cpu0_L2C AVERAGE MISS LATENCY: 101.835 cycles
LLC TOTAL     ACCESS:   26800222  HIT:      61780  MISS:   26738442
LLC LOAD      ACCESS:   26742326  HIT:      57979  MISS:   26684347
LLC RFO       ACCESS:      12719  HIT:        126  MISS:      12593
LLC PREFETCH  ACCESS:          0  HIT:          0  MISS:          0
LLC WRITEBACK ACCESS:      37532  HIT:        877  MISS:      36655
LLC TRANSLATION ACCESS:       7645  HIT:       2798  MISS:       4847
LLC PREFETCH  REQUESTED:          0  ISSUED:          0  USEFUL:          0  USELESS:          0
LLC AVERAGE MISS LATENCY: 80.9083 cycles
~~~~~~~~~~Reuse Distance Profiler output~~~~~~~~~~
0	168171872	52166336
1	19999904	19097824
2	14038832	13930064
3	9550976	9507328
4	8020960	8001408
5	9227216	9220416
6	4398064	2113200
7	5564960	702752
8	3815392	411456
9	2951600	691040
10	15058416	14033888
11	5935856	5333264
12	2779024	2133968
13	5664624	5122816
14	4209648	3901856
15	3597168	3490896
16	5880048	5715664
17	2880160	2866368
18	2096480	2091536
19	799520	794576
20	582544	580352
21	225888	224576
22	82480	81168
23	98944	64272
24	177840	76032
25	145456	91728
26	34896	30832
27	80448	79888
28	171824	125488
29	96496	90016
30	22352	21056
31	106224	61248
32	95008	90240
33	27968	25888
34	64240	19536
35	15040	8400
36	112000	69456
37	46784	38864
38	50928	49872
39	62848	62192
40	44864	44464
41	81664	81456
42	36976	36720
43	56080	55968
44	16480	16400
45	34144	34128
46	11248	11232
47	30928	30880
48	18672	18656
49	14576	14560
50	3120	3120
51	23440	23424
52	12128	12080
53	14272	14272
54	26528	26496
55	18576	18544
56	18496	18464
57	16992	16944
58	52368	16384
59	20496	9776
60	4064	3904
61	2160	2048
62	36192	36112
63	14544	14480
64	3952	3616
66	14960	14448
68	25776	25520
70	14720	14144
72	8976	8176
74	8832	7952
76	5216	4944
78	1808	1792
80	3104	3104
82	5248	5232
84	3168	3168
86	12144	12144
88	10944	10944
90	7024	7024
92	22768	22768
94	21120	21120
96	8128	8128
98	1808	1808
100	4352	4352
102	10016	10016
104	9760	9760
106	18912	18912
108	51888	51888
110	46640	46640
112	36848	36848
114	43904	43904
116	22272	22272
118	7280	7280
120	16992	16960
122	43776	43776
124	9056	9056
126	1440	1440
128	7856	7856
132	29264	29200
136	29552	29536
140	20032	20032
144	87024	87024
148	20128	20128
152	5808	5808
156	4864	4864
160	11920	11920
164	27312	27312
168	45056	45056
172	27536	27536
176	26208	26208
180	21728	21728
184	33312	33312
188	39664	39664
192	19120	19120
196	1872	1872
200	304	304
204	560	560
208	816	816
212	96	96
216	96	32
220	48	16
224	16	16
228	48	48
232	0	0
236	80	64
240	3152	3152
244	2208	2208
248	160	160
252	2816	2816
256	21760	21760
264	7040	7040
272	96	96
280	16	16
288	5280	5280
296	42928	42928
304	35568	35568
312	35552	35552
320	54640	54640
328	4400	4400
336	37744	37744
344	8576	8576
352	4688	4688
360	40704	40704
368	30912	30912
376	7200	7200
384	17184	17184
392	46880	46880
400	31888	31888
408	3584	3584
416	8928	8928
424	12320	12320
432	16416	16416
440	3712	3712
448	1440	1440
456	112	112
464	16	16
472	1296	1296
480	2112	2112
488	288	288
496	608	608
504	3504	3504
512	13392	13392
528	67296	67296
544	43600	43600
560	91808	91808
576	57984	57984
592	131376	131376
608	24368	24368
624	3504	3504
640	32	32
656	2240	2240
672	47760	47760
688	30880	30880
704	21312	21312
720	1056	1056
736	352	352
752	16	16
768	16	16
784	16	16
800	16	16
816	0	0
832	0	0
848	80	80
864	1952	1952
880	1664	1664
896	64	64
912	16	16
928	0	0
944	48	48
960	320	320
976	3952	3936
992	32	32
1008	592	592
1024	53424	53424
1056	19376	19376
1088	85680	85680
1120	12384	12384
1152	1712	1712
1184	44944	44944
1216	1152	1152
1248	35376	35376
1280	18528	18528
1312	44320	44320
1344	46224	46224
1376	1264	1264
1408	16	16
1440	16	16
1472	352	352
1504	3072	3056
1536	48	48
1568	3520	3520
1600	42592	42592
1632	1984	1984
1664	28320	28320
1696	23280	23280
1728	2848	2848
1760	0	0
1792	2320	2320
1824	5648	5648
1856	4112	4112
1888	106176	106176
1920	52560	52560
1952	113232	113232
1984	176	176
2016	96	96
2048	5632	5632
2112	5568	5568
2176	45296	45296
2240	288	288
2304	128	128
2368	52144	52144
2432	5776	5776
2496	46096	46096
2560	1920	1920
2624	53200	53200
2688	45584	45584
2752	3456	3456
2816	3408	3408
2880	46416	46416
2944	138928	138928
3008	45712	45712
3072	65824	65824
3136	84864	84864
3200	65280	65280
3264	124992	124992
3328	21392	21392
3392	15696	15696
3456	46896	46896
3520	67808	67808
3584	55296	55296
3648	96736	96736
3712	101920	101920
3776	7232	7232
3840	86896	86896
3904	101200	101200
3968	4496	4496
4032	4880	4880
4096	93408	93408
4224	46208	46208
4352	53728	53728
4480	2624	2624
4608	2960	2960
4736	12432	12432
4864	271440	271440
4992	20000	20000
5120	95040	95040
5248	8784	8784
5376	51792	51792
5504	144816	144816
5632	139968	139968
5760	58400	58400
5888	1136	1136
6016	47760	47760
6144	125248	125248
6272	26496	26496
6400	239056	239056
6528	71920	71920
6656	600288	600288
6784	11709504	11709488
6912	285024	284992
7040	96	96
7168	80	80
7296	32	32
7424	32	32
7552	0	0
7680	32	16
7808	448	448
7936	208	208
8064	64	64
8192	80	80
8448	16	16
8704	16	16
8960	80	80
9216	80	80
9472	48	32
9728	192	176
9984	144	144
10240	64	64
10496	112	112
10752	176	176
11008	304	304
11264	288	288
11520	224	224
11776	112	112
12032	32	32
12288	0	0
12544	48	48
12800	32	16
13056	64	64
13312	48	48
13568	6480	6480
13824	432	432
14080	48	48
14336	32	32
14592	32	32
14848	80	64
15104	48	48
15360	64	64
15616	144	144
15872	112	96
16128	144	144
16384	352	352
16896	272	272
17408	208	208
17920	96	96
18432	160	144
18944	16	16
19456	48	48
19968	208	208
20480	2320	2320
20992	144	128
21504	128	96
22016	64	64
22528	368	368
23040	80	80
23552	272	272
24064	304	304
24576	288	288
25088	64	64
25600	32	32
26112	64	64
26624	32	32
27136	1024	1024
27648	80	80
28160	0	0
28672	48	48
29184	0	0
29696	48	48
30208	160	160
30720	240	240
31232	176	176
31744	272	272
32256	192	192
32768	32	32
33792	960	960
34816	48	48
35840	192	192
36864	144	144
37888	368	368
38912	32	32
39936	64	64
40960	608	608
41984	48	48
43008	80	80
44032	272	272
45056	304	304
46080	64	64
47104	368	368
48128	80	80
49152	0	0
50176	384	384
51200	224	224
52224	96	96
53248	336	336
54272	592	592
55296	128	128
56320	160	160
57344	304	304
58368	320	320
59392	144	144
60416	32	32
61440	304	304
62464	64	64
63488	64	64
64512	144	144
65536	384	384
67584	656	656
69632	208	208
71680	752	752
73728	1136	1136
75776	272	272
77824	800	800
79872	368	368
81920	1120	1120
83968	272	272
86016	528	528
88064	912	912
90112	288	288
92160	704	672
94208	800	800
96256	608	592
98304	496	496
100352	160	160
102400	480	480
104448	224	224
106496	368	352
108544	1264	1264
110592	288	288
112640	432	432
114688	336	336
116736	256	256
118784	240	240
120832	176	176
122880	736	736
124928	64	48
126976	496	480
129024	192	192
131072	720	704
135168	464	464
139264	384	384
143360	848	848
147456	656	656
151552	848	848
155648	800	800
159744	512	512
163840	224	224
167936	176	176
172032	320	320
176128	176	176
180224	432	432
184320	208	208
188416	112	112
192512	672	672
196608	592	592
200704	176	176
204800	816	816
208896	160	160
212992	512	512
217088	352	352
221184	592	592
225280	352	352
229376	480	480
233472	720	720
237568	592	592
241664	176	176
245760	496	496
249856	288	288
253952	448	448
258048	480	480
262144	864	864
270336	992	992
278528	80	80
286720	320	320
294912	96	96
303104	320	320
311296	672	672
319488	416	416
327680	48	48
335872	256	256
344064	288	288
352256	128	128
360448	208	208
368640	144	144
376832	48	48
385024	32	32
393216	144	144
401408	288	288
409600	0	0
417792	176	176
425984	48	48
434176	112	112
442368	272	272
450560	48	48
458752	48	48
466944	112	112
475136	16	16
483328	240	240
491520	224	224
499712	64	64
507904	240	240
516096	80	80
524288	400	400
540672	400	400
557056	816	816
573440	32	32
589824	0	0
606208	64	64
622592	112	112
638976	48	48
655360	256	256
671744	48	48
688128	368	368
704512	48	48
720896	592	592
737280	16	16
753664	48	48
770048	80	80
786432	256	256
802816	16	16
819200	48	48
835584	0	0
851968	0	0
868352	112	112
884736	16	16
901120	0	0
917504	48	48
933888	0	0
950272	32	32
966656	160	160
983040	48	48
999424	272	272
1015808	16	16
1032192	48	48
1048576	48	48
1081344	208	208
1114112	16	16
1146880	560	560
1179648	1104	1104
1212416	112	112
1245184	608	608
1277952	64	64
1310720	48	48
1343488	0	0
1376256	128	128
1409024	336	336
1441792	112	112
1474560	208	208
1507328	336	336
1540096	160	160
1572864	352	352
1605632	256	256
1638400	400	400
1671168	32	32
1703936	0	0
1736704	0	0
1769472	0	0
1802240	16	16
1835008	0	0
1867776	0	0
1900544	16	16
1933312	80	80
1966080	0	0
1998848	16	16
2031616	0	0
2064384	16	16
2097152	160	160
2162688	0	0
2228224	0	0
2293760	0	0
2359296	32	32
2424832	0	0
2490368	16	16
2555904	32	32
2621440	16	16
2686976	0	0
2752512	48	48
2818048	32	32
2883584	0	0
2949120	16	16
3014656	32	32
3080192	96	96
3145728	448	448
3211264	0	0
3276800	0	0
3342336	32	32
3407872	16	16
3473408	16	16
3538944	32	32
3604480	144	144
3670016	0	0
3735552	0	0
3801088	0	0
3866624	0	0
3932160	32	32
3997696	16	16
4063232	0	0
4128768	48	48
4194304	16	16
4325376	32	32
4456448	48	48
4587520	32	32
4718592	16	16
4849664	32	32
4980736	16	16
5111808	128	128
5242880	16	16
5373952	0	0
5505024	16	16
5636096	128	128
5767168	32	32
5898240	128	128
6029312	0	0
6160384	16	16
6291456	0	0
6422528	32	32
6553600	0	0
6684672	0	0
6815744	0	0
6946816	16	16
7077888	0	0
7208960	16	16
7340032	32	32
7471104	48	48
7602176	0	0
7733248	32	32
7864320	96	96
7995392	0	0
8126464	0	0
8257536	32	32
8388608	0	0
8650752	576	576
8912896	64	64
9175040	32	32
9437184	0	0
9699328	16	16
9961472	80	80
10223616	48	48
10485760	16	16
10747904	32	32
11010048	80	80
11272192	32	32
11534336	16	16
11796480	16	16
12058624	0	0
12320768	0	0
12582912	16	16
12845056	48	48
13107200	1280	1264
13369344	1456	1456
13631488	0	0
13893632	48	48
14155776	16	16
14417920	16	16
14680064	16	16
14942208	0	0
15204352	80	80
15466496	16	16
15728640	0	0
15990784	0	0
16252928	0	0
16515072	16	16
16777216	0	0
17301504	480	480
17825792	1280	1280
18350080	528	528
18874368	48	48
19398656	16	16
19922944	16	16
20447232	32	32
20971520	0	0
21495808	0	0
22020096	0	0
22544384	16	16
23068672	16	16
23592960	0	0
24117248	16	16
24641536	0	0
25165824	16	16
25690112	0	0
26214400	0	0
26738688	16	16
27262976	0	0
27787264	16	16
28311552	16	16
28835840	32	32
29360128	1680	1680
29884416	544	544
30408704	0	0
30932992	0	0
31457280	0	0
31981568	0	0
32505856	0	0
33030144	544	544
33554432	16	16
34603008	32	32
35651584	16	16
36700160	16	16
37748736	0	0
38797312	16	16
39845888	0	0
40894464	32	32
41943040	32	32
42991616	16	16
44040192	32	32
45088768	0	0
46137344	0	0
47185920	0	0
48234496	96	96
49283072	0	0
50331648	0	0
51380224	0	0
52428800	0	0
53477376	0	0
54525952	0	0
55574528	16	16
56623104	0	0
57671680	0	0
58720256	0	0
59768832	0	0
60817408	16	16
61865984	0	0
62914560	0	0
63963136	0	0
65011712	0	0
66060288	0	0
67108864	0	0
69206016	0	0
71303168	16	16
73400320	16	16
75497472	16	16
77594624	32	32
79691776	16	16
81788928	16	16
83886080	16	16
85983232	0	0
88080384	0	0
90177536	0	0
92274688	0	0
94371840	16	16
96468992	32	32
98566144	0	0
100663296	16	16
102760448	0	0
104857600	32	32
106954752	16	16
109051904	16	16
111149056	32	32
113246208	32	32
115343360	0	0
117440512	16	16
119537664	32	32
121634816	16	16
123731968	16	16
125829120	0	0
127926272	32	32
130023424	0	0
132120576	16	16
134217728	16	16
138412032	16	16
142606336	128	128
146800640	32	32
150994944	16	16
155189248	656	656
159383552	64	64
163577856	160	160
167772160	80	80
171966464	256	256
176160768	304	304
180355072	6368	6368
184549376	0	0
188743680	0	0
192937984	0	0
197132288	1968	1968
201326592	0	0
205520896	576	576
209715200	0	0
213909504	0	0
218103808	2992	2992
222298112	16	16
226492416	1152	1152
230686720	512	512
234881024	0	0
239075328	0	0
243269632	0	0
247463936	32	32
251658240	0	0
255852544	464	464
260046848	0	0
264241152	0	0
268435456	656	656
276824064	16	16
285212672	32	32
293601280	320	320
301989888	32	32
310378496	0	0
318767104	0	0
327155712	48	48
335544320	219120	219056
343932928	0	0
352321536	0	0
360710144	0	0
369098752	0	0
377487360	0	0
385875968	0	0
394264576	0	0
402653184	0	0
411041792	0	0
419430400	0	0
427819008	0	0
436207616	0	0
444596224	0	0
452984832	0	0
461373440	0	0
469762048	0	0
478150656	0	0
486539264	0	0
494927872	0	0
503316480	0	0
511705088	0	0
520093696	0	0
528482304	0	0
536870912	0	0
553648128	0	0
570425344	0	0
587202560	0	0
603979776	0	0
620756992	0	0
637534208	0	0
654311424	0	0
671088640	0	0
687865856	0	0
704643072	0	0
721420288	0	0
738197504	0	0
754974720	0	0
771751936	0	0
788529152	0	0
805306368	0	0
822083584	0	0
838860800	0	0
855638016	0	0
872415232	0	0
889192448	0	0
905969664	0	0
922746880	0	0
939524096	0	0
956301312	0	0
973078528	0	0
989855744	0	0
1006632960	0	0
1023410176	0	0
1040187392	0	0
1056964608	0	0
1073741824	0	0
1107296256	0	0
1140850688	0	0
1174405120	0	0
1207959552	0	0
1241513984	0	0
1275068416	0	0
1308622848	0	0
1342177280	0	0
1375731712	0	0
1409286144	0	0
1442840576	0	0
1476395008	0	0
1509949440	0	0
1543503872	0	0
1577058304	0	0
1610612736	0	0
1644167168	0	0
1677721600	0	0
1711276032	0	0
1744830464	0	0
1778384896	0	0
1811939328	0	0
1845493760	0	0
1879048192	0	0
1912602624	0	0
1946157056	0	0
1979711488	0	0
2013265920	0	0
2046820352	0	0
2080374784	0	0
2113929216	0	0
2147483648	0	0
2214592512	0	0
2281701376	0	0
2348810240	0	0
2415919104	0	0
2483027968	0	0
2550136832	0	0
2617245696	0	0
2684354560	0	0
2751463424	0	0
2818572288	0	0
2885681152	0	0
2952790016	0	0
3019898880	0	0
3087007744	0	0
3154116608	0	0
3221225472	0	0
3288334336	0	0
3355443200	0	0
3422552064	0	0
3489660928	0	0
3556769792	0	0
3623878656	0	0
3690987520	0	0
3758096384	0	0
3825205248	0	0
3892314112	0	0
3959422976	0	0
4026531840	0	0
4093640704	0	0
4160749568	0	0
4227858432	0	0
~~~~~~~~~~Reuse Distance Profiler output end~~~~~~~~~~

Sampler size:1706321

DRAM Statistics
 CHANNEL 0
 RQ ROW_BUFFER_HIT:   21690536  ROW_BUFFER_MISS:    5011251
 DBUS AVG_CONGESTED_CYCLE:    3.71799
 WQ ROW_BUFFER_HIT:      23916  ROW_BUFFER_MISS:      11580  FULL:          0


CPU 0 Branch Prediction Accuracy: 92.3693% MPKI: 19.5678 Average ROB Occupancy at Mispredict: 33.5019
Branch type MPKI
BRANCH_DIRECT_JUMP: 1.6e-05
BRANCH_INDIRECT: 0
BRANCH_CONDITIONAL: 19.5678
BRANCH_DIRECT_CALL: 5.33333e-06
BRANCH_INDIRECT_CALL: 0
BRANCH_RETURN: 4.66667e-06

