
*** ChampSim Multicore Out-of-Order Simulator ***

Warmup Instructions: 50000000
Simulation Instructions: 1500000000
Number of CPUs: 1
Off-chip DRAM Size: 4 GiB Channels: 1 Width: 64-bit Data Rate: 3200 MT/s

VirtualMemory physical capacity: 8588881920 num_ppages: 2096895
VirtualMemory page size: 4096 log2_page_size: 12

CPU 0 runs /s/traces/champsim_traces/603.bwaves_s-2931B.champsimtrace.xz
CPU 0 Bimodal branch predictor
Basic BTB sets: 1024 ways: 8 indirect buffer size: 4096 RAS size: 64
Initializing LRU.
Initializing LRU.
Initializing LRU.
Initializing LRU.
Initializing rdLRU.
Initializing LRU.
Initializing mockingjay of size: 2048
Heartbeat CPU 0 instructions: 2000001 cycles: 500077 heartbeat IPC: 3.99939 cumulative IPC: 3.99939 (Simulation time: 0 hr 1 min 2 sec) 
Heartbeat CPU 0 instructions: 4000001 cycles: 1000077 heartbeat IPC: 4 cumulative IPC: 3.99969 (Simulation time: 0 hr 2 min 9 sec) 
Heartbeat CPU 0 instructions: 6000001 cycles: 1500077 heartbeat IPC: 4 cumulative IPC: 3.9998 (Simulation time: 0 hr 3 min 11 sec) 
Heartbeat CPU 0 instructions: 8000001 cycles: 2000077 heartbeat IPC: 4 cumulative IPC: 3.99985 (Simulation time: 0 hr 4 min 13 sec) 
Heartbeat CPU 0 instructions: 10000001 cycles: 2500077 heartbeat IPC: 4 cumulative IPC: 3.99988 (Simulation time: 0 hr 5 min 12 sec) 
Heartbeat CPU 0 instructions: 12000001 cycles: 3000077 heartbeat IPC: 4 cumulative IPC: 3.9999 (Simulation time: 0 hr 6 min 16 sec) 
Heartbeat CPU 0 instructions: 14000001 cycles: 3500077 heartbeat IPC: 4 cumulative IPC: 3.99991 (Simulation time: 0 hr 7 min 15 sec) 
Heartbeat CPU 0 instructions: 16000001 cycles: 4000077 heartbeat IPC: 4 cumulative IPC: 3.99992 (Simulation time: 0 hr 8 min 16 sec) 
Heartbeat CPU 0 instructions: 18000001 cycles: 4500077 heartbeat IPC: 4 cumulative IPC: 3.99993 (Simulation time: 0 hr 9 min 16 sec) 
Heartbeat CPU 0 instructions: 20000001 cycles: 5000077 heartbeat IPC: 4 cumulative IPC: 3.99994 (Simulation time: 0 hr 10 min 17 sec) 
Heartbeat CPU 0 instructions: 22000001 cycles: 5500077 heartbeat IPC: 4 cumulative IPC: 3.99994 (Simulation time: 0 hr 11 min 19 sec) 
Heartbeat CPU 0 instructions: 24000001 cycles: 6000077 heartbeat IPC: 4 cumulative IPC: 3.99995 (Simulation time: 0 hr 12 min 19 sec) 
Heartbeat CPU 0 instructions: 26000001 cycles: 6500077 heartbeat IPC: 4 cumulative IPC: 3.99995 (Simulation time: 0 hr 13 min 18 sec) 
Heartbeat CPU 0 instructions: 28000001 cycles: 7000077 heartbeat IPC: 4 cumulative IPC: 3.99996 (Simulation time: 0 hr 14 min 17 sec) 
Heartbeat CPU 0 instructions: 30000001 cycles: 7500077 heartbeat IPC: 4 cumulative IPC: 3.99996 (Simulation time: 0 hr 15 min 13 sec) 
Heartbeat CPU 0 instructions: 32000001 cycles: 8000077 heartbeat IPC: 4 cumulative IPC: 3.99996 (Simulation time: 0 hr 16 min 11 sec) 
Heartbeat CPU 0 instructions: 34000001 cycles: 8500077 heartbeat IPC: 4 cumulative IPC: 3.99996 (Simulation time: 0 hr 17 min 11 sec) 
Heartbeat CPU 0 instructions: 36000001 cycles: 9000077 heartbeat IPC: 4 cumulative IPC: 3.99997 (Simulation time: 0 hr 18 min 10 sec) 
Heartbeat CPU 0 instructions: 38000001 cycles: 9500077 heartbeat IPC: 4 cumulative IPC: 3.99997 (Simulation time: 0 hr 19 min 9 sec) 
Heartbeat CPU 0 instructions: 40000001 cycles: 10000077 heartbeat IPC: 4 cumulative IPC: 3.99997 (Simulation time: 0 hr 20 min 8 sec) 
Heartbeat CPU 0 instructions: 42000001 cycles: 10500077 heartbeat IPC: 4 cumulative IPC: 3.99997 (Simulation time: 0 hr 21 min 8 sec) 
Heartbeat CPU 0 instructions: 44000001 cycles: 11000077 heartbeat IPC: 4 cumulative IPC: 3.99997 (Simulation time: 0 hr 22 min 8 sec) 
Heartbeat CPU 0 instructions: 46000001 cycles: 11500077 heartbeat IPC: 4 cumulative IPC: 3.99997 (Simulation time: 0 hr 23 min 11 sec) 
Heartbeat CPU 0 instructions: 48000001 cycles: 12000077 heartbeat IPC: 4 cumulative IPC: 3.99997 (Simulation time: 0 hr 24 min 11 sec) 
Heartbeat CPU 0 instructions: 50000001 cycles: 12500077 heartbeat IPC: 4 cumulative IPC: 3.99998 (Simulation time: 0 hr 25 min 12 sec) 

Warmup complete CPU 0 instructions: 50000001 cycles: 12500077 (Simulation time: 0 hr 25 min 12 sec) 

Heartbeat CPU 0 instructions: 52000004 cycles: 16892726 heartbeat IPC: 0.455307 cumulative IPC: 0.455307 (Simulation time: 0 hr 29 min 59 sec) 

Region of Interest Statistics
cpu0_DTLB TOTAL     ACCESS:     429178  HIT:     426848  MISS:       2330
cpu0_DTLB LOAD      ACCESS:     261259  HIT:     259945  MISS:       1314
cpu0_DTLB RFO       ACCESS:     167919  HIT:     166903  MISS:       1016
cpu0_DTLB PREFETCH  ACCESS:          0  HIT:          0  MISS:          0
cpu0_DTLB WRITEBACK ACCESS:          0  HIT:          0  MISS:          0
cpu0_ITLB TOTAL     ACCESS:     117390  HIT:     117390  MISS:          0
cpu0_ITLB LOAD      ACCESS:     117390  HIT:     117390  MISS:          0
cpu0_ITLB RFO       ACCESS:          0  HIT:          0  MISS:          0
cpu0_ITLB PREFETCH  ACCESS:          0  HIT:          0  MISS:          0
cpu0_ITLB WRITEBACK ACCESS:          0  HIT:          0  MISS:          0
cpu0_STLB TOTAL     ACCESS:       2330  HIT:       1899  MISS:        431
cpu0_STLB LOAD      ACCESS:       1314  HIT:       1072  MISS:        242
cpu0_STLB RFO       ACCESS:       1016  HIT:        827  MISS:        189
cpu0_STLB PREFETCH  ACCESS:          0  HIT:          0  MISS:          0
cpu0_STLB WRITEBACK ACCESS:          0  HIT:          0  MISS:          0
cpu0_L1D TOTAL     ACCESS:     598203  HIT:     564438  MISS:      33765
cpu0_L1D LOAD      ACCESS:     267893  HIT:     246877  MISS:      21016
cpu0_L1D RFO       ACCESS:     329879  HIT:     317503  MISS:      12376
cpu0_L1D PREFETCH  ACCESS:          0  HIT:          0  MISS:          0
cpu0_L1D WRITEBACK ACCESS:          0  HIT:          0  MISS:          0
cpu0_L2C TOTAL     ACCESS:      45907  HIT:      16483  MISS:      29424
cpu0_L2C LOAD      ACCESS:      21016  HIT:       3507  MISS:      17509
cpu0_L2C RFO       ACCESS:      12027  HIT:        120  MISS:      11907
cpu0_L2C PREFETCH  ACCESS:          0  HIT:          0  MISS:          0
cpu0_L2C WRITEBACK ACCESS:      12491  HIT:      12483  MISS:          8
LLC TOTAL     ACCESS:      41369  HIT:       1514  MISS:      39855
LLC LOAD      ACCESS:      17509  HIT:       1511  MISS:      15998
LLC RFO       ACCESS:      11907  HIT:          0  MISS:      11907
LLC PREFETCH  ACCESS:          0  HIT:          0  MISS:          0
LLC WRITEBACK ACCESS:      11953  HIT:          3  MISS:      11950
Heartbeat CPU 0 instructions: 54000004 cycles: 21283410 heartbeat IPC: 0.45551 cumulative IPC: 0.455408 (Simulation time: 0 hr 34 min 37 sec) 

Region of Interest Statistics
cpu0_DTLB TOTAL     ACCESS:     858170  HIT:     852890  MISS:       5280
cpu0_DTLB LOAD      ACCESS:     522293  HIT:     519294  MISS:       2999
cpu0_DTLB RFO       ACCESS:     335877  HIT:     333596  MISS:       2281
cpu0_DTLB PREFETCH  ACCESS:          0  HIT:          0  MISS:          0
cpu0_DTLB WRITEBACK ACCESS:          0  HIT:          0  MISS:          0
cpu0_ITLB TOTAL     ACCESS:     234667  HIT:     234667  MISS:          0
cpu0_ITLB LOAD      ACCESS:     234667  HIT:     234667  MISS:          0
cpu0_ITLB RFO       ACCESS:          0  HIT:          0  MISS:          0
cpu0_ITLB PREFETCH  ACCESS:          0  HIT:          0  MISS:          0
cpu0_ITLB WRITEBACK ACCESS:          0  HIT:          0  MISS:          0
cpu0_STLB TOTAL     ACCESS:       5280  HIT:       4432  MISS:        848
cpu0_STLB LOAD      ACCESS:       2999  HIT:       2522  MISS:        477
cpu0_STLB RFO       ACCESS:       2281  HIT:       1910  MISS:        371
cpu0_STLB PREFETCH  ACCESS:          0  HIT:          0  MISS:          0
cpu0_STLB WRITEBACK ACCESS:          0  HIT:          0  MISS:          0
cpu0_L1D TOTAL     ACCESS:    1196736  HIT:    1129212  MISS:      67524
cpu0_L1D LOAD      ACCESS:     536120  HIT:     494098  MISS:      42022
cpu0_L1D RFO       ACCESS:     659769  HIT:     635000  MISS:      24769
cpu0_L1D PREFETCH  ACCESS:          0  HIT:          0  MISS:          0
cpu0_L1D WRITEBACK ACCESS:          0  HIT:          0  MISS:          0
cpu0_L2C TOTAL     ACCESS:      91802  HIT:      33139  MISS:      58663
cpu0_L2C LOAD      ACCESS:      42022  HIT:       7187  MISS:      34835
cpu0_L2C RFO       ACCESS:      24052  HIT:        238  MISS:      23814
cpu0_L2C PREFETCH  ACCESS:          0  HIT:          0  MISS:          0
cpu0_L2C WRITEBACK ACCESS:      24995  HIT:      24981  MISS:         14
LLC TOTAL     ACCESS:      82458  HIT:       3053  MISS:      79405
LLC LOAD      ACCESS:      34835  HIT:       3048  MISS:      31787
LLC RFO       ACCESS:      23814  HIT:          0  MISS:      23814
LLC PREFETCH  ACCESS:          0  HIT:          0  MISS:          0
LLC WRITEBACK ACCESS:      23809  HIT:          5  MISS:      23804
Heartbeat CPU 0 instructions: 56000004 cycles: 25669920 heartbeat IPC: 0.455943 cumulative IPC: 0.455587 (Simulation time: 0 hr 39 min 16 sec) 

Region of Interest Statistics
cpu0_DTLB TOTAL     ACCESS:    1287168  HIT:    1279513  MISS:       7655
cpu0_DTLB LOAD      ACCESS:     783350  HIT:     778967  MISS:       4383
cpu0_DTLB RFO       ACCESS:     503818  HIT:     500546  MISS:       3272
cpu0_DTLB PREFETCH  ACCESS:          0  HIT:          0  MISS:          0
cpu0_DTLB WRITEBACK ACCESS:          0  HIT:          0  MISS:          0
cpu0_ITLB TOTAL     ACCESS:     352278  HIT:     352278  MISS:          0
cpu0_ITLB LOAD      ACCESS:     352278  HIT:     352278  MISS:          0
cpu0_ITLB RFO       ACCESS:          0  HIT:          0  MISS:          0
cpu0_ITLB PREFETCH  ACCESS:          0  HIT:          0  MISS:          0
cpu0_ITLB WRITEBACK ACCESS:          0  HIT:          0  MISS:          0
cpu0_STLB TOTAL     ACCESS:       7655  HIT:       6376  MISS:       1279
cpu0_STLB LOAD      ACCESS:       4383  HIT:       3664  MISS:        719
cpu0_STLB RFO       ACCESS:       3272  HIT:       2712  MISS:        560
cpu0_STLB PREFETCH  ACCESS:          0  HIT:          0  MISS:          0
cpu0_STLB WRITEBACK ACCESS:          0  HIT:          0  MISS:          0
cpu0_L1D TOTAL     ACCESS:    1795462  HIT:    1694157  MISS:     101305
cpu0_L1D LOAD      ACCESS:     804406  HIT:     741354  MISS:      63052
cpu0_L1D RFO       ACCESS:     989778  HIT:     952632  MISS:      37146
cpu0_L1D PREFETCH  ACCESS:          0  HIT:          0  MISS:          0
cpu0_L1D WRITEBACK ACCESS:          0  HIT:          0  MISS:          0
cpu0_L2C TOTAL     ACCESS:     137742  HIT:      49950  MISS:      87792
cpu0_L2C LOAD      ACCESS:      63052  HIT:      11002  MISS:      52050
cpu0_L2C RFO       ACCESS:      36089  HIT:        368  MISS:      35721
cpu0_L2C PREFETCH  ACCESS:          0  HIT:          0  MISS:          0
cpu0_L2C WRITEBACK ACCESS:      37494  HIT:      37473  MISS:         21
LLC TOTAL     ACCESS:     123618  HIT:       4570  MISS:     119048
LLC LOAD      ACCESS:      52050  HIT:       4563  MISS:      47487
LLC RFO       ACCESS:      35721  HIT:          0  MISS:      35721
LLC PREFETCH  ACCESS:          0  HIT:          0  MISS:          0
LLC WRITEBACK ACCESS:      35847  HIT:          7  MISS:      35840
Heartbeat CPU 0 instructions: 58000001 cycles: 30065591 heartbeat IPC: 0.454992 cumulative IPC: 0.455438 (Simulation time: 0 hr 43 min 54 sec) 

Region of Interest Statistics
cpu0_DTLB TOTAL     ACCESS:    1716288  HIT:    1706262  MISS:      10026
cpu0_DTLB LOAD      ACCESS:    1044575  HIT:    1038837  MISS:       5738
cpu0_DTLB RFO       ACCESS:     671713  HIT:     667425  MISS:       4288
cpu0_DTLB PREFETCH  ACCESS:          0  HIT:          0  MISS:          0
cpu0_DTLB WRITEBACK ACCESS:          0  HIT:          0  MISS:          0
cpu0_ITLB TOTAL     ACCESS:     469849  HIT:     469849  MISS:          0
cpu0_ITLB LOAD      ACCESS:     469849  HIT:     469849  MISS:          0
cpu0_ITLB RFO       ACCESS:          0  HIT:          0  MISS:          0
cpu0_ITLB PREFETCH  ACCESS:          0  HIT:          0  MISS:          0
cpu0_ITLB WRITEBACK ACCESS:          0  HIT:          0  MISS:          0
cpu0_STLB TOTAL     ACCESS:      10026  HIT:       8316  MISS:       1710
cpu0_STLB LOAD      ACCESS:       5738  HIT:       4777  MISS:        961
cpu0_STLB RFO       ACCESS:       4288  HIT:       3539  MISS:        749
cpu0_STLB PREFETCH  ACCESS:          0  HIT:          0  MISS:          0
cpu0_STLB WRITEBACK ACCESS:          0  HIT:          0  MISS:          0
cpu0_L1D TOTAL     ACCESS:    2393841  HIT:    2258764  MISS:     135077
cpu0_L1D LOAD      ACCESS:    1072371  HIT:     988304  MISS:      84067
cpu0_L1D RFO       ACCESS:    1319761  HIT:    1270231  MISS:      49530
cpu0_L1D PREFETCH  ACCESS:          0  HIT:          0  MISS:          0
cpu0_L1D WRITEBACK ACCESS:          0  HIT:          0  MISS:          0
cpu0_L2C TOTAL     ACCESS:     183651  HIT:      66487  MISS:     117164
cpu0_L2C LOAD      ACCESS:      84066  HIT:      14559  MISS:      69507
cpu0_L2C RFO       ACCESS:      48121  HIT:        493  MISS:      47628
cpu0_L2C PREFETCH  ACCESS:          0  HIT:          0  MISS:          0
cpu0_L2C WRITEBACK ACCESS:      49984  HIT:      49956  MISS:         28
LLC TOTAL     ACCESS:     164628  HIT:       6159  MISS:     158469
LLC LOAD      ACCESS:      69507  HIT:       6149  MISS:      63358
LLC RFO       ACCESS:      47628  HIT:          0  MISS:      47628
LLC PREFETCH  ACCESS:          0  HIT:          0  MISS:          0
LLC WRITEBACK ACCESS:      47492  HIT:         10  MISS:      47482
Heartbeat CPU 0 instructions: 60000004 cycles: 34504537 heartbeat IPC: 0.450558 cumulative IPC: 0.454453 (Simulation time: 0 hr 48 min 39 sec) 

Region of Interest Statistics
cpu0_DTLB TOTAL     ACCESS:    2145409  HIT:    2132380  MISS:      13029
cpu0_DTLB LOAD      ACCESS:    1305725  HIT:    1298254  MISS:       7471
cpu0_DTLB RFO       ACCESS:     839684  HIT:     834126  MISS:       5558
cpu0_DTLB PREFETCH  ACCESS:          0  HIT:          0  MISS:          0
cpu0_DTLB WRITEBACK ACCESS:          0  HIT:          0  MISS:          0
cpu0_ITLB TOTAL     ACCESS:     587371  HIT:     587371  MISS:          0
cpu0_ITLB LOAD      ACCESS:     587371  HIT:     587371  MISS:          0
cpu0_ITLB RFO       ACCESS:          0  HIT:          0  MISS:          0
cpu0_ITLB PREFETCH  ACCESS:          0  HIT:          0  MISS:          0
cpu0_ITLB WRITEBACK ACCESS:          0  HIT:          0  MISS:          0
cpu0_STLB TOTAL     ACCESS:      13029  HIT:      10901  MISS:       2128
cpu0_STLB LOAD      ACCESS:       7471  HIT:       6274  MISS:       1197
cpu0_STLB RFO       ACCESS:       5558  HIT:       4627  MISS:        931
cpu0_STLB PREFETCH  ACCESS:          0  HIT:          0  MISS:          0
cpu0_STLB WRITEBACK ACCESS:          0  HIT:          0  MISS:          0
cpu0_L1D TOTAL     ACCESS:    2992439  HIT:    2823580  MISS:     168859
cpu0_L1D LOAD      ACCESS:    1340564  HIT:    1235467  MISS:     105097
cpu0_L1D RFO       ACCESS:    1649748  HIT:    1587827  MISS:      61921
cpu0_L1D PREFETCH  ACCESS:          0  HIT:          0  MISS:          0
cpu0_L1D WRITEBACK ACCESS:          0  HIT:          0  MISS:          0
cpu0_L2C TOTAL     ACCESS:     229575  HIT:      83187  MISS:     146388
cpu0_L2C LOAD      ACCESS:     105094  HIT:      18279  MISS:      86815
cpu0_L2C RFO       ACCESS:      60147  HIT:        611  MISS:      59536
cpu0_L2C PREFETCH  ACCESS:          0  HIT:          0  MISS:          0
cpu0_L2C WRITEBACK ACCESS:      62493  HIT:      62457  MISS:         36
LLC TOTAL     ACCESS:     206050  HIT:       7736  MISS:     198314
LLC LOAD      ACCESS:      86815  HIT:       7724  MISS:      79091
LLC RFO       ACCESS:      59536  HIT:          0  MISS:      59536
LLC PREFETCH  ACCESS:          0  HIT:          0  MISS:          0
LLC WRITEBACK ACCESS:      59698  HIT:         12  MISS:      59686
Heartbeat CPU 0 instructions: 62000003 cycles: 38958528 heartbeat IPC: 0.449035 cumulative IPC: 0.453541 (Simulation time: 0 hr 53 min 22 sec) 

Region of Interest Statistics
cpu0_DTLB TOTAL     ACCESS:    2574300  HIT:    2558894  MISS:      15406
cpu0_DTLB LOAD      ACCESS:    1566629  HIT:    1557776  MISS:       8853
cpu0_DTLB RFO       ACCESS:    1007671  HIT:    1001118  MISS:       6553
cpu0_DTLB PREFETCH  ACCESS:          0  HIT:          0  MISS:          0
cpu0_DTLB WRITEBACK ACCESS:          0  HIT:          0  MISS:          0
cpu0_ITLB TOTAL     ACCESS:     704945  HIT:     704945  MISS:          0
cpu0_ITLB LOAD      ACCESS:     704945  HIT:     704945  MISS:          0
cpu0_ITLB RFO       ACCESS:          0  HIT:          0  MISS:          0
cpu0_ITLB PREFETCH  ACCESS:          0  HIT:          0  MISS:          0
cpu0_ITLB WRITEBACK ACCESS:          0  HIT:          0  MISS:          0
cpu0_STLB TOTAL     ACCESS:      15406  HIT:      12847  MISS:       2559
cpu0_STLB LOAD      ACCESS:       8853  HIT:       7414  MISS:       1439
cpu0_STLB RFO       ACCESS:       6553  HIT:       5433  MISS:       1120
cpu0_STLB PREFETCH  ACCESS:          0  HIT:          0  MISS:          0
cpu0_STLB WRITEBACK ACCESS:          0  HIT:          0  MISS:          0
cpu0_L1D TOTAL     ACCESS:    3591166  HIT:    3388520  MISS:     202646
cpu0_L1D LOAD      ACCESS:    1608991  HIT:    1482863  MISS:     126128
cpu0_L1D RFO       ACCESS:    1979617  HIT:    1905312  MISS:      74305
cpu0_L1D PREFETCH  ACCESS:          0  HIT:          0  MISS:          0
cpu0_L1D WRITEBACK ACCESS:          0  HIT:          0  MISS:          0
cpu0_L2C TOTAL     ACCESS:     275509  HIT:      99959  MISS:     175550
cpu0_L2C LOAD      ACCESS:     126125  HIT:      22071  MISS:     104054
cpu0_L2C RFO       ACCESS:      72184  HIT:        735  MISS:      71449
cpu0_L2C PREFETCH  ACCESS:          0  HIT:          0  MISS:          0
cpu0_L2C WRITEBACK ACCESS:      74987  HIT:      74941  MISS:         46
LLC TOTAL     ACCESS:     247037  HIT:       9514  MISS:     237523
LLC LOAD      ACCESS:     104054  HIT:       9499  MISS:      94555
LLC RFO       ACCESS:      71449  HIT:          0  MISS:      71449
LLC PREFETCH  ACCESS:          0  HIT:          0  MISS:          0
LLC WRITEBACK ACCESS:      71533  HIT:         15  MISS:      71518
Heartbeat CPU 0 instructions: 64000000 cycles: 43340658 heartbeat IPC: 0.456398 cumulative IPC: 0.453947 (Simulation time: 0 hr 57 min 59 sec) 

Region of Interest Statistics
cpu0_DTLB TOTAL     ACCESS:    3003177  HIT:    2985407  MISS:      17770
cpu0_DTLB LOAD      ACCESS:    1827483  HIT:    1817277  MISS:      10206
cpu0_DTLB RFO       ACCESS:    1175694  HIT:    1168130  MISS:       7564
cpu0_DTLB PREFETCH  ACCESS:          0  HIT:          0  MISS:          0
cpu0_DTLB WRITEBACK ACCESS:          0  HIT:          0  MISS:          0
cpu0_ITLB TOTAL     ACCESS:     822657  HIT:     822657  MISS:          0
cpu0_ITLB LOAD      ACCESS:     822657  HIT:     822657  MISS:          0
cpu0_ITLB RFO       ACCESS:          0  HIT:          0  MISS:          0
cpu0_ITLB PREFETCH  ACCESS:          0  HIT:          0  MISS:          0
cpu0_ITLB WRITEBACK ACCESS:          0  HIT:          0  MISS:          0
cpu0_STLB TOTAL     ACCESS:      17770  HIT:      14792  MISS:       2978
cpu0_STLB LOAD      ACCESS:      10206  HIT:       8530  MISS:       1676
cpu0_STLB RFO       ACCESS:       7564  HIT:       6262  MISS:       1302
cpu0_STLB PREFETCH  ACCESS:          0  HIT:          0  MISS:          0
cpu0_STLB WRITEBACK ACCESS:          0  HIT:          0  MISS:          0
cpu0_L1D TOTAL     ACCESS:    4190111  HIT:    3953731  MISS:     236380
cpu0_L1D LOAD      ACCESS:    1877476  HIT:    1730330  MISS:     147146
cpu0_L1D RFO       ACCESS:    2309658  HIT:    2223000  MISS:      86658
cpu0_L1D PREFETCH  ACCESS:          0  HIT:          0  MISS:          0
cpu0_L1D WRITEBACK ACCESS:          0  HIT:          0  MISS:          0
cpu0_L2C TOTAL     ACCESS:     321385  HIT:     116775  MISS:     204610
cpu0_L2C LOAD      ACCESS:     147142  HIT:      25941  MISS:     121201
cpu0_L2C RFO       ACCESS:      84212  HIT:        856  MISS:      83356
cpu0_L2C PREFETCH  ACCESS:          0  HIT:          0  MISS:          0
cpu0_L2C WRITEBACK ACCESS:      87455  HIT:      87404  MISS:         51
LLC TOTAL     ACCESS:     288204  HIT:      11217  MISS:     276987
LLC LOAD      ACCESS:     121201  HIT:      11200  MISS:     110001
LLC RFO       ACCESS:      83356  HIT:          0  MISS:      83356
LLC PREFETCH  ACCESS:          0  HIT:          0  MISS:          0
LLC WRITEBACK ACCESS:      83645  HIT:         16  MISS:      83629
Heartbeat CPU 0 instructions: 66000000 cycles: 47720255 heartbeat IPC: 0.456663 cumulative IPC: 0.454285 (Simulation time: 1 hr 2 min 33 sec) 

Region of Interest Statistics
cpu0_DTLB TOTAL     ACCESS:    3432184  HIT:    3411451  MISS:      20733
cpu0_DTLB LOAD      ACCESS:    2088554  HIT:    2076653  MISS:      11901
cpu0_DTLB RFO       ACCESS:    1343630  HIT:    1334798  MISS:       8832
cpu0_DTLB PREFETCH  ACCESS:          0  HIT:          0  MISS:          0
cpu0_DTLB WRITEBACK ACCESS:          0  HIT:          0  MISS:          0
cpu0_ITLB TOTAL     ACCESS:     939835  HIT:     939835  MISS:          0
cpu0_ITLB LOAD      ACCESS:     939835  HIT:     939835  MISS:          0
cpu0_ITLB RFO       ACCESS:          0  HIT:          0  MISS:          0
cpu0_ITLB PREFETCH  ACCESS:          0  HIT:          0  MISS:          0
cpu0_ITLB WRITEBACK ACCESS:          0  HIT:          0  MISS:          0
cpu0_STLB TOTAL     ACCESS:      20733  HIT:      17324  MISS:       3409
cpu0_STLB LOAD      ACCESS:      11901  HIT:       9983  MISS:       1918
cpu0_STLB RFO       ACCESS:       8832  HIT:       7341  MISS:       1491
cpu0_STLB PREFETCH  ACCESS:          0  HIT:          0  MISS:          0
cpu0_STLB WRITEBACK ACCESS:          0  HIT:          0  MISS:          0
cpu0_L1D TOTAL     ACCESS:    4788509  HIT:    4518332  MISS:     270177
cpu0_L1D LOAD      ACCESS:    2145389  HIT:    1977213  MISS:     168176
cpu0_L1D RFO       ACCESS:    2639712  HIT:    2540659  MISS:      99053
cpu0_L1D PREFETCH  ACCESS:          0  HIT:          0  MISS:          0
cpu0_L1D WRITEBACK ACCESS:          0  HIT:          0  MISS:          0
cpu0_L2C TOTAL     ACCESS:     367335  HIT:     133290  MISS:     234045
cpu0_L2C LOAD      ACCESS:     168169  HIT:      29450  MISS:     138719
cpu0_L2C RFO       ACCESS:      96246  HIT:        983  MISS:      95263
cpu0_L2C PREFETCH  ACCESS:          0  HIT:          0  MISS:          0
cpu0_L2C WRITEBACK ACCESS:      99972  HIT:      99911  MISS:         61
LLC TOTAL     ACCESS:     329448  HIT:      12845  MISS:     316603
LLC LOAD      ACCESS:     138719  HIT:      12827  MISS:     125892
LLC RFO       ACCESS:      95263  HIT:          0  MISS:      95263
LLC PREFETCH  ACCESS:          0  HIT:          0  MISS:          0
LLC WRITEBACK ACCESS:      95464  HIT:         17  MISS:      95447
Heartbeat CPU 0 instructions: 68000002 cycles: 52112717 heartbeat IPC: 0.455326 cumulative IPC: 0.4544 (Simulation time: 1 hr 7 min 22 sec) 

Region of Interest Statistics
cpu0_DTLB TOTAL     ACCESS:    3861210  HIT:    3838127  MISS:      23083
cpu0_DTLB LOAD      ACCESS:    2349624  HIT:    2336350  MISS:      13274
cpu0_DTLB RFO       ACCESS:    1511586  HIT:    1501777  MISS:       9809
cpu0_DTLB PREFETCH  ACCESS:          0  HIT:          0  MISS:          0
cpu0_DTLB WRITEBACK ACCESS:          0  HIT:          0  MISS:          0
cpu0_ITLB TOTAL     ACCESS:    1057415  HIT:    1057415  MISS:          0
cpu0_ITLB LOAD      ACCESS:    1057415  HIT:    1057415  MISS:          0
cpu0_ITLB RFO       ACCESS:          0  HIT:          0  MISS:          0
cpu0_ITLB PREFETCH  ACCESS:          0  HIT:          0  MISS:          0
cpu0_ITLB WRITEBACK ACCESS:          0  HIT:          0  MISS:          0
cpu0_STLB TOTAL     ACCESS:      23083  HIT:      19254  MISS:       3829
cpu0_STLB LOAD      ACCESS:      13274  HIT:      11118  MISS:       2156
cpu0_STLB RFO       ACCESS:       9809  HIT:       8136  MISS:       1673
cpu0_STLB PREFETCH  ACCESS:          0  HIT:          0  MISS:          0
cpu0_STLB WRITEBACK ACCESS:          0  HIT:          0  MISS:          0
cpu0_L1D TOTAL     ACCESS:    5387081  HIT:    5083152  MISS:     303929
cpu0_L1D LOAD      ACCESS:    2413710  HIT:    2224524  MISS:     189186
cpu0_L1D RFO       ACCESS:    2969543  HIT:    2858112  MISS:     111431
cpu0_L1D PREFETCH  ACCESS:          0  HIT:          0  MISS:          0
cpu0_L1D WRITEBACK ACCESS:          0  HIT:          0  MISS:          0
cpu0_L2C TOTAL     ACCESS:     413226  HIT:     150033  MISS:     263193
cpu0_L2C LOAD      ACCESS:     189179  HIT:      33224  MISS:     155955
cpu0_L2C RFO       ACCESS:     108277  HIT:       1107  MISS:     107170
cpu0_L2C PREFETCH  ACCESS:          0  HIT:          0  MISS:          0
cpu0_L2C WRITEBACK ACCESS:     112458  HIT:     112392  MISS:         66
LLC TOTAL     ACCESS:     370408  HIT:      14383  MISS:     356025
LLC LOAD      ACCESS:     155955  HIT:      14365  MISS:     141590
LLC RFO       ACCESS:     107170  HIT:          0  MISS:     107170
LLC PREFETCH  ACCESS:          0  HIT:          0  MISS:          0
LLC WRITEBACK ACCESS:     107281  HIT:         17  MISS:     107264
Heartbeat CPU 0 instructions: 70000004 cycles: 56609434 heartbeat IPC: 0.444769 cumulative IPC: 0.453419 (Simulation time: 1 hr 12 min 13 sec) 

Region of Interest Statistics
cpu0_DTLB TOTAL     ACCESS:    4290361  HIT:    4264907  MISS:      25454
cpu0_DTLB LOAD      ACCESS:    2610857  HIT:    2596231  MISS:      14626
cpu0_DTLB RFO       ACCESS:    1679504  HIT:    1668676  MISS:      10828
cpu0_DTLB PREFETCH  ACCESS:          0  HIT:          0  MISS:          0
cpu0_DTLB WRITEBACK ACCESS:          0  HIT:          0  MISS:          0
cpu0_ITLB TOTAL     ACCESS:    1174979  HIT:    1174979  MISS:          0
cpu0_ITLB LOAD      ACCESS:    1174979  HIT:    1174979  MISS:          0
cpu0_ITLB RFO       ACCESS:          0  HIT:          0  MISS:          0
cpu0_ITLB PREFETCH  ACCESS:          0  HIT:          0  MISS:          0
cpu0_ITLB WRITEBACK ACCESS:          0  HIT:          0  MISS:          0
cpu0_STLB TOTAL     ACCESS:      25454  HIT:      21197  MISS:       4257
cpu0_STLB LOAD      ACCESS:      14626  HIT:      12231  MISS:       2395
cpu0_STLB RFO       ACCESS:      10828  HIT:       8966  MISS:       1862
cpu0_STLB PREFETCH  ACCESS:          0  HIT:          0  MISS:          0
cpu0_STLB WRITEBACK ACCESS:          0  HIT:          0  MISS:          0
cpu0_L1D TOTAL     ACCESS:    5985185  HIT:    5647487  MISS:     337698
cpu0_L1D LOAD      ACCESS:    2681458  HIT:    2471249  MISS:     210209
cpu0_L1D RFO       ACCESS:    3299471  HIT:    3175661  MISS:     123810
cpu0_L1D PREFETCH  ACCESS:          0  HIT:          0  MISS:          0
cpu0_L1D WRITEBACK ACCESS:          0  HIT:          0  MISS:          0
cpu0_L2C TOTAL     ACCESS:     459156  HIT:     166481  MISS:     292675
cpu0_L2C LOAD      ACCESS:     210200  HIT:      36678  MISS:     173522
cpu0_L2C RFO       ACCESS:     120312  HIT:       1235  MISS:     119077
cpu0_L2C PREFETCH  ACCESS:          0  HIT:          0  MISS:          0
cpu0_L2C WRITEBACK ACCESS:     124965  HIT:     124891  MISS:         74
LLC TOTAL     ACCESS:     411752  HIT:      15968  MISS:     395784
LLC LOAD      ACCESS:     173522  HIT:      15948  MISS:     157574
LLC RFO       ACCESS:     119077  HIT:          0  MISS:     119077
LLC PREFETCH  ACCESS:          0  HIT:          0  MISS:          0
LLC WRITEBACK ACCESS:     119151  HIT:         19  MISS:     119132
Heartbeat CPU 0 instructions: 72000001 cycles: 61105410 heartbeat IPC: 0.444842 cumulative IPC: 0.452625 (Simulation time: 1 hr 17 min 6 sec) 

Region of Interest Statistics
cpu0_DTLB TOTAL     ACCESS:    4719615  HIT:    4691184  MISS:      28431
cpu0_DTLB LOAD      ACCESS:    2872118  HIT:    2855788  MISS:      16330
cpu0_DTLB RFO       ACCESS:    1847497  HIT:    1835396  MISS:      12101
cpu0_DTLB PREFETCH  ACCESS:          0  HIT:          0  MISS:          0
cpu0_DTLB WRITEBACK ACCESS:          0  HIT:          0  MISS:          0
cpu0_ITLB TOTAL     ACCESS:    1292368  HIT:    1292368  MISS:          0
cpu0_ITLB LOAD      ACCESS:    1292368  HIT:    1292368  MISS:          0
cpu0_ITLB RFO       ACCESS:          0  HIT:          0  MISS:          0
cpu0_ITLB PREFETCH  ACCESS:          0  HIT:          0  MISS:          0
cpu0_ITLB WRITEBACK ACCESS:          0  HIT:          0  MISS:          0
cpu0_STLB TOTAL     ACCESS:      28431  HIT:      23745  MISS:       4686
cpu0_STLB LOAD      ACCESS:      16330  HIT:      13695  MISS:       2635
cpu0_STLB RFO       ACCESS:      12101  HIT:      10050  MISS:       2051
cpu0_STLB PREFETCH  ACCESS:          0  HIT:          0  MISS:          0
cpu0_STLB WRITEBACK ACCESS:          0  HIT:          0  MISS:          0
cpu0_L1D TOTAL     ACCESS:    6584196  HIT:    6212726  MISS:     371470
cpu0_L1D LOAD      ACCESS:    2950097  HIT:    2718872  MISS:     231225
cpu0_L1D RFO       ACCESS:    3629414  HIT:    3493219  MISS:     136195
cpu0_L1D PREFETCH  ACCESS:          0  HIT:          0  MISS:          0
cpu0_L1D WRITEBACK ACCESS:          0  HIT:          0  MISS:          0
cpu0_L2C TOTAL     ACCESS:     505078  HIT:     183383  MISS:     321695
cpu0_L2C LOAD      ACCESS:     231216  HIT:      40587  MISS:     190629
cpu0_L2C RFO       ACCESS:     132346  HIT:       1362  MISS:     130984
cpu0_L2C PREFETCH  ACCESS:          0  HIT:          0  MISS:          0
cpu0_L2C WRITEBACK ACCESS:     137466  HIT:     137386  MISS:         80
LLC TOTAL     ACCESS:     452835  HIT:      17356  MISS:     435479
LLC LOAD      ACCESS:     190629  HIT:      17333  MISS:     173296
LLC RFO       ACCESS:     130984  HIT:          0  MISS:     130984
LLC PREFETCH  ACCESS:          0  HIT:          0  MISS:          0
LLC WRITEBACK ACCESS:     131220  HIT:         22  MISS:     131198
Heartbeat CPU 0 instructions: 74000002 cycles: 65549116 heartbeat IPC: 0.450075 cumulative IPC: 0.452412 (Simulation time: 1 hr 21 min 52 sec) 

Region of Interest Statistics
cpu0_DTLB TOTAL     ACCESS:    5148417  HIT:    5117867  MISS:      30550
cpu0_DTLB LOAD      ACCESS:    3132891  HIT:    3115319  MISS:      17572
cpu0_DTLB RFO       ACCESS:    2015526  HIT:    2002548  MISS:      12978
cpu0_DTLB PREFETCH  ACCESS:          0  HIT:          0  MISS:          0
cpu0_DTLB WRITEBACK ACCESS:          0  HIT:          0  MISS:          0
cpu0_ITLB TOTAL     ACCESS:    1410226  HIT:    1410226  MISS:          0
cpu0_ITLB LOAD      ACCESS:    1410226  HIT:    1410226  MISS:          0
cpu0_ITLB RFO       ACCESS:          0  HIT:          0  MISS:          0
cpu0_ITLB PREFETCH  ACCESS:          0  HIT:          0  MISS:          0
cpu0_ITLB WRITEBACK ACCESS:          0  HIT:          0  MISS:          0
cpu0_STLB TOTAL     ACCESS:      30550  HIT:      25426  MISS:       5124
cpu0_STLB LOAD      ACCESS:      17572  HIT:      14681  MISS:       2891
cpu0_STLB RFO       ACCESS:      12978  HIT:      10745  MISS:       2233
cpu0_STLB PREFETCH  ACCESS:          0  HIT:          0  MISS:          0
cpu0_STLB WRITEBACK ACCESS:          0  HIT:          0  MISS:          0
cpu0_L1D TOTAL     ACCESS:    7181944  HIT:    6776689  MISS:     405255
cpu0_L1D LOAD      ACCESS:    3217394  HIT:    2965146  MISS:     252248
cpu0_L1D RFO       ACCESS:    3959427  HIT:    3810838  MISS:     148589
cpu0_L1D PREFETCH  ACCESS:          0  HIT:          0  MISS:          0
cpu0_L1D WRITEBACK ACCESS:          0  HIT:          0  MISS:          0
cpu0_L2C TOTAL     ACCESS:     550991  HIT:     199813  MISS:     351178
cpu0_L2C LOAD      ACCESS:     252237  HIT:      44041  MISS:     208196
cpu0_L2C RFO       ACCESS:     144364  HIT:       1473  MISS:     142891
cpu0_L2C PREFETCH  ACCESS:          0  HIT:          0  MISS:          0
cpu0_L2C WRITEBACK ACCESS:     149972  HIT:     149884  MISS:         88
LLC TOTAL     ACCESS:     494262  HIT:      18263  MISS:     475999
LLC LOAD      ACCESS:     208196  HIT:      18237  MISS:     189959
LLC RFO       ACCESS:     142891  HIT:          0  MISS:     142891
LLC PREFETCH  ACCESS:          0  HIT:          0  MISS:          0
LLC WRITEBACK ACCESS:     143172  HIT:         25  MISS:     143147
Heartbeat CPU 0 instructions: 76000004 cycles: 69984629 heartbeat IPC: 0.450907 cumulative IPC: 0.452295 (Simulation time: 1 hr 26 min 40 sec) 

Region of Interest Statistics
cpu0_DTLB TOTAL     ACCESS:    5577552  HIT:    5544376  MISS:      33176
cpu0_DTLB LOAD      ACCESS:    3394118  HIT:    3375053  MISS:      19065
cpu0_DTLB RFO       ACCESS:    2183434  HIT:    2169323  MISS:      14111
cpu0_DTLB PREFETCH  ACCESS:          0  HIT:          0  MISS:          0
cpu0_DTLB WRITEBACK ACCESS:          0  HIT:          0  MISS:          0
cpu0_ITLB TOTAL     ACCESS:    1527638  HIT:    1527638  MISS:          0
cpu0_ITLB LOAD      ACCESS:    1527638  HIT:    1527638  MISS:          0
cpu0_ITLB RFO       ACCESS:          0  HIT:          0  MISS:          0
cpu0_ITLB PREFETCH  ACCESS:          0  HIT:          0  MISS:          0
cpu0_ITLB WRITEBACK ACCESS:          0  HIT:          0  MISS:          0
cpu0_STLB TOTAL     ACCESS:      33176  HIT:      27619  MISS:       5557
cpu0_STLB LOAD      ACCESS:      19065  HIT:      15930  MISS:       3135
cpu0_STLB RFO       ACCESS:      14111  HIT:      11689  MISS:       2422
cpu0_STLB PREFETCH  ACCESS:          0  HIT:          0  MISS:          0
cpu0_STLB WRITEBACK ACCESS:          0  HIT:          0  MISS:          0
cpu0_L1D TOTAL     ACCESS:    7780238  HIT:    7341187  MISS:     439051
cpu0_L1D LOAD      ACCESS:    3485288  HIT:    3211999  MISS:     273289
cpu0_L1D RFO       ACCESS:    4289394  HIT:    4128423  MISS:     160971
cpu0_L1D PREFETCH  ACCESS:          0  HIT:          0  MISS:          0
cpu0_L1D WRITEBACK ACCESS:          0  HIT:          0  MISS:          0
cpu0_L2C TOTAL     ACCESS:     596957  HIT:     216371  MISS:     380586
cpu0_L2C LOAD      ACCESS:     273277  HIT:      47587  MISS:     225690
cpu0_L2C RFO       ACCESS:     156399  HIT:       1601  MISS:     154798
cpu0_L2C PREFETCH  ACCESS:          0  HIT:          0  MISS:          0
cpu0_L2C WRITEBACK ACCESS:     162490  HIT:     162396  MISS:         94
LLC TOTAL     ACCESS:     535573  HIT:      19840  MISS:     515733
LLC LOAD      ACCESS:     225690  HIT:      19813  MISS:     205877
LLC RFO       ACCESS:     154798  HIT:          0  MISS:     154798
LLC PREFETCH  ACCESS:          0  HIT:          0  MISS:          0
LLC WRITEBACK ACCESS:     155081  HIT:         25  MISS:     155056
Heartbeat CPU 0 instructions: 78000002 cycles: 74397933 heartbeat IPC: 0.453175 cumulative IPC: 0.452358 (Simulation time: 1 hr 31 min 21 sec) 

Region of Interest Statistics
cpu0_DTLB TOTAL     ACCESS:    6006564  HIT:    5970401  MISS:      36163
cpu0_DTLB LOAD      ACCESS:    3655209  HIT:    3634436  MISS:      20773
cpu0_DTLB RFO       ACCESS:    2351355  HIT:    2335965  MISS:      15390
cpu0_DTLB PREFETCH  ACCESS:          0  HIT:          0  MISS:          0
cpu0_DTLB WRITEBACK ACCESS:          0  HIT:          0  MISS:          0
cpu0_ITLB TOTAL     ACCESS:    1644932  HIT:    1644932  MISS:          0
cpu0_ITLB LOAD      ACCESS:    1644932  HIT:    1644932  MISS:          0
cpu0_ITLB RFO       ACCESS:          0  HIT:          0  MISS:          0
cpu0_ITLB PREFETCH  ACCESS:          0  HIT:          0  MISS:          0
cpu0_ITLB WRITEBACK ACCESS:          0  HIT:          0  MISS:          0
cpu0_STLB TOTAL     ACCESS:      36163  HIT:      30188  MISS:       5975
cpu0_STLB LOAD      ACCESS:      20773  HIT:      17402  MISS:       3371
cpu0_STLB RFO       ACCESS:      15390  HIT:      12786  MISS:       2604
cpu0_STLB PREFETCH  ACCESS:          0  HIT:          0  MISS:          0
cpu0_STLB WRITEBACK ACCESS:          0  HIT:          0  MISS:          0
cpu0_L1D TOTAL     ACCESS:    8378713  HIT:    7905896  MISS:     472817
cpu0_L1D LOAD      ACCESS:    3753339  HIT:    3459021  MISS:     294318
cpu0_L1D RFO       ACCESS:    4619400  HIT:    4446054  MISS:     173346
cpu0_L1D PREFETCH  ACCESS:          0  HIT:          0  MISS:          0
cpu0_L1D WRITEBACK ACCESS:          0  HIT:          0  MISS:          0
cpu0_L2C TOTAL     ACCESS:     642861  HIT:     232987  MISS:     409874
cpu0_L2C LOAD      ACCESS:     294303  HIT:      51242  MISS:     243061
cpu0_L2C RFO       ACCESS:     168430  HIT:       1725  MISS:     166705
cpu0_L2C PREFETCH  ACCESS:          0  HIT:          0  MISS:          0
cpu0_L2C WRITEBACK ACCESS:     174975  HIT:     174871  MISS:        104
LLC TOTAL     ACCESS:     576655  HIT:      21363  MISS:     555292
LLC LOAD      ACCESS:     243061  HIT:      21333  MISS:     221728
LLC RFO       ACCESS:     166705  HIT:          0  MISS:     166705
LLC PREFETCH  ACCESS:          0  HIT:          0  MISS:          0
LLC WRITEBACK ACCESS:     166885  HIT:         28  MISS:     166857
Heartbeat CPU 0 instructions: 80000004 cycles: 78835289 heartbeat IPC: 0.450719 cumulative IPC: 0.452249 (Simulation time: 1 hr 36 min 1 sec) 

Region of Interest Statistics
cpu0_DTLB TOTAL     ACCESS:    6435794  HIT:    6397779  MISS:      38015
cpu0_DTLB LOAD      ACCESS:    3916476  HIT:    3894632  MISS:      21844
cpu0_DTLB RFO       ACCESS:    2519318  HIT:    2503147  MISS:      16171
cpu0_DTLB PREFETCH  ACCESS:          0  HIT:          0  MISS:          0
cpu0_DTLB WRITEBACK ACCESS:          0  HIT:          0  MISS:          0
cpu0_ITLB TOTAL     ACCESS:    1762572  HIT:    1762572  MISS:          0
cpu0_ITLB LOAD      ACCESS:    1762572  HIT:    1762572  MISS:          0
cpu0_ITLB RFO       ACCESS:          0  HIT:          0  MISS:          0
cpu0_ITLB PREFETCH  ACCESS:          0  HIT:          0  MISS:          0
cpu0_ITLB WRITEBACK ACCESS:          0  HIT:          0  MISS:          0
cpu0_STLB TOTAL     ACCESS:      38015  HIT:      31609  MISS:       6406
cpu0_STLB LOAD      ACCESS:      21844  HIT:      18231  MISS:       3613
cpu0_STLB RFO       ACCESS:      16171  HIT:      13378  MISS:       2793
cpu0_STLB PREFETCH  ACCESS:          0  HIT:          0  MISS:          0
cpu0_STLB WRITEBACK ACCESS:          0  HIT:          0  MISS:          0
cpu0_L1D TOTAL     ACCESS:    8977091  HIT:    8470475  MISS:     506616
cpu0_L1D LOAD      ACCESS:    4021225  HIT:    3705879  MISS:     315346
cpu0_L1D RFO       ACCESS:    4949461  HIT:    4763714  MISS:     185747
cpu0_L1D PREFETCH  ACCESS:          0  HIT:          0  MISS:          0
cpu0_L1D WRITEBACK ACCESS:          0  HIT:          0  MISS:          0
cpu0_L2C TOTAL     ACCESS:     688809  HIT:     249507  MISS:     439302
cpu0_L2C LOAD      ACCESS:     315330  HIT:      54756  MISS:     260574
cpu0_L2C RFO       ACCESS:     180460  HIT:       1848  MISS:     178612
cpu0_L2C PREFETCH  ACCESS:          0  HIT:          0  MISS:          0
cpu0_L2C WRITEBACK ACCESS:     187496  HIT:     187384  MISS:        112
LLC TOTAL     ACCESS:     618257  HIT:      22885  MISS:     595372
LLC LOAD      ACCESS:     260574  HIT:      22854  MISS:     237720
LLC RFO       ACCESS:     178612  HIT:          0  MISS:     178612
LLC PREFETCH  ACCESS:          0  HIT:          0  MISS:          0
LLC WRITEBACK ACCESS:     179067  HIT:         29  MISS:     179038
Heartbeat CPU 0 instructions: 82000001 cycles: 83195921 heartbeat IPC: 0.458648 cumulative IPC: 0.452643 (Simulation time: 1 hr 40 min 44 sec) 

Region of Interest Statistics
cpu0_DTLB TOTAL     ACCESS:    6864719  HIT:    6823886  MISS:      40833
cpu0_DTLB LOAD      ACCESS:    4177514  HIT:    4154072  MISS:      23442
cpu0_DTLB RFO       ACCESS:    2687205  HIT:    2669814  MISS:      17391
cpu0_DTLB PREFETCH  ACCESS:          0  HIT:          0  MISS:          0
cpu0_DTLB WRITEBACK ACCESS:          0  HIT:          0  MISS:          0
cpu0_ITLB TOTAL     ACCESS:    1879813  HIT:    1879813  MISS:          0
cpu0_ITLB LOAD      ACCESS:    1879813  HIT:    1879813  MISS:          0
cpu0_ITLB RFO       ACCESS:          0  HIT:          0  MISS:          0
cpu0_ITLB PREFETCH  ACCESS:          0  HIT:          0  MISS:          0
cpu0_ITLB WRITEBACK ACCESS:          0  HIT:          0  MISS:          0
cpu0_STLB TOTAL     ACCESS:      40833  HIT:      33997  MISS:       6836
cpu0_STLB LOAD      ACCESS:      23442  HIT:      19588  MISS:       3854
cpu0_STLB RFO       ACCESS:      17391  HIT:      14409  MISS:       2982
cpu0_STLB PREFETCH  ACCESS:          0  HIT:          0  MISS:          0
cpu0_STLB WRITEBACK ACCESS:          0  HIT:          0  MISS:          0
cpu0_L1D TOTAL     ACCESS:    9575449  HIT:    9035058  MISS:     540391
cpu0_L1D LOAD      ACCESS:    4289149  HIT:    3952783  MISS:     336366
cpu0_L1D RFO       ACCESS:    5279466  HIT:    5081337  MISS:     198129
cpu0_L1D PREFETCH  ACCESS:          0  HIT:          0  MISS:          0
cpu0_L1D WRITEBACK ACCESS:          0  HIT:          0  MISS:          0
cpu0_L2C TOTAL     ACCESS:     734723  HIT:     265960  MISS:     468763
cpu0_L2C LOAD      ACCESS:     336347  HIT:      58234  MISS:     278113
cpu0_L2C RFO       ACCESS:     192499  HIT:       1974  MISS:     190525
cpu0_L2C PREFETCH  ACCESS:          0  HIT:          0  MISS:          0
cpu0_L2C WRITEBACK ACCESS:     199981  HIT:     199860  MISS:        121
LLC TOTAL     ACCESS:     659192  HIT:      24533  MISS:     634659
LLC LOAD      ACCESS:     278113  HIT:      24500  MISS:     253613
LLC RFO       ACCESS:     190525  HIT:          0  MISS:     190525
LLC PREFETCH  ACCESS:          0  HIT:          0  MISS:          0
LLC WRITEBACK ACCESS:     190550  HIT:         31  MISS:     190519
Heartbeat CPU 0 instructions: 84000001 cycles: 87647492 heartbeat IPC: 0.44928 cumulative IPC: 0.452444 (Simulation time: 1 hr 45 min 24 sec) 

Region of Interest Statistics
cpu0_DTLB TOTAL     ACCESS:    7293790  HIT:    7249958  MISS:      43832
cpu0_DTLB LOAD      ACCESS:    4438617  HIT:    4413449  MISS:      25168
cpu0_DTLB RFO       ACCESS:    2855173  HIT:    2836509  MISS:      18664
cpu0_DTLB PREFETCH  ACCESS:          0  HIT:          0  MISS:          0
cpu0_DTLB WRITEBACK ACCESS:          0  HIT:          0  MISS:          0
cpu0_ITLB TOTAL     ACCESS:    1997158  HIT:    1997158  MISS:          0
cpu0_ITLB LOAD      ACCESS:    1997158  HIT:    1997158  MISS:          0
cpu0_ITLB RFO       ACCESS:          0  HIT:          0  MISS:          0
cpu0_ITLB PREFETCH  ACCESS:          0  HIT:          0  MISS:          0
cpu0_ITLB WRITEBACK ACCESS:          0  HIT:          0  MISS:          0
cpu0_STLB TOTAL     ACCESS:      43832  HIT:      36578  MISS:       7254
cpu0_STLB LOAD      ACCESS:      25168  HIT:      21078  MISS:       4090
cpu0_STLB RFO       ACCESS:      18664  HIT:      15500  MISS:       3164
cpu0_STLB PREFETCH  ACCESS:          0  HIT:          0  MISS:          0
cpu0_STLB WRITEBACK ACCESS:          0  HIT:          0  MISS:          0
cpu0_L1D TOTAL     ACCESS:   10173965  HIT:    9599800  MISS:     574165
cpu0_L1D LOAD      ACCESS:    4557313  HIT:    4199928  MISS:     357385
cpu0_L1D RFO       ACCESS:    5609400  HIT:    5398877  MISS:     210523
cpu0_L1D PREFETCH  ACCESS:          0  HIT:          0  MISS:          0
cpu0_L1D WRITEBACK ACCESS:          0  HIT:          0  MISS:          0
cpu0_L2C TOTAL     ACCESS:     780642  HIT:     282623  MISS:     498019
cpu0_L2C LOAD      ACCESS:     357364  HIT:      61912  MISS:     295452
cpu0_L2C RFO       ACCESS:     204530  HIT:       2097  MISS:     202433
cpu0_L2C PREFETCH  ACCESS:          0  HIT:          0  MISS:          0
cpu0_L2C WRITEBACK ACCESS:     212491  HIT:     212361  MISS:        130
LLC TOTAL     ACCESS:     700641  HIT:      26119  MISS:     674522
LLC LOAD      ACCESS:     295452  HIT:      26084  MISS:     269368
LLC RFO       ACCESS:     202433  HIT:          0  MISS:     202433
LLC PREFETCH  ACCESS:          0  HIT:          0  MISS:          0
LLC WRITEBACK ACCESS:     202752  HIT:         33  MISS:     202719
Heartbeat CPU 0 instructions: 86000003 cycles: 92040837 heartbeat IPC: 0.455234 cumulative IPC: 0.452598 (Simulation time: 1 hr 50 min 8 sec) 

Region of Interest Statistics
cpu0_DTLB TOTAL     ACCESS:    7723029  HIT:    7677437  MISS:      45592
cpu0_DTLB LOAD      ACCESS:    4699882  HIT:    4673686  MISS:      26196
cpu0_DTLB RFO       ACCESS:    3023147  HIT:    3003751  MISS:      19396
cpu0_DTLB PREFETCH  ACCESS:          0  HIT:          0  MISS:          0
cpu0_DTLB WRITEBACK ACCESS:          0  HIT:          0  MISS:          0
cpu0_ITLB TOTAL     ACCESS:    2115079  HIT:    2115079  MISS:          0
cpu0_ITLB LOAD      ACCESS:    2115079  HIT:    2115079  MISS:          0
cpu0_ITLB RFO       ACCESS:          0  HIT:          0  MISS:          0
cpu0_ITLB PREFETCH  ACCESS:          0  HIT:          0  MISS:          0
cpu0_ITLB WRITEBACK ACCESS:          0  HIT:          0  MISS:          0
cpu0_STLB TOTAL     ACCESS:      45592  HIT:      37907  MISS:       7685
cpu0_STLB LOAD      ACCESS:      26196  HIT:      21864  MISS:       4332
cpu0_STLB RFO       ACCESS:      19396  HIT:      16043  MISS:       3353
cpu0_STLB PREFETCH  ACCESS:          0  HIT:          0  MISS:          0
cpu0_STLB WRITEBACK ACCESS:          0  HIT:          0  MISS:          0
cpu0_L1D TOTAL     ACCESS:   10772226  HIT:   10164268  MISS:     607958
cpu0_L1D LOAD      ACCESS:    4825182  HIT:    4446770  MISS:     378412
cpu0_L1D RFO       ACCESS:    5939362  HIT:    5716445  MISS:     222917
cpu0_L1D PREFETCH  ACCESS:          0  HIT:          0  MISS:          0
cpu0_L1D WRITEBACK ACCESS:          0  HIT:          0  MISS:          0
cpu0_L2C TOTAL     ACCESS:     826578  HIT:     299090  MISS:     527488
cpu0_L2C LOAD      ACCESS:     378391  HIT:      65384  MISS:     313007
cpu0_L2C RFO       ACCESS:     216561  HIT:       2221  MISS:     214340
cpu0_L2C PREFETCH  ACCESS:          0  HIT:          0  MISS:          0
cpu0_L2C WRITEBACK ACCESS:     224997  HIT:     224860  MISS:        137
LLC TOTAL     ACCESS:     741855  HIT:      27824  MISS:     714031
LLC LOAD      ACCESS:     313007  HIT:      27789  MISS:     285218
LLC RFO       ACCESS:     214340  HIT:          0  MISS:     214340
LLC PREFETCH  ACCESS:          0  HIT:          0  MISS:          0
LLC WRITEBACK ACCESS:     214504  HIT:         33  MISS:     214471
Heartbeat CPU 0 instructions: 88000000 cycles: 96428363 heartbeat IPC: 0.455837 cumulative IPC: 0.452767 (Simulation time: 1 hr 54 min 48 sec) 

Region of Interest Statistics
cpu0_DTLB TOTAL     ACCESS:    8152208  HIT:    8103609  MISS:      48599
cpu0_DTLB LOAD      ACCESS:    4961162  HIT:    4933232  MISS:      27930
cpu0_DTLB RFO       ACCESS:    3191046  HIT:    3170377  MISS:      20669
cpu0_DTLB PREFETCH  ACCESS:          0  HIT:          0  MISS:          0
cpu0_DTLB WRITEBACK ACCESS:          0  HIT:          0  MISS:          0
cpu0_ITLB TOTAL     ACCESS:    2232402  HIT:    2232402  MISS:          0
cpu0_ITLB LOAD      ACCESS:    2232402  HIT:    2232402  MISS:          0
cpu0_ITLB RFO       ACCESS:          0  HIT:          0  MISS:          0
cpu0_ITLB PREFETCH  ACCESS:          0  HIT:          0  MISS:          0
cpu0_ITLB WRITEBACK ACCESS:          0  HIT:          0  MISS:          0
cpu0_STLB TOTAL     ACCESS:      48599  HIT:      40496  MISS:       8103
cpu0_STLB LOAD      ACCESS:      27930  HIT:      23362  MISS:       4568
cpu0_STLB RFO       ACCESS:      20669  HIT:      17134  MISS:       3535
cpu0_STLB PREFETCH  ACCESS:          0  HIT:          0  MISS:          0
cpu0_STLB WRITEBACK ACCESS:          0  HIT:          0  MISS:          0
cpu0_L1D TOTAL     ACCESS:   11370436  HIT:   10728750  MISS:     641686
cpu0_L1D LOAD      ACCESS:    5093021  HIT:    4693606  MISS:     399415
cpu0_L1D RFO       ACCESS:    6269315  HIT:    6034036  MISS:     235279
cpu0_L1D PREFETCH  ACCESS:          0  HIT:          0  MISS:          0
cpu0_L1D WRITEBACK ACCESS:          0  HIT:          0  MISS:          0
cpu0_L2C TOTAL     ACCESS:     872453  HIT:     315583  MISS:     556870
cpu0_L2C LOAD      ACCESS:     399391  HIT:      68917  MISS:     330474
cpu0_L2C RFO       ACCESS:     228592  HIT:       2345  MISS:     226247
cpu0_L2C PREFETCH  ACCESS:          0  HIT:          0  MISS:          0
cpu0_L2C WRITEBACK ACCESS:     237478  HIT:     237333  MISS:        145
LLC TOTAL     ACCESS:     783132  HIT:      29351  MISS:     753781
LLC LOAD      ACCESS:     330474  HIT:      29315  MISS:     301159
LLC RFO       ACCESS:     226247  HIT:          0  MISS:     226247
LLC PREFETCH  ACCESS:          0  HIT:          0  MISS:          0
LLC WRITEBACK ACCESS:     226407  HIT:         34  MISS:     226373
Heartbeat CPU 0 instructions: 90000000 cycles: 100835941 heartbeat IPC: 0.453764 cumulative IPC: 0.452817 (Simulation time: 1 hr 59 min 28 sec) 

Region of Interest Statistics
cpu0_DTLB TOTAL     ACCESS:    8581228  HIT:    8529656  MISS:      51572
cpu0_DTLB LOAD      ACCESS:    5222280  HIT:    5192655  MISS:      29625
cpu0_DTLB RFO       ACCESS:    3358948  HIT:    3337001  MISS:      21947
cpu0_DTLB PREFETCH  ACCESS:          0  HIT:          0  MISS:          0
cpu0_DTLB WRITEBACK ACCESS:          0  HIT:          0  MISS:          0
cpu0_ITLB TOTAL     ACCESS:    2349701  HIT:    2349701  MISS:          0
cpu0_ITLB LOAD      ACCESS:    2349701  HIT:    2349701  MISS:          0
cpu0_ITLB RFO       ACCESS:          0  HIT:          0  MISS:          0
cpu0_ITLB PREFETCH  ACCESS:          0  HIT:          0  MISS:          0
cpu0_ITLB WRITEBACK ACCESS:          0  HIT:          0  MISS:          0
cpu0_STLB TOTAL     ACCESS:      51572  HIT:      43038  MISS:       8534
cpu0_STLB LOAD      ACCESS:      29625  HIT:      24815  MISS:       4810
cpu0_STLB RFO       ACCESS:      21947  HIT:      18223  MISS:       3724
cpu0_STLB PREFETCH  ACCESS:          0  HIT:          0  MISS:          0
cpu0_STLB WRITEBACK ACCESS:          0  HIT:          0  MISS:          0
cpu0_L1D TOTAL     ACCESS:   11968781  HIT:   11293301  MISS:     675480
cpu0_L1D LOAD      ACCESS:    5361075  HIT:    4940641  MISS:     420434
cpu0_L1D RFO       ACCESS:    6599175  HIT:    6351494  MISS:     247681
cpu0_L1D PREFETCH  ACCESS:          0  HIT:          0  MISS:          0
cpu0_L1D WRITEBACK ACCESS:          0  HIT:          0  MISS:          0
cpu0_L2C TOTAL     ACCESS:     918386  HIT:     332099  MISS:     586287
cpu0_L2C LOAD      ACCESS:     420410  HIT:      72431  MISS:     347979
cpu0_L2C RFO       ACCESS:     240619  HIT:       2465  MISS:     238154
cpu0_L2C PREFETCH  ACCESS:          0  HIT:          0  MISS:          0
cpu0_L2C WRITEBACK ACCESS:     249992  HIT:     249842  MISS:        150
LLC TOTAL     ACCESS:     824415  HIT:      31000  MISS:     793415
LLC LOAD      ACCESS:     347979  HIT:      30960  MISS:     317019
LLC RFO       ACCESS:     238154  HIT:          0  MISS:     238154
LLC PREFETCH  ACCESS:          0  HIT:          0  MISS:          0
LLC WRITEBACK ACCESS:     238278  HIT:         38  MISS:     238240
Heartbeat CPU 0 instructions: 92000002 cycles: 105264271 heartbeat IPC: 0.451638 cumulative IPC: 0.452761 (Simulation time: 2 hr 4 min 18 sec) 

Region of Interest Statistics
cpu0_DTLB TOTAL     ACCESS:    9010306  HIT:    8957009  MISS:      53297
cpu0_DTLB LOAD      ACCESS:    5483375  HIT:    5452752  MISS:      30623
cpu0_DTLB RFO       ACCESS:    3526931  HIT:    3504257  MISS:      22674
cpu0_DTLB PREFETCH  ACCESS:          0  HIT:          0  MISS:          0
cpu0_DTLB WRITEBACK ACCESS:          0  HIT:          0  MISS:          0
cpu0_ITLB TOTAL     ACCESS:    2467487  HIT:    2467487  MISS:          0
cpu0_ITLB LOAD      ACCESS:    2467487  HIT:    2467487  MISS:          0
cpu0_ITLB RFO       ACCESS:          0  HIT:          0  MISS:          0
cpu0_ITLB PREFETCH  ACCESS:          0  HIT:          0  MISS:          0
cpu0_ITLB WRITEBACK ACCESS:          0  HIT:          0  MISS:          0
cpu0_STLB TOTAL     ACCESS:      53297  HIT:      44345  MISS:       8952
cpu0_STLB LOAD      ACCESS:      30623  HIT:      25577  MISS:       5046
cpu0_STLB RFO       ACCESS:      22674  HIT:      18768  MISS:       3906
cpu0_STLB PREFETCH  ACCESS:          0  HIT:          0  MISS:          0
cpu0_STLB WRITEBACK ACCESS:          0  HIT:          0  MISS:          0
cpu0_L1D TOTAL     ACCESS:   12567268  HIT:   11858026  MISS:     709242
cpu0_L1D LOAD      ACCESS:    5629121  HIT:    5187665  MISS:     441456
cpu0_L1D RFO       ACCESS:    6929199  HIT:    6669140  MISS:     260059
cpu0_L1D PREFETCH  ACCESS:          0  HIT:          0  MISS:          0
cpu0_L1D WRITEBACK ACCESS:          0  HIT:          0  MISS:          0
cpu0_L2C TOTAL     ACCESS:     964284  HIT:     348681  MISS:     615603
cpu0_L2C LOAD      ACCESS:     441431  HIT:      76056  MISS:     365375
cpu0_L2C RFO       ACCESS:     252640  HIT:       2579  MISS:     250061
cpu0_L2C PREFETCH  ACCESS:          0  HIT:          0  MISS:          0
cpu0_L2C WRITEBACK ACCESS:     262486  HIT:     262327  MISS:        159
LLC TOTAL     ACCESS:     865700  HIT:      32539  MISS:     833161
LLC LOAD      ACCESS:     365375  HIT:      32494  MISS:     332881
LLC RFO       ACCESS:     250061  HIT:          0  MISS:     250061
LLC PREFETCH  ACCESS:          0  HIT:          0  MISS:          0
LLC WRITEBACK ACCESS:     250256  HIT:         43  MISS:     250213
Heartbeat CPU 0 instructions: 94000001 cycles: 109628358 heartbeat IPC: 0.458286 cumulative IPC: 0.453009 (Simulation time: 2 hr 8 min 56 sec) 

Region of Interest Statistics
cpu0_DTLB TOTAL     ACCESS:    9439198  HIT:    9382979  MISS:      56219
cpu0_DTLB LOAD      ACCESS:    5744428  HIT:    5712153  MISS:      32275
cpu0_DTLB RFO       ACCESS:    3694770  HIT:    3670826  MISS:      23944
cpu0_DTLB PREFETCH  ACCESS:          0  HIT:          0  MISS:          0
cpu0_DTLB WRITEBACK ACCESS:          0  HIT:          0  MISS:          0
cpu0_ITLB TOTAL     ACCESS:    2584600  HIT:    2584600  MISS:          0
cpu0_ITLB LOAD      ACCESS:    2584600  HIT:    2584600  MISS:          0
cpu0_ITLB RFO       ACCESS:          0  HIT:          0  MISS:          0
cpu0_ITLB PREFETCH  ACCESS:          0  HIT:          0  MISS:          0
cpu0_ITLB WRITEBACK ACCESS:          0  HIT:          0  MISS:          0
cpu0_STLB TOTAL     ACCESS:      56219  HIT:      46837  MISS:       9382
cpu0_STLB LOAD      ACCESS:      32275  HIT:      26988  MISS:       5287
cpu0_STLB RFO       ACCESS:      23944  HIT:      19849  MISS:       4095
cpu0_STLB PREFETCH  ACCESS:          0  HIT:          0  MISS:          0
cpu0_STLB WRITEBACK ACCESS:          0  HIT:          0  MISS:          0
cpu0_L1D TOTAL     ACCESS:   13165375  HIT:   12422354  MISS:     743021
cpu0_L1D LOAD      ACCESS:    5896989  HIT:    5434510  MISS:     462479
cpu0_L1D RFO       ACCESS:    7259008  HIT:    6986565  MISS:     272443
cpu0_L1D PREFETCH  ACCESS:          0  HIT:          0  MISS:          0
cpu0_L1D WRITEBACK ACCESS:          0  HIT:          0  MISS:          0
cpu0_L2C TOTAL     ACCESS:    1010207  HIT:     365077  MISS:     645130
cpu0_L2C LOAD      ACCESS:     462452  HIT:      79465  MISS:     382987
cpu0_L2C RFO       ACCESS:     264662  HIT:       2694  MISS:     261968
cpu0_L2C PREFETCH  ACCESS:          0  HIT:          0  MISS:          0
cpu0_L2C WRITEBACK ACCESS:     274994  HIT:     274827  MISS:        167
LLC TOTAL     ACCESS:     907202  HIT:      34247  MISS:     872955
LLC LOAD      ACCESS:     382987  HIT:      34201  MISS:     348786
LLC RFO       ACCESS:     261968  HIT:          0  MISS:     261968
LLC PREFETCH  ACCESS:          0  HIT:          0  MISS:          0
LLC WRITEBACK ACCESS:     262239  HIT:         44  MISS:     262195
Heartbeat CPU 0 instructions: 96000004 cycles: 114019973 heartbeat IPC: 0.455414 cumulative IPC: 0.453113 (Simulation time: 2 hr 13 min 39 sec) 

Region of Interest Statistics
cpu0_DTLB TOTAL     ACCESS:    9868260  HIT:    9809081  MISS:      59179
cpu0_DTLB LOAD      ACCESS:    6005578  HIT:    5971615  MISS:      33963
cpu0_DTLB RFO       ACCESS:    3862682  HIT:    3837466  MISS:      25216
cpu0_DTLB PREFETCH  ACCESS:          0  HIT:          0  MISS:          0
cpu0_DTLB WRITEBACK ACCESS:          0  HIT:          0  MISS:          0
cpu0_ITLB TOTAL     ACCESS:    2701899  HIT:    2701899  MISS:          0
cpu0_ITLB LOAD      ACCESS:    2701899  HIT:    2701899  MISS:          0
cpu0_ITLB RFO       ACCESS:          0  HIT:          0  MISS:          0
cpu0_ITLB PREFETCH  ACCESS:          0  HIT:          0  MISS:          0
cpu0_ITLB WRITEBACK ACCESS:          0  HIT:          0  MISS:          0
cpu0_STLB TOTAL     ACCESS:      59179  HIT:      49367  MISS:       9812
cpu0_STLB LOAD      ACCESS:      33963  HIT:      28435  MISS:       5528
cpu0_STLB RFO       ACCESS:      25216  HIT:      20932  MISS:       4284
cpu0_STLB PREFETCH  ACCESS:          0  HIT:          0  MISS:          0
cpu0_STLB WRITEBACK ACCESS:          0  HIT:          0  MISS:          0
cpu0_L1D TOTAL     ACCESS:   13763759  HIT:   12986930  MISS:     776829
cpu0_L1D LOAD      ACCESS:    6164899  HIT:    5681387  MISS:     483512
cpu0_L1D RFO       ACCESS:    7589053  HIT:    7304207  MISS:     284846
cpu0_L1D PREFETCH  ACCESS:          0  HIT:          0  MISS:          0
cpu0_L1D WRITEBACK ACCESS:          0  HIT:          0  MISS:          0
cpu0_L2C TOTAL     ACCESS:    1056154  HIT:     381538  MISS:     674616
cpu0_L2C LOAD      ACCESS:     483482  HIT:      82923  MISS:     400559
cpu0_L2C RFO       ACCESS:     276693  HIT:       2818  MISS:     273875
cpu0_L2C PREFETCH  ACCESS:          0  HIT:          0  MISS:          0
cpu0_L2C WRITEBACK ACCESS:     287508  HIT:     287334  MISS:        174
LLC TOTAL     ACCESS:     948672  HIT:      35891  MISS:     912781
LLC LOAD      ACCESS:     400559  HIT:      35844  MISS:     364715
LLC RFO       ACCESS:     273875  HIT:          0  MISS:     273875
LLC PREFETCH  ACCESS:          0  HIT:          0  MISS:          0
LLC WRITEBACK ACCESS:     274230  HIT:         45  MISS:     274185
Heartbeat CPU 0 instructions: 98000001 cycles: 118451245 heartbeat IPC: 0.451337 cumulative IPC: 0.453039 (Simulation time: 2 hr 18 min 26 sec) 

Region of Interest Statistics
cpu0_DTLB TOTAL     ACCESS:   10297337  HIT:   10236438  MISS:      60899
cpu0_DTLB LOAD      ACCESS:    6266713  HIT:    6231750  MISS:      34963
cpu0_DTLB RFO       ACCESS:    4030624  HIT:    4004688  MISS:      25936
cpu0_DTLB PREFETCH  ACCESS:          0  HIT:          0  MISS:          0
cpu0_DTLB WRITEBACK ACCESS:          0  HIT:          0  MISS:          0
cpu0_ITLB TOTAL     ACCESS:    2819687  HIT:    2819687  MISS:          0
cpu0_ITLB LOAD      ACCESS:    2819687  HIT:    2819687  MISS:          0
cpu0_ITLB RFO       ACCESS:          0  HIT:          0  MISS:          0
cpu0_ITLB PREFETCH  ACCESS:          0  HIT:          0  MISS:          0
cpu0_ITLB WRITEBACK ACCESS:          0  HIT:          0  MISS:          0
cpu0_STLB TOTAL     ACCESS:      60899  HIT:      50669  MISS:      10230
cpu0_STLB LOAD      ACCESS:      34963  HIT:      29199  MISS:       5764
cpu0_STLB RFO       ACCESS:      25936  HIT:      21470  MISS:       4466
cpu0_STLB PREFETCH  ACCESS:          0  HIT:          0  MISS:          0
cpu0_STLB WRITEBACK ACCESS:          0  HIT:          0  MISS:          0
cpu0_L1D TOTAL     ACCESS:   14361956  HIT:   13551379  MISS:     810577
cpu0_L1D LOAD      ACCESS:    6432834  HIT:    5928310  MISS:     504524
cpu0_L1D RFO       ACCESS:    7918897  HIT:    7621677  MISS:     297220
cpu0_L1D PREFETCH  ACCESS:          0  HIT:          0  MISS:          0
cpu0_L1D WRITEBACK ACCESS:          0  HIT:          0  MISS:          0
cpu0_L2C TOTAL     ACCESS:    1102043  HIT:     398077  MISS:     703966
cpu0_L2C LOAD      ACCESS:     504494  HIT:      86503  MISS:     417991
cpu0_L2C RFO       ACCESS:     288718  HIT:       2936  MISS:     285782
cpu0_L2C PREFETCH  ACCESS:          0  HIT:          0  MISS:          0
cpu0_L2C WRITEBACK ACCESS:     299998  HIT:     299814  MISS:        184
LLC TOTAL     ACCESS:     989857  HIT:      37513  MISS:     952344
LLC LOAD      ACCESS:     417991  HIT:      37464  MISS:     380527
LLC RFO       ACCESS:     285782  HIT:          0  MISS:     285782
LLC PREFETCH  ACCESS:          0  HIT:          0  MISS:          0
LLC WRITEBACK ACCESS:     286075  HIT:         47  MISS:     286028
Heartbeat CPU 0 instructions: 100000001 cycles: 122853819 heartbeat IPC: 0.45428 cumulative IPC: 0.453088 (Simulation time: 2 hr 23 min 9 sec) 

Region of Interest Statistics
cpu0_DTLB TOTAL     ACCESS:   10726440  HIT:   10662525  MISS:      63915
cpu0_DTLB LOAD      ACCESS:    6527854  HIT:    6491156  MISS:      36698
cpu0_DTLB RFO       ACCESS:    4198586  HIT:    4171369  MISS:      27217
cpu0_DTLB PREFETCH  ACCESS:          0  HIT:          0  MISS:          0
cpu0_DTLB WRITEBACK ACCESS:          0  HIT:          0  MISS:          0
cpu0_ITLB TOTAL     ACCESS:    2937290  HIT:    2937290  MISS:          0
cpu0_ITLB LOAD      ACCESS:    2937290  HIT:    2937290  MISS:          0
cpu0_ITLB RFO       ACCESS:          0  HIT:          0  MISS:          0
cpu0_ITLB PREFETCH  ACCESS:          0  HIT:          0  MISS:          0
cpu0_ITLB WRITEBACK ACCESS:          0  HIT:          0  MISS:          0
cpu0_STLB TOTAL     ACCESS:      63915  HIT:      53254  MISS:      10661
cpu0_STLB LOAD      ACCESS:      36698  HIT:      30692  MISS:       6006
cpu0_STLB RFO       ACCESS:      27217  HIT:      22562  MISS:       4655
cpu0_STLB PREFETCH  ACCESS:          0  HIT:          0  MISS:          0
cpu0_STLB WRITEBACK ACCESS:          0  HIT:          0  MISS:          0
cpu0_L1D TOTAL     ACCESS:   14960764  HIT:   14116395  MISS:     844369
cpu0_L1D LOAD      ACCESS:    6701198  HIT:    6175647  MISS:     525551
cpu0_L1D RFO       ACCESS:    8248911  HIT:    7939298  MISS:     309613
cpu0_L1D PREFETCH  ACCESS:          0  HIT:          0  MISS:          0
cpu0_L1D WRITEBACK ACCESS:          0  HIT:          0  MISS:          0
cpu0_L2C TOTAL     ACCESS:    1147973  HIT:     414914  MISS:     733059
cpu0_L2C LOAD      ACCESS:     525520  HIT:      90351  MISS:     435169
cpu0_L2C RFO       ACCESS:     300743  HIT:       3053  MISS:     297690
cpu0_L2C PREFETCH  ACCESS:          0  HIT:          0  MISS:          0
cpu0_L2C WRITEBACK ACCESS:     312505  HIT:     312314  MISS:        191
LLC TOTAL     ACCESS:    1030752  HIT:      39064  MISS:     991688
LLC LOAD      ACCESS:     435169  HIT:      39013  MISS:     396156
LLC RFO       ACCESS:     297690  HIT:          0  MISS:     297690
LLC PREFETCH  ACCESS:          0  HIT:          0  MISS:          0
LLC WRITEBACK ACCESS:     297884  HIT:         49  MISS:     297835
Heartbeat CPU 0 instructions: 102000003 cycles: 127215942 heartbeat IPC: 0.458493 cumulative IPC: 0.453294 (Simulation time: 2 hr 28 min 6 sec) 

Region of Interest Statistics
cpu0_DTLB TOTAL     ACCESS:   11155425  HIT:   11088554  MISS:      66871
cpu0_DTLB LOAD      ACCESS:    6788927  HIT:    6750541  MISS:      38386
cpu0_DTLB RFO       ACCESS:    4366498  HIT:    4338013  MISS:      28485
cpu0_DTLB PREFETCH  ACCESS:          0  HIT:          0  MISS:          0
cpu0_DTLB WRITEBACK ACCESS:          0  HIT:          0  MISS:          0
cpu0_ITLB TOTAL     ACCESS:    3054611  HIT:    3054611  MISS:          0
cpu0_ITLB LOAD      ACCESS:    3054611  HIT:    3054611  MISS:          0
cpu0_ITLB RFO       ACCESS:          0  HIT:          0  MISS:          0
cpu0_ITLB PREFETCH  ACCESS:          0  HIT:          0  MISS:          0
cpu0_ITLB WRITEBACK ACCESS:          0  HIT:          0  MISS:          0
cpu0_STLB TOTAL     ACCESS:      66871  HIT:      55792  MISS:      11079
cpu0_STLB LOAD      ACCESS:      38386  HIT:      32144  MISS:       6242
cpu0_STLB RFO       ACCESS:      28485  HIT:      23648  MISS:       4837
cpu0_STLB PREFETCH  ACCESS:          0  HIT:          0  MISS:          0
cpu0_STLB WRITEBACK ACCESS:          0  HIT:          0  MISS:          0
cpu0_L1D TOTAL     ACCESS:   15559306  HIT:   14681166  MISS:     878140
cpu0_L1D LOAD      ACCESS:    6969349  HIT:    6422777  MISS:     546572
cpu0_L1D RFO       ACCESS:    8578884  HIT:    8256883  MISS:     322001
cpu0_L1D PREFETCH  ACCESS:          0  HIT:          0  MISS:          0
cpu0_L1D WRITEBACK ACCESS:          0  HIT:          0  MISS:          0
cpu0_L2C TOTAL     ACCESS:    1193886  HIT:     431479  MISS:     762407
cpu0_L2C LOAD      ACCESS:     546539  HIT:      93937  MISS:     452602
cpu0_L2C RFO       ACCESS:     312770  HIT:       3173  MISS:     309597
cpu0_L2C PREFETCH  ACCESS:          0  HIT:          0  MISS:          0
cpu0_L2C WRITEBACK ACCESS:     325010  HIT:     324811  MISS:        199
LLC TOTAL     ACCESS:    1071882  HIT:      40713  MISS:    1031169
LLC LOAD      ACCESS:     452602  HIT:      40661  MISS:     411941
LLC RFO       ACCESS:     309597  HIT:          0  MISS:     309597
LLC PREFETCH  ACCESS:          0  HIT:          0  MISS:          0
LLC WRITEBACK ACCESS:     309674  HIT:         50  MISS:     309624
Heartbeat CPU 0 instructions: 104000000 cycles: 131637647 heartbeat IPC: 0.452314 cumulative IPC: 0.453258 (Simulation time: 2 hr 32 min 52 sec) 

Region of Interest Statistics
cpu0_DTLB TOTAL     ACCESS:   11584530  HIT:   11515897  MISS:      68633
cpu0_DTLB LOAD      ACCESS:    7050035  HIT:    7010622  MISS:      39413
cpu0_DTLB RFO       ACCESS:    4534495  HIT:    4505275  MISS:      29220
cpu0_DTLB PREFETCH  ACCESS:          0  HIT:          0  MISS:          0
cpu0_DTLB WRITEBACK ACCESS:          0  HIT:          0  MISS:          0
cpu0_ITLB TOTAL     ACCESS:    3172477  HIT:    3172477  MISS:          0
cpu0_ITLB LOAD      ACCESS:    3172477  HIT:    3172477  MISS:          0
cpu0_ITLB RFO       ACCESS:          0  HIT:          0  MISS:          0
cpu0_ITLB PREFETCH  ACCESS:          0  HIT:          0  MISS:          0
cpu0_ITLB WRITEBACK ACCESS:          0  HIT:          0  MISS:          0
cpu0_STLB TOTAL     ACCESS:      68633  HIT:      57123  MISS:      11510
cpu0_STLB LOAD      ACCESS:      39413  HIT:      32929  MISS:       6484
cpu0_STLB RFO       ACCESS:      29220  HIT:      24194  MISS:       5026
cpu0_STLB PREFETCH  ACCESS:          0  HIT:          0  MISS:          0
cpu0_STLB WRITEBACK ACCESS:          0  HIT:          0  MISS:          0
cpu0_L1D TOTAL     ACCESS:   16157866  HIT:   15245908  MISS:     911958
cpu0_L1D LOAD      ACCESS:    7237573  HIT:    6669966  MISS:     567607
cpu0_L1D RFO       ACCESS:    8908790  HIT:    8574379  MISS:     334411
cpu0_L1D PREFETCH  ACCESS:          0  HIT:          0  MISS:          0
cpu0_L1D WRITEBACK ACCESS:          0  HIT:          0  MISS:          0
cpu0_L2C TOTAL     ACCESS:    1239848  HIT:     448263  MISS:     791585
cpu0_L2C LOAD      ACCESS:     567574  HIT:      97716  MISS:     469858
cpu0_L2C RFO       ACCESS:     324800  HIT:       3290  MISS:     321510
cpu0_L2C PREFETCH  ACCESS:          0  HIT:          0  MISS:          0
cpu0_L2C WRITEBACK ACCESS:     337534  HIT:     337326  MISS:        208
LLC TOTAL     ACCESS:    1113183  HIT:      42362  MISS:    1070821
LLC LOAD      ACCESS:     469858  HIT:      42307  MISS:     427551
LLC RFO       ACCESS:     321510  HIT:          0  MISS:     321510
LLC PREFETCH  ACCESS:          0  HIT:          0  MISS:          0
LLC WRITEBACK ACCESS:     321806  HIT:         53  MISS:     321753
Heartbeat CPU 0 instructions: 106000000 cycles: 136052100 heartbeat IPC: 0.453057 cumulative IPC: 0.45325 (Simulation time: 2 hr 37 min 43 sec) 

Region of Interest Statistics
cpu0_DTLB TOTAL     ACCESS:   12013711  HIT:   11942089  MISS:      71622
cpu0_DTLB LOAD      ACCESS:    7311350  HIT:    7270230  MISS:      41120
cpu0_DTLB RFO       ACCESS:    4702361  HIT:    4671859  MISS:      30502
cpu0_DTLB PREFETCH  ACCESS:          0  HIT:          0  MISS:          0
cpu0_DTLB WRITEBACK ACCESS:          0  HIT:          0  MISS:          0
cpu0_ITLB TOTAL     ACCESS:    3289713  HIT:    3289713  MISS:          0
cpu0_ITLB LOAD      ACCESS:    3289713  HIT:    3289713  MISS:          0
cpu0_ITLB RFO       ACCESS:          0  HIT:          0  MISS:          0
cpu0_ITLB PREFETCH  ACCESS:          0  HIT:          0  MISS:          0
cpu0_ITLB WRITEBACK ACCESS:          0  HIT:          0  MISS:          0
cpu0_STLB TOTAL     ACCESS:      71622  HIT:      59681  MISS:      11941
cpu0_STLB LOAD      ACCESS:      41120  HIT:      34394  MISS:       6726
cpu0_STLB RFO       ACCESS:      30502  HIT:      25287  MISS:       5215
cpu0_STLB PREFETCH  ACCESS:          0  HIT:          0  MISS:          0
cpu0_STLB WRITEBACK ACCESS:          0  HIT:          0  MISS:          0
cpu0_L1D TOTAL     ACCESS:   16755987  HIT:   15810314  MISS:     945673
cpu0_L1D LOAD      ACCESS:    7505237  HIT:    6916627  MISS:     588610
cpu0_L1D RFO       ACCESS:    9238816  HIT:    8892067  MISS:     346749
cpu0_L1D PREFETCH  ACCESS:          0  HIT:          0  MISS:          0
cpu0_L1D WRITEBACK ACCESS:          0  HIT:          0  MISS:          0
cpu0_L2C TOTAL     ACCESS:    1285699  HIT:     464613  MISS:     821086
cpu0_L2C LOAD      ACCESS:     588574  HIT:     101132  MISS:     487442
cpu0_L2C RFO       ACCESS:     336820  HIT:       3403  MISS:     333417
cpu0_L2C PREFETCH  ACCESS:          0  HIT:          0  MISS:          0
cpu0_L2C WRITEBACK ACCESS:     349991  HIT:     349774  MISS:        217
LLC TOTAL     ACCESS:    1154536  HIT:      43821  MISS:    1110715
LLC LOAD      ACCESS:     487442  HIT:      43764  MISS:     443678
LLC RFO       ACCESS:     333417  HIT:          0  MISS:     333417
LLC PREFETCH  ACCESS:          0  HIT:          0  MISS:          0
LLC WRITEBACK ACCESS:     333667  HIT:         55  MISS:     333612
Heartbeat CPU 0 instructions: 108000002 cycles: 140457597 heartbeat IPC: 0.453979 cumulative IPC: 0.453275 (Simulation time: 2 hr 42 min 34 sec) 

Region of Interest Statistics
cpu0_DTLB TOTAL     ACCESS:   12442672  HIT:   12368053  MISS:      74619
cpu0_DTLB LOAD      ACCESS:    7572329  HIT:    7529483  MISS:      42846
cpu0_DTLB RFO       ACCESS:    4870343  HIT:    4838570  MISS:      31773
cpu0_DTLB PREFETCH  ACCESS:          0  HIT:          0  MISS:          0
cpu0_DTLB WRITEBACK ACCESS:          0  HIT:          0  MISS:          0
cpu0_ITLB TOTAL     ACCESS:    3407176  HIT:    3407176  MISS:          0
cpu0_ITLB LOAD      ACCESS:    3407176  HIT:    3407176  MISS:          0
cpu0_ITLB RFO       ACCESS:          0  HIT:          0  MISS:          0
cpu0_ITLB PREFETCH  ACCESS:          0  HIT:          0  MISS:          0
cpu0_ITLB WRITEBACK ACCESS:          0  HIT:          0  MISS:          0
cpu0_STLB TOTAL     ACCESS:      74619  HIT:      62260  MISS:      12359
cpu0_STLB LOAD      ACCESS:      42846  HIT:      35884  MISS:       6962
cpu0_STLB RFO       ACCESS:      31773  HIT:      26376  MISS:       5397
cpu0_STLB PREFETCH  ACCESS:          0  HIT:          0  MISS:          0
cpu0_STLB WRITEBACK ACCESS:          0  HIT:          0  MISS:          0
cpu0_L1D TOTAL     ACCESS:   17354697  HIT:   16375272  MISS:     979425
cpu0_L1D LOAD      ACCESS:    7773612  HIT:    7163976  MISS:     609636
cpu0_L1D RFO       ACCESS:    9568733  HIT:    9209618  MISS:     359115
cpu0_L1D PREFETCH  ACCESS:          0  HIT:          0  MISS:          0
cpu0_L1D WRITEBACK ACCESS:          0  HIT:          0  MISS:          0
cpu0_L2C TOTAL     ACCESS:    1331592  HIT:     481386  MISS:     850206
cpu0_L2C LOAD      ACCESS:     609598  HIT:     104949  MISS:     504649
cpu0_L2C RFO       ACCESS:     348846  HIT:       3522  MISS:     345324
cpu0_L2C PREFETCH  ACCESS:          0  HIT:          0  MISS:          0
cpu0_L2C WRITEBACK ACCESS:     362474  HIT:     362251  MISS:        223
LLC TOTAL     ACCESS:    1195453  HIT:      45467  MISS:    1149986
LLC LOAD      ACCESS:     504649  HIT:      45408  MISS:     459241
LLC RFO       ACCESS:     345324  HIT:          0  MISS:     345324
LLC PREFETCH  ACCESS:          0  HIT:          0  MISS:          0
LLC WRITEBACK ACCESS:     345470  HIT:         57  MISS:     345413
Heartbeat CPU 0 instructions: 110000004 cycles: 144882106 heartbeat IPC: 0.452028 cumulative IPC: 0.453234 (Simulation time: 2 hr 47 min 27 sec) 

Region of Interest Statistics
cpu0_DTLB TOTAL     ACCESS:   12871852  HIT:   12795476  MISS:      76376
cpu0_DTLB LOAD      ACCESS:    7833530  HIT:    7789664  MISS:      43866
cpu0_DTLB RFO       ACCESS:    5038322  HIT:    5005812  MISS:      32510
cpu0_DTLB PREFETCH  ACCESS:          0  HIT:          0  MISS:          0
cpu0_DTLB WRITEBACK ACCESS:          0  HIT:          0  MISS:          0
cpu0_ITLB TOTAL     ACCESS:    3525050  HIT:    3525050  MISS:          0
cpu0_ITLB LOAD      ACCESS:    3525050  HIT:    3525050  MISS:          0
cpu0_ITLB RFO       ACCESS:          0  HIT:          0  MISS:          0
cpu0_ITLB PREFETCH  ACCESS:          0  HIT:          0  MISS:          0
cpu0_ITLB WRITEBACK ACCESS:          0  HIT:          0  MISS:          0
cpu0_STLB TOTAL     ACCESS:      76376  HIT:      63587  MISS:      12789
cpu0_STLB LOAD      ACCESS:      43866  HIT:      36663  MISS:       7203
cpu0_STLB RFO       ACCESS:      32510  HIT:      26924  MISS:       5586
cpu0_STLB PREFETCH  ACCESS:          0  HIT:          0  MISS:          0
cpu0_STLB WRITEBACK ACCESS:          0  HIT:          0  MISS:          0
cpu0_L1D TOTAL     ACCESS:   17953267  HIT:   16940045  MISS:    1013222
cpu0_L1D LOAD      ACCESS:    8041799  HIT:    7411136  MISS:     630663
cpu0_L1D RFO       ACCESS:    9898686  HIT:    9527175  MISS:     371511
cpu0_L1D PREFETCH  ACCESS:          0  HIT:          0  MISS:          0
cpu0_L1D WRITEBACK ACCESS:          0  HIT:          0  MISS:          0
cpu0_L2C TOTAL     ACCESS:    1377530  HIT:     498244  MISS:     879286
cpu0_L2C LOAD      ACCESS:     630623  HIT:     108808  MISS:     521815
cpu0_L2C RFO       ACCESS:     360877  HIT:       3646  MISS:     357231
cpu0_L2C PREFETCH  ACCESS:          0  HIT:          0  MISS:          0
cpu0_L2C WRITEBACK ACCESS:     374982  HIT:     374752  MISS:        230
LLC TOTAL     ACCESS:    1236700  HIT:      46861  MISS:    1189839
LLC LOAD      ACCESS:     521815  HIT:      46800  MISS:     475015
LLC RFO       ACCESS:     357231  HIT:          0  MISS:     357231
LLC PREFETCH  ACCESS:          0  HIT:          0  MISS:          0
LLC WRITEBACK ACCESS:     357644  HIT:         59  MISS:     357585
Heartbeat CPU 0 instructions: 112000001 cycles: 149314212 heartbeat IPC: 0.451252 cumulative IPC: 0.45317 (Simulation time: 2 hr 52 min 17 sec) 

Region of Interest Statistics
cpu0_DTLB TOTAL     ACCESS:   13300792  HIT:   13221477  MISS:      79315
cpu0_DTLB LOAD      ACCESS:    8094542  HIT:    8049001  MISS:      45541
cpu0_DTLB RFO       ACCESS:    5206250  HIT:    5172476  MISS:      33774
cpu0_DTLB PREFETCH  ACCESS:          0  HIT:          0  MISS:          0
cpu0_DTLB WRITEBACK ACCESS:          0  HIT:          0  MISS:          0
cpu0_ITLB TOTAL     ACCESS:    3642279  HIT:    3642279  MISS:          0
cpu0_ITLB LOAD      ACCESS:    3642279  HIT:    3642279  MISS:          0
cpu0_ITLB RFO       ACCESS:          0  HIT:          0  MISS:          0
cpu0_ITLB PREFETCH  ACCESS:          0  HIT:          0  MISS:          0
cpu0_ITLB WRITEBACK ACCESS:          0  HIT:          0  MISS:          0
cpu0_STLB TOTAL     ACCESS:      79315  HIT:      66105  MISS:      13210
cpu0_STLB LOAD      ACCESS:      45541  HIT:      38099  MISS:       7442
cpu0_STLB RFO       ACCESS:      33774  HIT:      28006  MISS:       5768
cpu0_STLB PREFETCH  ACCESS:          0  HIT:          0  MISS:          0
cpu0_STLB WRITEBACK ACCESS:          0  HIT:          0  MISS:          0
cpu0_L1D TOTAL     ACCESS:   18551964  HIT:   17504970  MISS:    1046994
cpu0_L1D LOAD      ACCESS:    8310076  HIT:    7658387  MISS:     651689
cpu0_L1D RFO       ACCESS:   10228685  HIT:    9844790  MISS:     383895
cpu0_L1D PREFETCH  ACCESS:          0  HIT:          0  MISS:          0
cpu0_L1D WRITEBACK ACCESS:          0  HIT:          0  MISS:          0
cpu0_L2C TOTAL     ACCESS:    1423447  HIT:     514947  MISS:     908500
cpu0_L2C LOAD      ACCESS:     651648  HIT:     112533  MISS:     539115
cpu0_L2C RFO       ACCESS:     372903  HIT:       3765  MISS:     369138
cpu0_L2C PREFETCH  ACCESS:          0  HIT:          0  MISS:          0
cpu0_L2C WRITEBACK ACCESS:     387486  HIT:     387249  MISS:        237
LLC TOTAL     ACCESS:    1277719  HIT:      48420  MISS:    1229299
LLC LOAD      ACCESS:     539115  HIT:      48353  MISS:     490762
LLC RFO       ACCESS:     369138  HIT:          0  MISS:     369138
LLC PREFETCH  ACCESS:          0  HIT:          0  MISS:          0
LLC WRITEBACK ACCESS:     369456  HIT:         65  MISS:     369391
Heartbeat CPU 0 instructions: 114000001 cycles: 153766947 heartbeat IPC: 0.449162 cumulative IPC: 0.453043 (Simulation time: 2 hr 57 min 13 sec) 

Region of Interest Statistics
cpu0_DTLB TOTAL     ACCESS:   13729915  HIT:   13647613  MISS:      82302
cpu0_DTLB LOAD      ACCESS:    8355718  HIT:    8308466  MISS:      47252
cpu0_DTLB RFO       ACCESS:    5374197  HIT:    5339147  MISS:      35050
cpu0_DTLB PREFETCH  ACCESS:          0  HIT:          0  MISS:          0
cpu0_DTLB WRITEBACK ACCESS:          0  HIT:          0  MISS:          0
cpu0_ITLB TOTAL     ACCESS:    3759552  HIT:    3759552  MISS:          0
cpu0_ITLB LOAD      ACCESS:    3759552  HIT:    3759552  MISS:          0
cpu0_ITLB RFO       ACCESS:          0  HIT:          0  MISS:          0
cpu0_ITLB PREFETCH  ACCESS:          0  HIT:          0  MISS:          0
cpu0_ITLB WRITEBACK ACCESS:          0  HIT:          0  MISS:          0
cpu0_STLB TOTAL     ACCESS:      82302  HIT:      68664  MISS:      13638
cpu0_STLB LOAD      ACCESS:      47252  HIT:      39571  MISS:       7681
cpu0_STLB RFO       ACCESS:      35050  HIT:      29093  MISS:       5957
cpu0_STLB PREFETCH  ACCESS:          0  HIT:          0  MISS:          0
cpu0_STLB WRITEBACK ACCESS:          0  HIT:          0  MISS:          0
cpu0_L1D TOTAL     ACCESS:   19150334  HIT:   18069532  MISS:    1080802
cpu0_L1D LOAD      ACCESS:    8578117  HIT:    7905390  MISS:     672727
cpu0_L1D RFO       ACCESS:   10558586  HIT:   10162292  MISS:     396294
cpu0_L1D PREFETCH  ACCESS:          0  HIT:          0  MISS:          0
cpu0_L1D WRITEBACK ACCESS:          0  HIT:          0  MISS:          0
cpu0_L2C TOTAL     ACCESS:    1469406  HIT:     531525  MISS:     937881
cpu0_L2C LOAD      ACCESS:     672685  HIT:     116104  MISS:     556581
cpu0_L2C RFO       ACCESS:     384940  HIT:       3895  MISS:     381045
cpu0_L2C PREFETCH  ACCESS:          0  HIT:          0  MISS:          0
cpu0_L2C WRITEBACK ACCESS:     400000  HIT:     399755  MISS:        245
LLC TOTAL     ACCESS:    1318942  HIT:      50032  MISS:    1268910
LLC LOAD      ACCESS:     556581  HIT:      49964  MISS:     506617
LLC RFO       ACCESS:     381045  HIT:          0  MISS:     381045
LLC PREFETCH  ACCESS:          0  HIT:          0  MISS:          0
LLC WRITEBACK ACCESS:     381306  HIT:         66  MISS:     381240
Heartbeat CPU 0 instructions: 116000003 cycles: 158215910 heartbeat IPC: 0.449543 cumulative IPC: 0.452936 (Simulation time: 3 hr 2 min 13 sec) 

Region of Interest Statistics
cpu0_DTLB TOTAL     ACCESS:   14158993  HIT:   14074969  MISS:      84024
cpu0_DTLB LOAD      ACCESS:    8616828  HIT:    8568579  MISS:      48249
cpu0_DTLB RFO       ACCESS:    5542165  HIT:    5506390  MISS:      35775
cpu0_DTLB PREFETCH  ACCESS:          0  HIT:          0  MISS:          0
[...]
cpu0_ITLB LOAD      ACCESS:   87996176  HIT:   87996176  MISS:          0
cpu0_ITLB RFO       ACCESS:          0  HIT:          0  MISS:          0
cpu0_ITLB PREFETCH  ACCESS:          0  HIT:          0  MISS:          0
cpu0_ITLB WRITEBACK ACCESS:          0  HIT:          0  MISS:          0
cpu0_STLB TOTAL     ACCESS:    1917960  HIT:    1598801  MISS:     319159
cpu0_STLB LOAD      ACCESS:    1101942  HIT:     922139  MISS:     179803
cpu0_STLB RFO       ACCESS:     816018  HIT:     676662  MISS:     139356
cpu0_STLB PREFETCH  ACCESS:          0  HIT:          0  MISS:          0
cpu0_STLB WRITEBACK ACCESS:          0  HIT:          0  MISS:          0
cpu0_L1D TOTAL     ACCESS:  448227406  HIT:  422925534  MISS:   25301872
cpu0_L1D LOAD      ACCESS:  200761407  HIT:  185016135  MISS:   15745272
cpu0_L1D RFO       ACCESS:  247147014  HIT:  237873766  MISS:    9273248
cpu0_L1D PREFETCH  ACCESS:          0  HIT:          0  MISS:          0
cpu0_L1D WRITEBACK ACCESS:          0  HIT:          0  MISS:          0
cpu0_L2C TOTAL     ACCESS:   34398181  HIT:   12436524  MISS:   21961657
cpu0_L2C LOAD      ACCESS:   15744268  HIT:    2707136  MISS:   13037132
cpu0_L2C RFO       ACCESS:    9010582  HIT:      91729  MISS:    8918853
cpu0_L2C PREFETCH  ACCESS:          0  HIT:          0  MISS:          0
cpu0_L2C WRITEBACK ACCESS:    9359979  HIT:    9354486  MISS:       5493
LLC TOTAL     ACCESS:   30881438  HIT:    1149384  MISS:   29732054
LLC LOAD      ACCESS:   13037132  HIT:    1147826  MISS:   11889306
LLC RFO       ACCESS:    8918853  HIT:          0  MISS:    8918853
LLC PREFETCH  ACCESS:          0  HIT:          0  MISS:          0
LLC WRITEBACK ACCESS:    8925274  HIT:       1511  MISS:    8923763
Heartbeat CPU 0 instructions: 1550000003 cycles: 3318987602 heartbeat IPC: 0.45106 cumulative IPC: 0.453654 (Simulation time: 25 hr 54 min 48 sec) 

Region of Interest Statistics
cpu0_DTLB TOTAL     ACCESS:  321816203  HIT:  319896337  MISS:    1919866
cpu0_DTLB LOAD      ACCESS:  195858685  HIT:  194755633  MISS:    1103052
cpu0_DTLB RFO       ACCESS:  125957518  HIT:  125140704  MISS:     816814
cpu0_DTLB PREFETCH  ACCESS:          0  HIT:          0  MISS:          0
cpu0_DTLB WRITEBACK ACCESS:          0  HIT:          0  MISS:          0
cpu0_ITLB TOTAL     ACCESS:   88113908  HIT:   88113908  MISS:          0
cpu0_ITLB LOAD      ACCESS:   88113908  HIT:   88113908  MISS:          0
cpu0_ITLB RFO       ACCESS:          0  HIT:          0  MISS:          0
cpu0_ITLB PREFETCH  ACCESS:          0  HIT:          0  MISS:          0
cpu0_ITLB WRITEBACK ACCESS:          0  HIT:          0  MISS:          0
cpu0_STLB TOTAL     ACCESS:    1919866  HIT:    1600275  MISS:     319591
cpu0_STLB LOAD      ACCESS:    1103052  HIT:     923006  MISS:     180046
cpu0_STLB RFO       ACCESS:     816814  HIT:     677269  MISS:     139545
cpu0_STLB PREFETCH  ACCESS:          0  HIT:          0  MISS:          0
cpu0_STLB WRITEBACK ACCESS:          0  HIT:          0  MISS:          0
cpu0_L1D TOTAL     ACCESS:  448825907  HIT:  423490182  MISS:   25335725
cpu0_L1D LOAD      ACCESS:  201029446  HIT:  185263104  MISS:   15766342
cpu0_L1D RFO       ACCESS:  247477044  HIT:  238191382  MISS:    9285662
cpu0_L1D PREFETCH  ACCESS:          0  HIT:          0  MISS:          0
cpu0_L1D WRITEBACK ACCESS:          0  HIT:          0  MISS:          0
cpu0_L2C TOTAL     ACCESS:   34444199  HIT:   12453175  MISS:   21991024
cpu0_L2C LOAD      ACCESS:   15765337  HIT:    2710761  MISS:   13054576
cpu0_L2C RFO       ACCESS:    9022632  HIT:      91866  MISS:    8930766
cpu0_L2C PREFETCH  ACCESS:          0  HIT:          0  MISS:          0
cpu0_L2C WRITEBACK ACCESS:    9372509  HIT:    9367007  MISS:       5502
LLC TOTAL     ACCESS:   30922973  HIT:    1150972  MISS:   29772001
LLC LOAD      ACCESS:   13054576  HIT:    1149410  MISS:   11905166
LLC RFO       ACCESS:    8930766  HIT:          0  MISS:    8930766
LLC PREFETCH  ACCESS:          0  HIT:          0  MISS:          0
LLC WRITEBACK ACCESS:    8937451  HIT:       1514  MISS:    8935937
Finished CPU 0 instructions: 1500000002 cycles: 3306487525 cumulative IPC: 0.453654 (Simulation time: 25 hr 54 min 48 sec) 

ChampSim completed all CPUs

Region of Interest Statistics

CPU 0 cumulative IPC: 0.453654 instructions: 1500000002 cycles: 3306487525
cpu0_DTLB TOTAL     ACCESS:  321816203  HIT:  319896337  MISS:    1919866
cpu0_DTLB LOAD      ACCESS:  195858685  HIT:  194755633  MISS:    1103052
cpu0_DTLB RFO       ACCESS:  125957518  HIT:  125140704  MISS:     816814
cpu0_DTLB PREFETCH  ACCESS:          0  HIT:          0  MISS:          0
cpu0_DTLB WRITEBACK ACCESS:          0  HIT:          0  MISS:          0
cpu0_DTLB TRANSLATION ACCESS:          0  HIT:          0  MISS:          0
cpu0_DTLB PREFETCH  REQUESTED:          0  ISSUED:          0  USEFUL:          0  USELESS:          0
cpu0_DTLB AVERAGE MISS LATENCY: 44.3406 cycles
cpu0_ITLB TOTAL     ACCESS:   88113908  HIT:   88113908  MISS:          0
cpu0_ITLB LOAD      ACCESS:   88113908  HIT:   88113908  MISS:          0
cpu0_ITLB RFO       ACCESS:          0  HIT:          0  MISS:          0
cpu0_ITLB PREFETCH  ACCESS:          0  HIT:          0  MISS:          0
cpu0_ITLB WRITEBACK ACCESS:          0  HIT:          0  MISS:          0
cpu0_ITLB TRANSLATION ACCESS:          0  HIT:          0  MISS:          0
cpu0_ITLB PREFETCH  REQUESTED:          0  ISSUED:          0  USEFUL:          0  USELESS:          0
cpu0_ITLB AVERAGE MISS LATENCY: -nan cycles
cpu0_STLB TOTAL     ACCESS:    1919866  HIT:    1600275  MISS:     319591
cpu0_STLB LOAD      ACCESS:    1103052  HIT:     923006  MISS:     180046
cpu0_STLB RFO       ACCESS:     816814  HIT:     677269  MISS:     139545
cpu0_STLB PREFETCH  ACCESS:          0  HIT:          0  MISS:          0
cpu0_STLB WRITEBACK ACCESS:          0  HIT:          0  MISS:          0
cpu0_STLB TRANSLATION ACCESS:          0  HIT:          0  MISS:          0
cpu0_STLB PREFETCH  REQUESTED:          0  ISSUED:          0  USEFUL:          0  USELESS:          0
cpu0_STLB AVERAGE MISS LATENCY: 211.661 cycles
cpu0_L1D TOTAL     ACCESS:  448825907  HIT:  423490182  MISS:   25335725
cpu0_L1D LOAD      ACCESS:  201029446  HIT:  185263104  MISS:   15766342
cpu0_L1D RFO       ACCESS:  247477044  HIT:  238191382  MISS:    9285662
cpu0_L1D PREFETCH  ACCESS:          0  HIT:          0  MISS:          0
cpu0_L1D WRITEBACK ACCESS:          0  HIT:          0  MISS:          0
cpu0_L1D TRANSLATION ACCESS:     319417  HIT:      35696  MISS:     283721
cpu0_L1D PREFETCH  REQUESTED:          0  ISSUED:          0  USEFUL:          0  USELESS:          0
cpu0_L1D AVERAGE MISS LATENCY: 650.356 cycles
cpu0_L2C TOTAL     ACCESS:   34444199  HIT:   12453175  MISS:   21991024
cpu0_L2C LOAD      ACCESS:   15765337  HIT:    2710761  MISS:   13054576
cpu0_L2C RFO       ACCESS:    9022632  HIT:      91866  MISS:    8930766
cpu0_L2C PREFETCH  ACCESS:          0  HIT:          0  MISS:          0
cpu0_L2C WRITEBACK ACCESS:    9372509  HIT:    9367007  MISS:       5502
cpu0_L2C TRANSLATION ACCESS:     283721  HIT:     283541  MISS:        180
cpu0_L2C PREFETCH  REQUESTED:          0  ISSUED:          0  USEFUL:          0  USELESS:          0
cpu0_L2C AVERAGE MISS LATENCY: 736.666 cycles
LLC TOTAL     ACCESS:   30922973  HIT:    1150972  MISS:   29772001
LLC LOAD      ACCESS:   13054576  HIT:    1149410  MISS:   11905166
LLC RFO       ACCESS:    8930766  HIT:          0  MISS:    8930766
LLC PREFETCH  ACCESS:          0  HIT:          0  MISS:          0
LLC WRITEBACK ACCESS:    8937451  HIT:       1514  MISS:    8935937
LLC TRANSLATION ACCESS:        180  HIT:         48  MISS:        132
LLC PREFETCH  REQUESTED:          0  ISSUED:          0  USEFUL:          0  USELESS:          0
LLC AVERAGE MISS LATENCY: 528.629 cycles
~~~~~~~~~~Reuse Distance Profiler output~~~~~~~~~~
0	126344464	5594320
1	34408016	7640000
2	17852304	5511440
3	7760416	5253008
4	5627056	4513056
5	5411872	4523040
6	4155552	2763808
7	3785392	3211568
8	5374320	4886304
9	3865120	2841744
10	3137104	2194544
11	4295456	3845696
12	4389488	2403520
13	4793792	2668128
14	4421904	2240256
15	3148448	1020448
16	2620384	848896
17	2693456	1291232
18	3114720	1405008
19	2288048	1137408
20	3161568	1517248
21	2950192	1658464
22	3218560	1888352
23	4078016	2175840
24	3792016	2208192
25	5962336	3920208
26	6879168	4791488
27	6762624	3808880
28	7636880	5737376
29	7226592	4520784
30	6890816	4447536
31	7165568	4727760
32	7579120	3734032
33	7059584	3539728
34	6751408	3475136
35	4515984	2565680
36	5249664	2998320
37	3911264	2322944
38	3947712	2601104
39	4473200	2726304
40	3775760	2612800
41	2659600	1591808
42	2607152	2305440
43	1918288	1141040
44	2563232	1800016
45	2587664	1922176
46	2216592	1609072
47	1888432	1133296
48	2088688	1309552
49	1495264	1226368
50	1358400	1029456
51	2246944	2023616
52	1689024	1407664
53	1957120	1583712
54	1545792	1233520
55	1513328	1383248
56	2575424	2386032
57	1245744	1141488
58	2252304	2051024
59	2027760	1392304
60	2005568	1602432
61	1748784	1320672
62	1602000	1375600
63	1634832	1344176
64	3642016	2164240
66	5119728	2976896
68	3266240	1437152
70	1797552	1422256
72	764400	685168
74	1243760	859504
76	954288	682528
78	822224	597264
80	774736	556368
82	561984	459472
84	470960	408000
86	519776	487392
88	346112	322144
90	647824	633472
92	511312	448288
94	262816	216448
96	433776	416608
98	456576	390320
100	524320	248544
102	390400	208960
104	260000	153200
106	536240	288736
108	373680	283408
110	233008	179376
112	208384	185632
114	208896	188224
116	137360	122352
118	488016	457840
120	306256	286816
122	142016	136512
124	240032	233056
126	632880	632688
128	334704	334640
132	281584	281504
136	481712	481360
140	265184	263008
144	270848	263824
148	182208	179248
152	77008	76720
156	87920	87888
160	149440	149088
164	22416	21968
168	31264	31200
172	2256	2144
176	896	720
180	768	768
184	224	224
188	0	0
192	0	0
196	0	0
200	0	0
204	0	0
208	0	0
212	0	0
216	0	0
220	0	0
224	0	0
228	0	0
232	0	0
236	0	0
240	0	0
244	0	0
248	0	0
252	0	0
256	0	0
264	0	0
272	0	0
280	0	0
288	0	0
296	0	0
304	0	0
312	0	0
320	0	0
328	0	0
336	0	0
344	0	0
352	0	0
360	0	0
368	0	0
376	0	0
384	0	0
392	0	0
400	0	0
408	0	0
416	0	0
424	0	0
432	0	0
440	0	0
448	0	0
456	0	0
464	0	0
472	0	0
480	0	0
488	0	0
496	0	0
504	0	0
512	0	0
528	0	0
544	0	0
560	0	0
576	0	0
592	0	0
608	0	0
624	0	0
640	0	0
656	0	0
672	0	0
688	2640	2640
704	111536	111536
720	88096	88096
736	214320	214320
752	290416	290416
768	391056	391056
784	110688	110688
800	62896	62896
816	352	352
832	32	32
848	3360	3360
864	7264	7264
880	4048	4048
896	14544	14544
912	14640	14640
928	1088	1088
944	0	0
960	0	0
976	1920	1920
992	212176	212176
1008	327200	327200
1024	676464	676464
1056	131632	131632
1088	246528	246528
1120	66688	66688
1152	12848	12848
1184	48	48
1216	6752	6752
1248	7152	7152
1280	0	0
1312	0	0
1344	0	0
1376	0	0
1408	0	0
1440	0	0
1472	0	0
1504	0	0
1536	0	0
1568	0	0
1600	0	0
1632	0	0
1664	0	0
1696	0	0
1728	16	16
1760	2096	2096
1792	240	240
1824	66880	66880
1856	228944	228944
1888	486288	486288
1920	410896	410896
1952	60496	60496
1984	0	0
2016	16	16
2048	160	160
2112	36880	36880
2176	3888	3888
2240	0	0
2304	1040	1040
2368	2832	2832
2432	0	0
2496	0	0
2560	0	0
2624	128	128
2688	0	0
2752	0	0
2816	0	0
2880	0	0
2944	0	0
3008	0	0
3072	0	0
3136	0	0
3200	0	0
3264	0	0
3328	0	0
3392	0	0
3456	0	0
3520	0	0
3584	0	0
3648	0	0
3712	0	0
3776	0	0
3840	0	0
3904	0	0
3968	0	0
4032	0	0
4096	0	0
4224	0	0
4352	0	0
4480	0	0
4608	0	0
4736	0	0
4864	0	0
4992	0	0
5120	0	0
5248	0	0
5376	0	0
5504	0	0
5632	0	0
5760	0	0
5888	0	0
6016	0	0
6144	0	0
6272	0	0
6400	0	0
6528	0	0
6656	0	0
6784	0	0
6912	0	0
7040	0	0
7168	0	0
7296	0	0
7424	0	0
7552	0	0
7680	0	0
7808	0	0
7936	0	0
8064	0	0
8192	0	0
8448	0	0
8704	0	0
8960	0	0
9216	0	0
9472	0	0
9728	0	0
9984	0	0
10240	0	0
10496	0	0
10752	0	0
11008	0	0
11264	0	0
11520	0	0
11776	0	0
12032	0	0
12288	0	0
12544	0	0
12800	0	0
13056	0	0
13312	0	0
13568	0	0
13824	0	0
14080	0	0
14336	0	0
14592	0	0
14848	0	0
15104	0	0
15360	0	0
15616	0	0
15872	0	0
16128	0	0
16384	0	0
16896	0	0
17408	0	0
17920	0	0
18432	0	0
18944	0	0
19456	0	0
19968	0	0
20480	0	0
20992	0	0
21504	0	0
22016	0	0
22528	0	0
23040	0	0
23552	0	0
24064	0	0
24576	0	0
25088	0	0
25600	0	0
26112	0	0
26624	0	0
27136	0	0
27648	0	0
28160	0	0
28672	0	0
29184	0	0
29696	0	0
30208	0	0
30720	0	0
31232	0	0
31744	0	0
32256	0	0
32768	0	0
33792	0	0
34816	0	0
35840	0	0
36864	0	0
37888	0	0
38912	0	0
39936	0	0
40960	0	0
41984	0	0
43008	0	0
44032	0	0
45056	0	0
46080	0	0
47104	0	0
48128	0	0
49152	0	0
50176	0	0
51200	0	0
52224	0	0
53248	0	0
54272	0	0
55296	0	0
56320	0	0
57344	0	0
58368	0	0
59392	0	0
60416	0	0
61440	0	0
62464	0	0
63488	0	0
64512	0	0
65536	0	0
67584	0	0
69632	0	0
71680	0	0
73728	0	0
75776	0	0
77824	0	0
79872	0	0
81920	0	0
83968	0	0
86016	0	0
88064	0	0
90112	0	0
92160	0	0
94208	0	0
96256	0	0
98304	0	0
100352	0	0
102400	0	0
104448	0	0
106496	0	0
108544	0	0
110592	0	0
112640	0	0
114688	31712	31712
116736	1306096	1306096
118784	2384	2384
120832	80	80
122880	80	80
124928	16	16
126976	64	64
129024	64	64
131072	43328	43328
135168	0	0
139264	0	0
143360	0	0
147456	0	0
151552	0	0
155648	0	0
159744	0	0
163840	0	0
167936	0	0
172032	0	0
176128	0	0
180224	0	0
184320	0	0
188416	0	0
192512	0	0
196608	0	0
200704	0	0
204800	0	0
208896	0	0
212992	0	0
217088	0	0
221184	0	0
225280	0	0
229376	0	0
233472	1258384	1258384
237568	128	128
241664	64	64
245760	64	64
249856	80	80
253952	80	80
258048	144	144
262144	41840	41840
270336	0	0
278528	0	0
286720	0	0
294912	0	0
303104	0	0
311296	0	0
319488	0	0
327680	0	0
335872	0	0
344064	0	0
352256	0	0
360448	0	0
368640	0	0
376832	0	0
385024	0	0
393216	0	0
401408	0	0
409600	0	0
417792	0	0
425984	0	0
434176	0	0
442368	0	0
450560	0	0
458752	0	0
466944	0	0
475136	0	0
483328	0	0
491520	0	0
499712	0	0
507904	0	0
516096	0	0
524288	0	0
540672	0	0
557056	0	0
573440	0	0
589824	0	0
606208	0	0
622592	0	0
638976	0	0
655360	0	0
671744	0	0
688128	0	0
704512	0	0
720896	0	0
737280	0	0
753664	0	0
770048	0	0
786432	0	0
802816	0	0
819200	0	0
835584	0	0
851968	0	0
868352	0	0
884736	0	0
901120	0	0
917504	0	0
933888	0	0
950272	0	0
966656	0	0
983040	0	0
999424	0	0
1015808	0	0
1032192	0	0
1048576	0	0
1081344	0	0
1114112	0	0
1146880	0	0
1179648	0	0
1212416	0	0
1245184	0	0
1277952	0	0
1310720	0	0
1343488	0	0
1376256	0	0
1409024	0	0
1441792	0	0
1474560	0	0
1507328	0	0
1540096	0	0
1572864	0	0
1605632	0	0
1638400	0	0
1671168	0	0
1703936	0	0
1736704	0	0
1769472	0	0
1802240	0	0
1835008	0	0
1867776	0	0
1900544	0	0
1933312	0	0
1966080	0	0
1998848	0	0
2031616	0	0
2064384	0	0
2097152	0	0
2162688	0	0
2228224	0	0
2293760	0	0
2359296	0	0
2424832	0	0
2490368	0	0
2555904	0	0
2621440	0	0
2686976	0	0
2752512	0	0
2818048	0	0
2883584	0	0
2949120	0	0
3014656	0	0
3080192	0	0
3145728	0	0
3211264	0	0
3276800	0	0
3342336	0	0
3407872	0	0
3473408	0	0
3538944	0	0
3604480	0	0
3670016	0	0
3735552	0	0
3801088	0	0
3866624	0	0
3932160	0	0
3997696	0	0
4063232	0	0
4128768	0	0
4194304	0	0
4325376	0	0
4456448	0	0
4587520	0	0
4718592	0	0
4849664	0	0
4980736	0	0
5111808	0	0
5242880	0	0
5373952	0	0
5505024	0	0
5636096	0	0
5767168	0	0
5898240	0	0
6029312	0	0
6160384	0	0
6291456	0	0
6422528	0	0
6553600	0	0
6684672	0	0
6815744	0	0
6946816	0	0
7077888	0	0
7208960	0	0
7340032	0	0
7471104	0	0
7602176	0	0
7733248	0	0
7864320	0	0
7995392	0	0
8126464	0	0
8257536	0	0
8388608	0	0
8650752	0	0
8912896	0	0
9175040	0	0
9437184	0	0
9699328	0	0
9961472	0	0
10223616	0	0
10485760	0	0
10747904	0	0
11010048	0	0
11272192	0	0
11534336	0	0
11796480	0	0
12058624	0	0
12320768	0	0
12582912	0	0
12845056	0	0
13107200	0	0
13369344	0	0
13631488	0	0
13893632	0	0
14155776	0	0
14417920	0	0
14680064	0	0
14942208	0	0
15204352	28048	28048
15466496	1235840	1235840
15728640	5520	5520
15990784	5536	5536
16252928	5360	5360
16515072	5744	5744
16777216	10944	10944
17301504	6064	6064
17825792	0	0
18350080	0	0
18874368	0	0
19398656	0	0
19922944	0	0
20447232	0	0
20971520	0	0
21495808	0	0
22020096	0	0
22544384	0	0
23068672	0	0
23592960	0	0
24117248	0	0
24641536	0	0
25165824	0	0
25690112	0	0
26214400	0	0
26738688	0	0
27262976	0	0
27787264	0	0
28311552	0	0
28835840	0	0
29360128	0	0
29884416	0	0
30408704	0	0
30932992	1198288	1198288
31457280	11168	11168
31981568	10736	10736
32505856	11328	11328
33030144	2576	2576
33554432	0	0
34603008	0	0
35651584	0	0
36700160	0	0
37748736	0	0
38797312	0	0
39845888	0	0
40894464	0	0
41943040	0	0
42991616	0	0
44040192	0	0
45088768	0	0
46137344	0	0
47185920	0	0
48234496	0	0
49283072	0	0
50331648	0	0
51380224	0	0
52428800	0	0
53477376	0	0
54525952	0	0
55574528	0	0
56623104	0	0
57671680	0	0
58720256	0	0
59768832	0	0
60817408	0	0
61865984	0	0
62914560	0	0
63963136	0	0
65011712	0	0
66060288	0	0
67108864	0	0
69206016	0	0
71303168	0	0
73400320	0	0
75497472	0	0
77594624	0	0
79691776	0	0
81788928	0	0
83886080	0	0
85983232	0	0
88080384	0	0
90177536	0	0
92274688	0	0
94371840	0	0
96468992	0	0
98566144	0	0
100663296	0	0
102760448	0	0
104857600	0	0
106954752	0	0
109051904	0	0
111149056	0	0
113246208	0	0
115343360	0	0
117440512	0	0
119537664	0	0
121634816	0	0
123731968	0	0
125829120	0	0
127926272	0	0
130023424	0	0
132120576	0	0
134217728	0	0
138412032	0	0
142606336	0	0
146800640	0	0
150994944	0	0
155189248	0	0
159383552	0	0
163577856	0	0
167772160	0	0
171966464	0	0
176160768	0	0
180355072	0	0
184549376	0	0
188743680	0	0
192937984	0	0
197132288	0	0
201326592	0	0
205520896	0	0
209715200	0	0
213909504	0	0
218103808	0	0
222298112	0	0
226492416	0	0
230686720	0	0
234881024	0	0
239075328	0	0
243269632	0	0
247463936	0	0
251658240	0	0
255852544	0	0
260046848	0	0
264241152	0	0
268435456	0	0
276824064	0	0
285212672	0	0
293601280	0	0
301989888	0	0
310378496	0	0
318767104	0	0
327155712	0	0
335544320	0	0
343932928	0	0
352321536	0	0
360710144	0	0
369098752	0	0
377487360	0	0
385875968	0	0
394264576	0	0
402653184	0	0
411041792	0	0
419430400	0	0
427819008	0	0
436207616	0	0
444596224	0	0
452984832	0	0
461373440	0	0
469762048	0	0
478150656	0	0
486539264	0	0
494927872	0	0
503316480	0	0
511705088	0	0
520093696	0	0
528482304	0	0
536870912	0	0
553648128	0	0
570425344	0	0
587202560	0	0
603979776	0	0
620756992	0	0
637534208	0	0
654311424	0	0
671088640	0	0
687865856	0	0
704643072	0	0
721420288	0	0
738197504	0	0
754974720	0	0
771751936	0	0
788529152	0	0
805306368	0	0
822083584	0	0
838860800	0	0
855638016	0	0
872415232	0	0
889192448	0	0
905969664	0	0
922746880	0	0
939524096	0	0
956301312	0	0
973078528	0	0
989855744	0	0
1006632960	0	0
1023410176	0	0
1040187392	0	0
1056964608	0	0
1073741824	0	0
1107296256	0	0
1140850688	0	0
1174405120	0	0
1207959552	0	0
1241513984	0	0
1275068416	0	0
1308622848	0	0
1342177280	0	0
1375731712	0	0
1409286144	0	0
1442840576	0	0
1476395008	0	0
1509949440	0	0
1543503872	0	0
1577058304	0	0
1610612736	0	0
1644167168	0	0
1677721600	0	0
1711276032	0	0
1744830464	0	0
1778384896	0	0
1811939328	0	0
1845493760	0	0
1879048192	0	0
1912602624	0	0
1946157056	0	0
1979711488	0	0
2013265920	0	0
2046820352	0	0
2080374784	0	0
2113929216	0	0
2147483648	0	0
2214592512	0	0
2281701376	0	0
2348810240	0	0
2415919104	0	0
2483027968	0	0
2550136832	0	0
2617245696	0	0
2684354560	0	0
2751463424	0	0
2818572288	0	0
2885681152	0	0
2952790016	0	0
3019898880	0	0
3087007744	0	0
3154116608	0	0
3221225472	0	0
3288334336	0	0
3355443200	0	0
3422552064	0	0
3489660928	0	0
3556769792	0	0
3623878656	0	0
3690987520	0	0
3758096384	0	0
3825205248	0	0
3892314112	0	0
3959422976	0	0
4026531840	0	0
4093640704	0	0
4160749568	0	0
4227858432	0	0
~~~~~~~~~~Reuse Distance Profiler output end~~~~~~~~~~

Sampler size:1163163

DRAM Statistics
 CHANNEL 0
 RQ ROW_BUFFER_HIT:      20506  ROW_BUFFER_MISS:   20815558
 DBUS AVG_CONGESTED_CYCLE:    3.99922
 WQ ROW_BUFFER_HIT:      75355  ROW_BUFFER_MISS:    8861891  FULL:          0


CPU 0 Branch Prediction Accuracy: 61.242% MPKI: 3.27119 Average ROB Occupancy at Mispredict: 328.062
Branch type MPKI
BRANCH_DIRECT_JUMP: 0
BRANCH_INDIRECT: 0
BRANCH_CONDITIONAL: 3.27119
BRANCH_DIRECT_CALL: 0
BRANCH_INDIRECT_CALL: 0
BRANCH_RETURN: 0

