
*** ChampSim Multicore Out-of-Order Simulator ***

Warmup Instructions: 50000000
Simulation Instructions: 1500000000
Number of CPUs: 1
Off-chip DRAM Size: 4 GiB Channels: 1 Width: 64-bit Data Rate: 3200 MT/s

VirtualMemory physical capacity: 8588881920 num_ppages: 2096895
VirtualMemory page size: 4096 log2_page_size: 12

CPU 0 runs /s/traces/champsim_traces/623.xalancbmk_s-592B.champsimtrace.xz
CPU 0 Bimodal branch predictor
Basic BTB sets: 1024 ways: 8 indirect buffer size: 4096 RAS size: 64
Initializing LRU.
Initializing LRU.
Initializing LRU.
Initializing LRU.
Initializing rdLRU.
Initializing LRU.
Initializing mockingjay of size: 2048
Heartbeat CPU 0 instructions: 2000002 cycles: 626042 heartbeat IPC: 3.19468 cumulative IPC: 3.19468 (Simulation time: 0 hr 1 min 25 sec) 
Heartbeat CPU 0 instructions: 4000004 cycles: 1253168 heartbeat IPC: 3.18915 cumulative IPC: 3.19191 (Simulation time: 0 hr 2 min 47 sec) 
Heartbeat CPU 0 instructions: 6000004 cycles: 1883884 heartbeat IPC: 3.171 cumulative IPC: 3.18491 (Simulation time: 0 hr 4 min 12 sec) 
Heartbeat CPU 0 instructions: 8000000 cycles: 2516754 heartbeat IPC: 3.1602 cumulative IPC: 3.1787 (Simulation time: 0 hr 5 min 38 sec) 
Heartbeat CPU 0 instructions: 10000004 cycles: 3151758 heartbeat IPC: 3.14959 cumulative IPC: 3.17283 (Simulation time: 0 hr 7 min 4 sec) 
Heartbeat CPU 0 instructions: 12000000 cycles: 3788964 heartbeat IPC: 3.1387 cumulative IPC: 3.16709 (Simulation time: 0 hr 8 min 23 sec) 
Heartbeat CPU 0 instructions: 14000004 cycles: 4430977 heartbeat IPC: 3.11521 cumulative IPC: 3.15957 (Simulation time: 0 hr 9 min 45 sec) 
Heartbeat CPU 0 instructions: 16000003 cycles: 5078169 heartbeat IPC: 3.09027 cumulative IPC: 3.15074 (Simulation time: 0 hr 11 min 10 sec) 
Heartbeat CPU 0 instructions: 18000000 cycles: 5732742 heartbeat IPC: 3.05542 cumulative IPC: 3.13986 (Simulation time: 0 hr 12 min 37 sec) 
Heartbeat CPU 0 instructions: 20000004 cycles: 6396128 heartbeat IPC: 3.01484 cumulative IPC: 3.12689 (Simulation time: 0 hr 14 min 3 sec) 
Heartbeat CPU 0 instructions: 22000000 cycles: 7073409 heartbeat IPC: 2.95298 cumulative IPC: 3.11024 (Simulation time: 0 hr 15 min 34 sec) 
Heartbeat CPU 0 instructions: 24000001 cycles: 7645189 heartbeat IPC: 3.49785 cumulative IPC: 3.13923 (Simulation time: 0 hr 16 min 47 sec) 
Heartbeat CPU 0 instructions: 26000001 cycles: 8187422 heartbeat IPC: 3.68845 cumulative IPC: 3.1756 (Simulation time: 0 hr 17 min 57 sec) 
Heartbeat CPU 0 instructions: 28000001 cycles: 8761817 heartbeat IPC: 3.48192 cumulative IPC: 3.19568 (Simulation time: 0 hr 19 min 13 sec) 
Heartbeat CPU 0 instructions: 30000003 cycles: 9364416 heartbeat IPC: 3.31896 cumulative IPC: 3.20362 (Simulation time: 0 hr 20 min 33 sec) 
Heartbeat CPU 0 instructions: 32000003 cycles: 9906896 heartbeat IPC: 3.68677 cumulative IPC: 3.23007 (Simulation time: 0 hr 21 min 45 sec) 
Heartbeat CPU 0 instructions: 34000001 cycles: 10447366 heartbeat IPC: 3.70048 cumulative IPC: 3.25441 (Simulation time: 0 hr 22 min 56 sec) 
Heartbeat CPU 0 instructions: 36000000 cycles: 10986480 heartbeat IPC: 3.70979 cumulative IPC: 3.27675 (Simulation time: 0 hr 24 min 10 sec) 
Heartbeat CPU 0 instructions: 38000002 cycles: 11528443 heartbeat IPC: 3.69029 cumulative IPC: 3.2962 (Simulation time: 0 hr 25 min 20 sec) 
Heartbeat CPU 0 instructions: 40000001 cycles: 12071758 heartbeat IPC: 3.6811 cumulative IPC: 3.31352 (Simulation time: 0 hr 26 min 31 sec) 
Heartbeat CPU 0 instructions: 42000000 cycles: 12617464 heartbeat IPC: 3.66498 cumulative IPC: 3.32872 (Simulation time: 0 hr 27 min 41 sec) 
Heartbeat CPU 0 instructions: 44000003 cycles: 13163593 heartbeat IPC: 3.66214 cumulative IPC: 3.34255 (Simulation time: 0 hr 28 min 51 sec) 
Heartbeat CPU 0 instructions: 46000003 cycles: 13712133 heartbeat IPC: 3.64604 cumulative IPC: 3.35469 (Simulation time: 0 hr 29 min 59 sec) 
Heartbeat CPU 0 instructions: 48000000 cycles: 14261598 heartbeat IPC: 3.6399 cumulative IPC: 3.36568 (Simulation time: 0 hr 31 min 14 sec) 
Heartbeat CPU 0 instructions: 50000001 cycles: 14811623 heartbeat IPC: 3.6362 cumulative IPC: 3.37573 (Simulation time: 0 hr 32 min 24 sec) 

Warmup complete CPU 0 instructions: 50000001 cycles: 14811623 (Simulation time: 0 hr 32 min 24 sec) 

Heartbeat CPU 0 instructions: 52000000 cycles: 16869887 heartbeat IPC: 0.971692 cumulative IPC: 0.971692 (Simulation time: 0 hr 34 min 2 sec) 

Region of Interest Statistics
cpu0_DTLB TOTAL     ACCESS:     342722  HIT:     305896  MISS:      36826
cpu0_DTLB LOAD      ACCESS:     245951  HIT:     210164  MISS:      35787
cpu0_DTLB RFO       ACCESS:      96771  HIT:      95732  MISS:       1039
cpu0_DTLB PREFETCH  ACCESS:          0  HIT:          0  MISS:          0
cpu0_DTLB WRITEBACK ACCESS:          0  HIT:          0  MISS:          0
cpu0_ITLB TOTAL     ACCESS:     140295  HIT:     139247  MISS:       1048
cpu0_ITLB LOAD      ACCESS:     140295  HIT:     139247  MISS:       1048
cpu0_ITLB RFO       ACCESS:          0  HIT:          0  MISS:          0
cpu0_ITLB PREFETCH  ACCESS:          0  HIT:          0  MISS:          0
cpu0_ITLB WRITEBACK ACCESS:          0  HIT:          0  MISS:          0
cpu0_L1I TOTAL     ACCESS:     140513  HIT:     133994  MISS:       6519
cpu0_L1I LOAD      ACCESS:     140513  HIT:     133994  MISS:       6519
cpu0_L1I RFO       ACCESS:          0  HIT:          0  MISS:          0
cpu0_L1I PREFETCH  ACCESS:          0  HIT:          0  MISS:          0
cpu0_L1I WRITEBACK ACCESS:          0  HIT:          0  MISS:          0
cpu0_STLB TOTAL     ACCESS:      37874  HIT:      35783  MISS:       2091
cpu0_STLB LOAD      ACCESS:      36835  HIT:      34838  MISS:       1997
cpu0_STLB RFO       ACCESS:       1039  HIT:        945  MISS:         94
cpu0_STLB PREFETCH  ACCESS:          0  HIT:          0  MISS:          0
cpu0_STLB WRITEBACK ACCESS:          0  HIT:          0  MISS:          0
cpu0_L1D TOTAL     ACCESS:     452678  HIT:     374928  MISS:      77750
cpu0_L1D LOAD      ACCESS:     275070  HIT:     203163  MISS:      71907
cpu0_L1D RFO       ACCESS:     175556  HIT:     169912  MISS:       5644
cpu0_L1D PREFETCH  ACCESS:          0  HIT:          0  MISS:          0
cpu0_L1D WRITEBACK ACCESS:          0  HIT:          0  MISS:          0
cpu0_L2C TOTAL     ACCESS:      91620  HIT:      82968  MISS:       8652
cpu0_L2C LOAD      ACCESS:      78425  HIT:      74850  MISS:       3575
cpu0_L2C RFO       ACCESS:       5644  HIT:        567  MISS:       5077
cpu0_L2C PREFETCH  ACCESS:          0  HIT:          0  MISS:          0
cpu0_L2C WRITEBACK ACCESS:       7352  HIT:       7352  MISS:          0
LLC TOTAL     ACCESS:      14039  HIT:       7521  MISS:       6518
LLC LOAD      ACCESS:       3575  HIT:       3363  MISS:        212
LLC RFO       ACCESS:       5077  HIT:         47  MISS:       5030
LLC PREFETCH  ACCESS:          0  HIT:          0  MISS:          0
LLC WRITEBACK ACCESS:       5387  HIT:       4111  MISS:       1276
Heartbeat CPU 0 instructions: 54000001 cycles: 18922632 heartbeat IPC: 0.974306 cumulative IPC: 0.972997 (Simulation time: 0 hr 35 min 39 sec) 

Region of Interest Statistics
cpu0_DTLB TOTAL     ACCESS:     681958  HIT:     608231  MISS:      73727
cpu0_DTLB LOAD      ACCESS:     490595  HIT:     419037  MISS:      71558
cpu0_DTLB RFO       ACCESS:     191363  HIT:     189194  MISS:       2169
cpu0_DTLB PREFETCH  ACCESS:          0  HIT:          0  MISS:          0
cpu0_DTLB WRITEBACK ACCESS:          0  HIT:          0  MISS:          0
cpu0_ITLB TOTAL     ACCESS:     277054  HIT:     274979  MISS:       2075
cpu0_ITLB LOAD      ACCESS:     277054  HIT:     274979  MISS:       2075
cpu0_ITLB RFO       ACCESS:          0  HIT:          0  MISS:          0
cpu0_ITLB PREFETCH  ACCESS:          0  HIT:          0  MISS:          0
cpu0_ITLB WRITEBACK ACCESS:          0  HIT:          0  MISS:          0
cpu0_L1I TOTAL     ACCESS:     277949  HIT:     265053  MISS:      12896
cpu0_L1I LOAD      ACCESS:     277949  HIT:     265053  MISS:      12896
cpu0_L1I RFO       ACCESS:          0  HIT:          0  MISS:          0
cpu0_L1I PREFETCH  ACCESS:          0  HIT:          0  MISS:          0
cpu0_L1I WRITEBACK ACCESS:          0  HIT:          0  MISS:          0
cpu0_STLB TOTAL     ACCESS:      75802  HIT:      71569  MISS:       4233
cpu0_STLB LOAD      ACCESS:      73633  HIT:      69592  MISS:       4041
cpu0_STLB RFO       ACCESS:       2169  HIT:       1977  MISS:        192
cpu0_STLB PREFETCH  ACCESS:          0  HIT:          0  MISS:          0
cpu0_STLB WRITEBACK ACCESS:          0  HIT:          0  MISS:          0
cpu0_L1D TOTAL     ACCESS:     899605  HIT:     743155  MISS:     156450
cpu0_L1D LOAD      ACCESS:     548028  HIT:     403158  MISS:     144870
cpu0_L1D RFO       ACCESS:     347427  HIT:     336243  MISS:      11184
cpu0_L1D PREFETCH  ACCESS:          0  HIT:          0  MISS:          0
cpu0_L1D WRITEBACK ACCESS:          0  HIT:          0  MISS:          0
cpu0_L2C TOTAL     ACCESS:     184076  HIT:     166991  MISS:      17085
cpu0_L2C LOAD      ACCESS:     157761  HIT:     150706  MISS:       7055
cpu0_L2C RFO       ACCESS:      11184  HIT:       1157  MISS:      10027
cpu0_L2C PREFETCH  ACCESS:          0  HIT:          0  MISS:          0
cpu0_L2C WRITEBACK ACCESS:      14735  HIT:      14735  MISS:          0
LLC TOTAL     ACCESS:      27742  HIT:      14647  MISS:      13095
LLC LOAD      ACCESS:       7055  HIT:       6554  MISS:        501
LLC RFO       ACCESS:      10027  HIT:         95  MISS:       9932
LLC PREFETCH  ACCESS:          0  HIT:          0  MISS:          0
LLC WRITEBACK ACCESS:      10657  HIT:       7997  MISS:       2660
Heartbeat CPU 0 instructions: 56000002 cycles: 20942821 heartbeat IPC: 0.990007 cumulative IPC: 0.978602 (Simulation time: 0 hr 37 min 14 sec) 

Region of Interest Statistics
cpu0_DTLB TOTAL     ACCESS:    1017282  HIT:     908272  MISS:     109010
cpu0_DTLB LOAD      ACCESS:     732616  HIT:     627031  MISS:     105585
cpu0_DTLB RFO       ACCESS:     284666  HIT:     281241  MISS:       3425
cpu0_DTLB PREFETCH  ACCESS:          0  HIT:          0  MISS:          0
cpu0_DTLB WRITEBACK ACCESS:          0  HIT:          0  MISS:          0
cpu0_ITLB TOTAL     ACCESS:     411934  HIT:     408845  MISS:       3089
cpu0_ITLB LOAD      ACCESS:     411934  HIT:     408845  MISS:       3089
cpu0_ITLB RFO       ACCESS:          0  HIT:          0  MISS:          0
cpu0_ITLB PREFETCH  ACCESS:          0  HIT:          0  MISS:          0
cpu0_ITLB WRITEBACK ACCESS:          0  HIT:          0  MISS:          0
cpu0_L1I TOTAL     ACCESS:     413577  HIT:     394371  MISS:      19206
cpu0_L1I LOAD      ACCESS:     413577  HIT:     394371  MISS:      19206
cpu0_L1I RFO       ACCESS:          0  HIT:          0  MISS:          0
cpu0_L1I PREFETCH  ACCESS:          0  HIT:          0  MISS:          0
cpu0_L1I WRITEBACK ACCESS:          0  HIT:          0  MISS:          0
cpu0_STLB TOTAL     ACCESS:     112099  HIT:     105828  MISS:       6271
cpu0_STLB LOAD      ACCESS:     108674  HIT:     102687  MISS:       5987
cpu0_STLB RFO       ACCESS:       3425  HIT:       3141  MISS:        284
cpu0_STLB PREFETCH  ACCESS:          0  HIT:          0  MISS:          0
cpu0_STLB WRITEBACK ACCESS:          0  HIT:          0  MISS:          0
cpu0_L1D TOTAL     ACCESS:    1340567  HIT:    1107048  MISS:     233519
cpu0_L1D LOAD      ACCESS:     816748  HIT:     600572  MISS:     216176
cpu0_L1D RFO       ACCESS:     517671  HIT:     500933  MISS:      16738
cpu0_L1D PREFETCH  ACCESS:          0  HIT:          0  MISS:          0
cpu0_L1D WRITEBACK ACCESS:          0  HIT:          0  MISS:          0
cpu0_L2C TOTAL     ACCESS:     274616  HIT:     248994  MISS:      25622
cpu0_L2C LOAD      ACCESS:     235377  HIT:     224672  MISS:      10705
cpu0_L2C RFO       ACCESS:      16738  HIT:       1826  MISS:      14912
cpu0_L2C PREFETCH  ACCESS:          0  HIT:          0  MISS:          0
cpu0_L2C WRITEBACK ACCESS:      21896  HIT:      21896  MISS:          0
LLC TOTAL     ACCESS:      41463  HIT:      22197  MISS:      19266
LLC LOAD      ACCESS:      10703  HIT:       9939  MISS:        764
LLC RFO       ACCESS:      14912  HIT:        150  MISS:      14762
LLC PREFETCH  ACCESS:          0  HIT:          0  MISS:          0
LLC WRITEBACK ACCESS:      15843  HIT:      12105  MISS:       3738
Heartbeat CPU 0 instructions: 58000001 cycles: 22941578 heartbeat IPC: 1.00062 cumulative IPC: 0.984015 (Simulation time: 0 hr 38 min 55 sec) 

Region of Interest Statistics
cpu0_DTLB TOTAL     ACCESS:    1348379  HIT:    1203699  MISS:     144680
cpu0_DTLB LOAD      ACCESS:     972864  HIT:     832936  MISS:     139928
cpu0_DTLB RFO       ACCESS:     375515  HIT:     370763  MISS:       4752
cpu0_DTLB PREFETCH  ACCESS:          0  HIT:          0  MISS:          0
cpu0_DTLB WRITEBACK ACCESS:          0  HIT:          0  MISS:          0
cpu0_ITLB TOTAL     ACCESS:     543670  HIT:     539593  MISS:       4077
cpu0_ITLB LOAD      ACCESS:     543670  HIT:     539593  MISS:       4077
cpu0_ITLB RFO       ACCESS:          0  HIT:          0  MISS:          0
cpu0_ITLB PREFETCH  ACCESS:          0  HIT:          0  MISS:          0
cpu0_ITLB WRITEBACK ACCESS:          0  HIT:          0  MISS:          0
cpu0_L1I TOTAL     ACCESS:     545748  HIT:     520407  MISS:      25341
cpu0_L1I LOAD      ACCESS:     545748  HIT:     520407  MISS:      25341
cpu0_L1I RFO       ACCESS:          0  HIT:          0  MISS:          0
cpu0_L1I PREFETCH  ACCESS:          0  HIT:          0  MISS:          0
cpu0_L1I WRITEBACK ACCESS:          0  HIT:          0  MISS:          0
cpu0_STLB TOTAL     ACCESS:     148757  HIT:     140459  MISS:       8298
cpu0_STLB LOAD      ACCESS:     144005  HIT:     136092  MISS:       7913
cpu0_STLB RFO       ACCESS:       4752  HIT:       4367  MISS:        385
cpu0_STLB PREFETCH  ACCESS:          0  HIT:          0  MISS:          0
cpu0_STLB WRITEBACK ACCESS:          0  HIT:          0  MISS:          0
cpu0_L1D TOTAL     ACCESS:    1775058  HIT:    1463534  MISS:     311524
cpu0_L1D LOAD      ACCESS:    1082746  HIT:     794194  MISS:     288552
cpu0_L1D RFO       ACCESS:     684185  HIT:     662024  MISS:      22161
cpu0_L1D PREFETCH  ACCESS:          0  HIT:          0  MISS:          0
cpu0_L1D WRITEBACK ACCESS:          0  HIT:          0  MISS:          0
cpu0_L2C TOTAL     ACCESS:     365913  HIT:     332353  MISS:      33560
cpu0_L2C LOAD      ACCESS:     313888  HIT:     299992  MISS:      13896
cpu0_L2C RFO       ACCESS:      22161  HIT:       2505  MISS:      19656
cpu0_L2C PREFETCH  ACCESS:          0  HIT:          0  MISS:          0
cpu0_L2C WRITEBACK ACCESS:      29053  HIT:      29053  MISS:          0
LLC TOTAL     ACCESS:      54428  HIT:      29073  MISS:      25355
LLC LOAD      ACCESS:      13894  HIT:      12944  MISS:        950
LLC RFO       ACCESS:      19656  HIT:        181  MISS:      19475
LLC PREFETCH  ACCESS:          0  HIT:          0  MISS:          0
LLC WRITEBACK ACCESS:      20870  HIT:      15942  MISS:       4928
Heartbeat CPU 0 instructions: 60000000 cycles: 24906473 heartbeat IPC: 1.01787 cumulative IPC: 0.990604 (Simulation time: 0 hr 40 min 32 sec) 

Region of Interest Statistics
cpu0_DTLB TOTAL     ACCESS:    1676325  HIT:    1498777  MISS:     177548
cpu0_DTLB LOAD      ACCESS:    1211498  HIT:    1039859  MISS:     171639
cpu0_DTLB RFO       ACCESS:     464827  HIT:     458918  MISS:       5909
cpu0_DTLB PREFETCH  ACCESS:          0  HIT:          0  MISS:          0
cpu0_DTLB WRITEBACK ACCESS:          0  HIT:          0  MISS:          0
cpu0_ITLB TOTAL     ACCESS:     672555  HIT:     667490  MISS:       5065
cpu0_ITLB LOAD      ACCESS:     672555  HIT:     667490  MISS:       5065
cpu0_ITLB RFO       ACCESS:          0  HIT:          0  MISS:          0
cpu0_ITLB PREFETCH  ACCESS:          0  HIT:          0  MISS:          0
cpu0_ITLB WRITEBACK ACCESS:          0  HIT:          0  MISS:          0
cpu0_L1I TOTAL     ACCESS:     677267  HIT:     645579  MISS:      31688
cpu0_L1I LOAD      ACCESS:     677267  HIT:     645579  MISS:      31688
cpu0_L1I RFO       ACCESS:          0  HIT:          0  MISS:          0
cpu0_L1I PREFETCH  ACCESS:          0  HIT:          0  MISS:          0
cpu0_L1I WRITEBACK ACCESS:          0  HIT:          0  MISS:          0
cpu0_STLB TOTAL     ACCESS:     182613  HIT:     172356  MISS:      10257
cpu0_STLB LOAD      ACCESS:     176704  HIT:     166930  MISS:       9774
cpu0_STLB RFO       ACCESS:       5909  HIT:       5426  MISS:        483
cpu0_STLB PREFETCH  ACCESS:          0  HIT:          0  MISS:          0
cpu0_STLB WRITEBACK ACCESS:          0  HIT:          0  MISS:          0
cpu0_L1D TOTAL     ACCESS:    2202559  HIT:    1815608  MISS:     386951
cpu0_L1D LOAD      ACCESS:    1344646  HIT:     986193  MISS:     358453
cpu0_L1D RFO       ACCESS:     847871  HIT:     820393  MISS:      27478
cpu0_L1D PREFETCH  ACCESS:          0  HIT:          0  MISS:          0
cpu0_L1D WRITEBACK ACCESS:          0  HIT:          0  MISS:          0
cpu0_L2C TOTAL     ACCESS:     454445  HIT:     412978  MISS:      41467
cpu0_L2C LOAD      ACCESS:     390136  HIT:     373049  MISS:      17087
cpu0_L2C RFO       ACCESS:      27478  HIT:       3107  MISS:      24371
cpu0_L2C PREFETCH  ACCESS:          0  HIT:          0  MISS:          0
cpu0_L2C WRITEBACK ACCESS:      35811  HIT:      35811  MISS:          0
LLC TOTAL     ACCESS:      67281  HIT:      35794  MISS:      31487
LLC LOAD      ACCESS:      17085  HIT:      15943  MISS:       1142
LLC RFO       ACCESS:      24372  HIT:        220  MISS:      24152
LLC PREFETCH  ACCESS:          0  HIT:          0  MISS:          0
LLC WRITEBACK ACCESS:      25815  HIT:      19624  MISS:       6191
Heartbeat CPU 0 instructions: 62000000 cycles: 26894412 heartbeat IPC: 1.00607 cumulative IPC: 0.993148 (Simulation time: 0 hr 42 min 11 sec) 

Region of Interest Statistics
cpu0_DTLB TOTAL     ACCESS:    2000899  HIT:    1789198  MISS:     211701
cpu0_DTLB LOAD      ACCESS:    1450276  HIT:    1245546  MISS:     204730
cpu0_DTLB RFO       ACCESS:     550623  HIT:     543652  MISS:       6971
cpu0_DTLB PREFETCH  ACCESS:          0  HIT:          0  MISS:          0
cpu0_DTLB WRITEBACK ACCESS:          0  HIT:          0  MISS:          0
cpu0_ITLB TOTAL     ACCESS:     797464  HIT:     791450  MISS:       6014
cpu0_ITLB LOAD      ACCESS:     797464  HIT:     791450  MISS:       6014
cpu0_ITLB RFO       ACCESS:          0  HIT:          0  MISS:          0
cpu0_ITLB PREFETCH  ACCESS:          0  HIT:          0  MISS:          0
cpu0_ITLB WRITEBACK ACCESS:          0  HIT:          0  MISS:          0
cpu0_L1I TOTAL     ACCESS:     804821  HIT:     766895  MISS:      37926
cpu0_L1I LOAD      ACCESS:     804821  HIT:     766895  MISS:      37926
cpu0_L1I RFO       ACCESS:          0  HIT:          0  MISS:          0
cpu0_L1I PREFETCH  ACCESS:          0  HIT:          0  MISS:          0
cpu0_L1I WRITEBACK ACCESS:          0  HIT:          0  MISS:          0
cpu0_STLB TOTAL     ACCESS:     217715  HIT:     205416  MISS:      12299
cpu0_STLB LOAD      ACCESS:     210744  HIT:     199032  MISS:      11712
cpu0_STLB RFO       ACCESS:       6971  HIT:       6384  MISS:        587
cpu0_STLB PREFETCH  ACCESS:          0  HIT:          0  MISS:          0
cpu0_STLB WRITEBACK ACCESS:          0  HIT:          0  MISS:          0
cpu0_L1D TOTAL     ACCESS:    2622035  HIT:    2154386  MISS:     467649
cpu0_L1D LOAD      ACCESS:    1605142  HIT:    1171542  MISS:     433600
cpu0_L1D RFO       ACCESS:    1004846  HIT:     972033  MISS:      32813
cpu0_L1D PREFETCH  ACCESS:          0  HIT:          0  MISS:          0
cpu0_L1D WRITEBACK ACCESS:          0  HIT:          0  MISS:          0
cpu0_L2C TOTAL     ACCESS:     548391  HIT:     499017  MISS:      49374
cpu0_L2C LOAD      ACCESS:     471521  HIT:     451154  MISS:      20367
cpu0_L2C RFO       ACCESS:      32813  HIT:       3815  MISS:      28998
cpu0_L2C PREFETCH  ACCESS:          0  HIT:          0  MISS:          0
cpu0_L2C WRITEBACK ACCESS:      42821  HIT:      42821  MISS:          0
LLC TOTAL     ACCESS:      80078  HIT:      42671  MISS:      37407
LLC LOAD      ACCESS:      20365  HIT:      19031  MISS:       1334
LLC RFO       ACCESS:      28998  HIT:        267  MISS:      28731
LLC PREFETCH  ACCESS:          0  HIT:          0  MISS:          0
LLC WRITEBACK ACCESS:      30706  HIT:      23366  MISS:       7340
Heartbeat CPU 0 instructions: 64000002 cycles: 28858272 heartbeat IPC: 1.0184 cumulative IPC: 0.996679 (Simulation time: 0 hr 43 min 49 sec) 

Region of Interest Statistics
cpu0_DTLB TOTAL     ACCESS:    2322986  HIT:    2079166  MISS:     243820
cpu0_DTLB LOAD      ACCESS:    1687303  HIT:    1451415  MISS:     235888
cpu0_DTLB RFO       ACCESS:     635683  HIT:     627751  MISS:       7932
cpu0_DTLB PREFETCH  ACCESS:          0  HIT:          0  MISS:          0
cpu0_DTLB WRITEBACK ACCESS:          0  HIT:          0  MISS:          0
cpu0_ITLB TOTAL     ACCESS:     922271  HIT:     915308  MISS:       6963
cpu0_ITLB LOAD      ACCESS:     922271  HIT:     915308  MISS:       6963
cpu0_ITLB RFO       ACCESS:          0  HIT:          0  MISS:          0
cpu0_ITLB PREFETCH  ACCESS:          0  HIT:          0  MISS:          0
cpu0_ITLB WRITEBACK ACCESS:          0  HIT:          0  MISS:          0
cpu0_L1I TOTAL     ACCESS:     931497  HIT:     887359  MISS:      44138
cpu0_L1I LOAD      ACCESS:     931497  HIT:     887359  MISS:      44138
cpu0_L1I RFO       ACCESS:          0  HIT:          0  MISS:          0
cpu0_L1I PREFETCH  ACCESS:          0  HIT:          0  MISS:          0
cpu0_L1I WRITEBACK ACCESS:          0  HIT:          0  MISS:          0
cpu0_STLB TOTAL     ACCESS:     250783  HIT:     236632  MISS:      14151
cpu0_STLB LOAD      ACCESS:     242851  HIT:     229381  MISS:      13470
cpu0_STLB RFO       ACCESS:       7932  HIT:       7251  MISS:        681
cpu0_STLB PREFETCH  ACCESS:          0  HIT:          0  MISS:          0
cpu0_STLB WRITEBACK ACCESS:          0  HIT:          0  MISS:          0
cpu0_L1D TOTAL     ACCESS:    3036584  HIT:    2490364  MISS:     546220
cpu0_L1D LOAD      ACCESS:    1861621  HIT:    1354924  MISS:     506697
cpu0_L1D RFO       ACCESS:    1161102  HIT:    1123014  MISS:      38088
cpu0_L1D PREFETCH  ACCESS:          0  HIT:          0  MISS:          0
cpu0_L1D WRITEBACK ACCESS:          0  HIT:          0  MISS:          0
cpu0_L2C TOTAL     ACCESS:     640021  HIT:     582926  MISS:      57095
cpu0_L2C LOAD      ACCESS:     550830  HIT:     527268  MISS:      23562
cpu0_L2C RFO       ACCESS:      38088  HIT:       4565  MISS:      33523
cpu0_L2C PREFETCH  ACCESS:          0  HIT:          0  MISS:          0
cpu0_L2C WRITEBACK ACCESS:      49668  HIT:      49668  MISS:          0
LLC TOTAL     ACCESS:      92572  HIT:      49420  MISS:      43152
LLC LOAD      ACCESS:      23560  HIT:      22022  MISS:       1538
LLC RFO       ACCESS:      33523  HIT:        314  MISS:      33209
LLC PREFETCH  ACCESS:          0  HIT:          0  MISS:          0
LLC WRITEBACK ACCESS:      35479  HIT:      27076  MISS:       8403
Heartbeat CPU 0 instructions: 66000000 cycles: 30820545 heartbeat IPC: 1.01923 cumulative IPC: 0.999443 (Simulation time: 0 hr 45 min 27 sec) 

Region of Interest Statistics
cpu0_DTLB TOTAL     ACCESS:    2641088  HIT:    2365086  MISS:     276002
cpu0_DTLB LOAD      ACCESS:    1922781  HIT:    1655689  MISS:     267092
cpu0_DTLB RFO       ACCESS:     718307  HIT:     709397  MISS:       8910
cpu0_DTLB PREFETCH  ACCESS:          0  HIT:          0  MISS:          0
cpu0_DTLB WRITEBACK ACCESS:          0  HIT:          0  MISS:          0
cpu0_ITLB TOTAL     ACCESS:    1044386  HIT:    1036500  MISS:       7886
cpu0_ITLB LOAD      ACCESS:    1044386  HIT:    1036500  MISS:       7886
cpu0_ITLB RFO       ACCESS:          0  HIT:          0  MISS:          0
cpu0_ITLB PREFETCH  ACCESS:          0  HIT:          0  MISS:          0
cpu0_ITLB WRITEBACK ACCESS:          0  HIT:          0  MISS:          0
cpu0_L1I TOTAL     ACCESS:    1054644  HIT:    1004482  MISS:      50162
cpu0_L1I LOAD      ACCESS:    1054644  HIT:    1004482  MISS:      50162
cpu0_L1I RFO       ACCESS:          0  HIT:          0  MISS:          0
cpu0_L1I PREFETCH  ACCESS:          0  HIT:          0  MISS:          0
cpu0_L1I WRITEBACK ACCESS:          0  HIT:          0  MISS:          0
cpu0_STLB TOTAL     ACCESS:     283888  HIT:     267827  MISS:      16061
cpu0_STLB LOAD      ACCESS:     274978  HIT:     259707  MISS:      15271
cpu0_STLB RFO       ACCESS:       8910  HIT:       8120  MISS:        790
cpu0_STLB PREFETCH  ACCESS:          0  HIT:          0  MISS:          0
cpu0_STLB WRITEBACK ACCESS:          0  HIT:          0  MISS:          0
cpu0_L1D TOTAL     ACCESS:    3443902  HIT:    2817008  MISS:     626894
cpu0_L1D LOAD      ACCESS:    2114671  HIT:    1532767  MISS:     581904
cpu0_L1D RFO       ACCESS:    1313500  HIT:    1270174  MISS:      43326
cpu0_L1D PREFETCH  ACCESS:          0  HIT:          0  MISS:          0
cpu0_L1D WRITEBACK ACCESS:          0  HIT:          0  MISS:          0
cpu0_L2C TOTAL     ACCESS:     733619  HIT:     668645  MISS:      64974
cpu0_L2C LOAD      ACCESS:     632060  HIT:     605116  MISS:      26944
cpu0_L2C RFO       ACCESS:      43326  HIT:       5306  MISS:      38020
cpu0_L2C PREFETCH  ACCESS:          0  HIT:          0  MISS:          0
cpu0_L2C WRITEBACK ACCESS:      56569  HIT:      56569  MISS:          0
LLC TOTAL     ACCESS:     105199  HIT:      56283  MISS:      48916
LLC LOAD      ACCESS:      26942  HIT:      25202  MISS:       1740
LLC RFO       ACCESS:      38020  HIT:        363  MISS:      37657
LLC PREFETCH  ACCESS:          0  HIT:          0  MISS:          0
LLC WRITEBACK ACCESS:      40227  HIT:      30710  MISS:       9517
Heartbeat CPU 0 instructions: 68000004 cycles: 32756932 heartbeat IPC: 1.03285 cumulative IPC: 1.00305 (Simulation time: 0 hr 47 min 10 sec) 

Region of Interest Statistics
cpu0_DTLB TOTAL     ACCESS:    2957128  HIT:    2650663  MISS:     306465
cpu0_DTLB LOAD      ACCESS:    2156649  HIT:    1860002  MISS:     296647
cpu0_DTLB RFO       ACCESS:     800479  HIT:     790661  MISS:       9818
cpu0_DTLB PREFETCH  ACCESS:          0  HIT:          0  MISS:          0
cpu0_DTLB WRITEBACK ACCESS:          0  HIT:          0  MISS:          0
cpu0_ITLB TOTAL     ACCESS:    1164573  HIT:    1155764  MISS:       8809
cpu0_ITLB LOAD      ACCESS:    1164573  HIT:    1155764  MISS:       8809
cpu0_ITLB RFO       ACCESS:          0  HIT:          0  MISS:          0
cpu0_ITLB PREFETCH  ACCESS:          0  HIT:          0  MISS:          0
cpu0_ITLB WRITEBACK ACCESS:          0  HIT:          0  MISS:          0
cpu0_L1I TOTAL     ACCESS:    1177457  HIT:    1121271  MISS:      56186
cpu0_L1I LOAD      ACCESS:    1177457  HIT:    1121271  MISS:      56186
cpu0_L1I RFO       ACCESS:          0  HIT:          0  MISS:          0
cpu0_L1I PREFETCH  ACCESS:          0  HIT:          0  MISS:          0
cpu0_L1I WRITEBACK ACCESS:          0  HIT:          0  MISS:          0
cpu0_STLB TOTAL     ACCESS:     315274  HIT:     297402  MISS:      17872
cpu0_STLB LOAD      ACCESS:     305456  HIT:     288472  MISS:      16984
cpu0_STLB RFO       ACCESS:       9818  HIT:       8930  MISS:        888
cpu0_STLB PREFETCH  ACCESS:          0  HIT:          0  MISS:          0
cpu0_STLB WRITEBACK ACCESS:          0  HIT:          0  MISS:          0
cpu0_L1D TOTAL     ACCESS:    3845300  HIT:    3138488  MISS:     706812
cpu0_L1D LOAD      ACCESS:    2362575  HIT:    1706183  MISS:     656392
cpu0_L1D RFO       ACCESS:    1465231  HIT:    1416675  MISS:      48556
cpu0_L1D PREFETCH  ACCESS:          0  HIT:          0  MISS:          0
cpu0_L1D WRITEBACK ACCESS:          0  HIT:          0  MISS:          0
cpu0_L2C TOTAL     ACCESS:     826423  HIT:     753830  MISS:      72593
cpu0_L2C LOAD      ACCESS:     712572  HIT:     682420  MISS:      30152
cpu0_L2C RFO       ACCESS:      48556  HIT:       6125  MISS:      42431
cpu0_L2C PREFETCH  ACCESS:          0  HIT:          0  MISS:          0
cpu0_L2C WRITEBACK ACCESS:      63431  HIT:      63431  MISS:          0
LLC TOTAL     ACCESS:     117477  HIT:      62872  MISS:      54605
LLC LOAD      ACCESS:      30150  HIT:      28205  MISS:       1945
LLC RFO       ACCESS:      42431  HIT:        415  MISS:      42016
LLC PREFETCH  ACCESS:          0  HIT:          0  MISS:          0
LLC WRITEBACK ACCESS:      44886  HIT:      34244  MISS:      10642
Heartbeat CPU 0 instructions: 70000000 cycles: 34717742 heartbeat IPC: 1.01998 cumulative IPC: 1.00472 (Simulation time: 0 hr 48 min 49 sec) 

Region of Interest Statistics
cpu0_DTLB TOTAL     ACCESS:    3269113  HIT:    2930037  MISS:     339076
cpu0_DTLB LOAD      ACCESS:    2389826  HIT:    2061539  MISS:     328287
cpu0_DTLB RFO       ACCESS:     879287  HIT:     868498  MISS:      10789
cpu0_DTLB PREFETCH  ACCESS:          0  HIT:          0  MISS:          0
cpu0_DTLB WRITEBACK ACCESS:          0  HIT:          0  MISS:          0
cpu0_ITLB TOTAL     ACCESS:    1280373  HIT:    1270680  MISS:       9693
cpu0_ITLB LOAD      ACCESS:    1280373  HIT:    1270680  MISS:       9693
cpu0_ITLB RFO       ACCESS:          0  HIT:          0  MISS:          0
cpu0_ITLB PREFETCH  ACCESS:          0  HIT:          0  MISS:          0
cpu0_ITLB WRITEBACK ACCESS:          0  HIT:          0  MISS:          0
cpu0_L1I TOTAL     ACCESS:    1294785  HIT:    1232952  MISS:      61833
cpu0_L1I LOAD      ACCESS:    1294785  HIT:    1232952  MISS:      61833
cpu0_L1I RFO       ACCESS:          0  HIT:          0  MISS:          0
cpu0_L1I PREFETCH  ACCESS:          0  HIT:          0  MISS:          0
cpu0_L1I WRITEBACK ACCESS:          0  HIT:          0  MISS:          0
cpu0_STLB TOTAL     ACCESS:     348769  HIT:     328922  MISS:      19847
cpu0_STLB LOAD      ACCESS:     337980  HIT:     319148  MISS:      18832
cpu0_STLB RFO       ACCESS:      10789  HIT:       9774  MISS:       1015
cpu0_STLB PREFETCH  ACCESS:          0  HIT:          0  MISS:          0
cpu0_STLB WRITEBACK ACCESS:          0  HIT:          0  MISS:          0
cpu0_L1D TOTAL     ACCESS:    4237209  HIT:    3444128  MISS:     793081
cpu0_L1D LOAD      ACCESS:    2607480  HIT:    1870308  MISS:     737172
cpu0_L1D RFO       ACCESS:    1610299  HIT:    1556492  MISS:      53807
cpu0_L1D PREFETCH  ACCESS:          0  HIT:          0  MISS:          0
cpu0_L1D WRITEBACK ACCESS:          0  HIT:          0  MISS:          0
cpu0_L2C TOTAL     ACCESS:     925603  HIT:     844765  MISS:      80838
cpu0_L2C LOAD      ACCESS:     798999  HIT:     764929  MISS:      34070
cpu0_L2C RFO       ACCESS:      53807  HIT:       7050  MISS:      46757
cpu0_L2C PREFETCH  ACCESS:          0  HIT:          0  MISS:          0
cpu0_L2C WRITEBACK ACCESS:      70695  HIT:      70695  MISS:          0
LLC TOTAL     ACCESS:     130365  HIT:      70013  MISS:      60352
LLC LOAD      ACCESS:      34068  HIT:      31854  MISS:       2214
LLC RFO       ACCESS:      46757  HIT:        490  MISS:      46267
LLC PREFETCH  ACCESS:          0  HIT:          0  MISS:          0
LLC WRITEBACK ACCESS:      49529  HIT:      37660  MISS:      11869
Heartbeat CPU 0 instructions: 72000000 cycles: 36643042 heartbeat IPC: 1.0388 cumulative IPC: 1.00772 (Simulation time: 0 hr 50 min 30 sec) 

Region of Interest Statistics
cpu0_DTLB TOTAL     ACCESS:    3580675  HIT:    3210983  MISS:     369692
cpu0_DTLB LOAD      ACCESS:    2622265  HIT:    2264392  MISS:     357873
cpu0_DTLB RFO       ACCESS:     958410  HIT:     946591  MISS:      11819
cpu0_DTLB PREFETCH  ACCESS:          0  HIT:          0  MISS:          0
cpu0_DTLB WRITEBACK ACCESS:          0  HIT:          0  MISS:          0
cpu0_ITLB TOTAL     ACCESS:    1395601  HIT:    1385011  MISS:      10590
cpu0_ITLB LOAD      ACCESS:    1395601  HIT:    1385011  MISS:      10590
cpu0_ITLB RFO       ACCESS:          0  HIT:          0  MISS:          0
cpu0_ITLB PREFETCH  ACCESS:          0  HIT:          0  MISS:          0
cpu0_ITLB WRITEBACK ACCESS:          0  HIT:          0  MISS:          0
cpu0_L1I TOTAL     ACCESS:    1412442  HIT:    1345072  MISS:      67370
cpu0_L1I LOAD      ACCESS:    1412442  HIT:    1345072  MISS:      67370
cpu0_L1I RFO       ACCESS:          0  HIT:          0  MISS:          0
cpu0_L1I PREFETCH  ACCESS:          0  HIT:          0  MISS:          0
cpu0_L1I WRITEBACK ACCESS:          0  HIT:          0  MISS:          0
cpu0_STLB TOTAL     ACCESS:     380282  HIT:     358540  MISS:      21742
cpu0_STLB LOAD      ACCESS:     368463  HIT:     347903  MISS:      20560
cpu0_STLB RFO       ACCESS:      11819  HIT:      10637  MISS:       1182
cpu0_STLB PREFETCH  ACCESS:          0  HIT:          0  MISS:          0
cpu0_STLB WRITEBACK ACCESS:          0  HIT:          0  MISS:          0
cpu0_L1D TOTAL     ACCESS:    4626647  HIT:    3749055  MISS:     877592
cpu0_L1D LOAD      ACCESS:    2849480  HIT:    2033254  MISS:     816226
cpu0_L1D RFO       ACCESS:    1755880  HIT:    1696872  MISS:      59008
cpu0_L1D PREFETCH  ACCESS:          0  HIT:          0  MISS:          0
cpu0_L1D WRITEBACK ACCESS:          0  HIT:          0  MISS:          0
cpu0_L2C TOTAL     ACCESS:    1022818  HIT:     934105  MISS:      88713
cpu0_L2C LOAD      ACCESS:     883590  HIT:     845890  MISS:      37700
cpu0_L2C RFO       ACCESS:      59008  HIT:       8006  MISS:      51002
cpu0_L2C PREFETCH  ACCESS:          0  HIT:          0  MISS:          0
cpu0_L2C WRITEBACK ACCESS:      77862  HIT:      77862  MISS:          0
LLC TOTAL     ACCESS:     142820  HIT:      76512  MISS:      66308
LLC LOAD      ACCESS:      37697  HIT:      35176  MISS:       2521
LLC RFO       ACCESS:      51002  HIT:        562  MISS:      50440
LLC PREFETCH  ACCESS:          0  HIT:          0  MISS:          0
LLC WRITEBACK ACCESS:      54110  HIT:      40765  MISS:      13345
Heartbeat CPU 0 instructions: 74000000 cycles: 38248757 heartbeat IPC: 1.24555 cumulative IPC: 1.02402 (Simulation time: 0 hr 52 min 13 sec) 

Region of Interest Statistics
cpu0_DTLB TOTAL     ACCESS:    3824985  HIT:    3427186  MISS:     397799
cpu0_DTLB LOAD      ACCESS:    2827724  HIT:    2442160  MISS:     385564
cpu0_DTLB RFO       ACCESS:     997261  HIT:     985026  MISS:      12235
cpu0_DTLB PREFETCH  ACCESS:          0  HIT:          0  MISS:          0
cpu0_DTLB WRITEBACK ACCESS:          0  HIT:          0  MISS:          0
cpu0_ITLB TOTAL     ACCESS:    1464663  HIT:    1453643  MISS:      11020
cpu0_ITLB LOAD      ACCESS:    1464663  HIT:    1453643  MISS:      11020
cpu0_ITLB RFO       ACCESS:          0  HIT:          0  MISS:          0
cpu0_ITLB PREFETCH  ACCESS:          0  HIT:          0  MISS:          0
cpu0_ITLB WRITEBACK ACCESS:          0  HIT:          0  MISS:          0
cpu0_L1I TOTAL     ACCESS:    1467207  HIT:    1397352  MISS:      69855
cpu0_L1I LOAD      ACCESS:    1467207  HIT:    1397352  MISS:      69855
cpu0_L1I RFO       ACCESS:          0  HIT:          0  MISS:          0
cpu0_L1I PREFETCH  ACCESS:          0  HIT:          0  MISS:          0
cpu0_L1I WRITEBACK ACCESS:          0  HIT:          0  MISS:          0
cpu0_STLB TOTAL     ACCESS:     408819  HIT:     385487  MISS:      23332
cpu0_STLB LOAD      ACCESS:     396584  HIT:     374499  MISS:      22085
cpu0_STLB RFO       ACCESS:      12235  HIT:      10988  MISS:       1247
cpu0_STLB PREFETCH  ACCESS:          0  HIT:          0  MISS:          0
cpu0_STLB WRITEBACK ACCESS:          0  HIT:          0  MISS:          0
cpu0_L1D TOTAL     ACCESS:    4931256  HIT:    3982372  MISS:     948884
cpu0_L1D LOAD      ACCESS:    3080618  HIT:    2195772  MISS:     884846
cpu0_L1D RFO       ACCESS:    1827794  HIT:    1766295  MISS:      61499
cpu0_L1D PREFETCH  ACCESS:          0  HIT:          0  MISS:          0
cpu0_L1D WRITEBACK ACCESS:          0  HIT:          0  MISS:          0
cpu0_L2C TOTAL     ACCESS:    1100358  HIT:    1006946  MISS:      93412
cpu0_L2C LOAD      ACCESS:     954695  HIT:     914368  MISS:      40327
cpu0_L2C RFO       ACCESS:      61499  HIT:       8426  MISS:      53073
cpu0_L2C PREFETCH  ACCESS:          0  HIT:          0  MISS:          0
cpu0_L2C WRITEBACK ACCESS:      81625  HIT:      81625  MISS:          0
LLC TOTAL     ACCESS:     149850  HIT:      80443  MISS:      69407
LLC LOAD      ACCESS:      40324  HIT:      37575  MISS:       2749
LLC RFO       ACCESS:      53073  HIT:        596  MISS:      52477
LLC PREFETCH  ACCESS:          0  HIT:          0  MISS:          0
LLC WRITEBACK ACCESS:      56441  HIT:      42263  MISS:      14178
Heartbeat CPU 0 instructions: 76000000 cycles: 39873006 heartbeat IPC: 1.23134 cumulative IPC: 1.03745 (Simulation time: 0 hr 54 min 10 sec) 

Region of Interest Statistics
cpu0_DTLB TOTAL     ACCESS:    4017418  HIT:    3590197  MISS:     427221
cpu0_DTLB LOAD      ACCESS:    3013313  HIT:    2598538  MISS:     414775
cpu0_DTLB RFO       ACCESS:    1004105  HIT:     991659  MISS:      12446
cpu0_DTLB PREFETCH  ACCESS:          0  HIT:          0  MISS:          0
cpu0_DTLB WRITEBACK ACCESS:          0  HIT:          0  MISS:          0
cpu0_ITLB TOTAL     ACCESS:    1499902  HIT:    1488879  MISS:      11023
cpu0_ITLB LOAD      ACCESS:    1499902  HIT:    1488879  MISS:      11023
cpu0_ITLB RFO       ACCESS:          0  HIT:          0  MISS:          0
cpu0_ITLB PREFETCH  ACCESS:          0  HIT:          0  MISS:          0
cpu0_ITLB WRITEBACK ACCESS:          0  HIT:          0  MISS:          0
cpu0_L1I TOTAL     ACCESS:    1468030  HIT:    1398169  MISS:      69861
cpu0_L1I LOAD      ACCESS:    1468030  HIT:    1398169  MISS:      69861
cpu0_L1I RFO       ACCESS:          0  HIT:          0  MISS:          0
cpu0_L1I PREFETCH  ACCESS:          0  HIT:          0  MISS:          0
cpu0_L1I WRITEBACK ACCESS:          0  HIT:          0  MISS:          0
cpu0_STLB TOTAL     ACCESS:     438244  HIT:     412542  MISS:      25702
cpu0_STLB LOAD      ACCESS:     425798  HIT:     401352  MISS:      24446
cpu0_STLB RFO       ACCESS:      12446  HIT:      11190  MISS:       1256
cpu0_STLB PREFETCH  ACCESS:          0  HIT:          0  MISS:          0
cpu0_STLB WRITEBACK ACCESS:          0  HIT:          0  MISS:          0
cpu0_L1D TOTAL     ACCESS:    5172969  HIT:    4163396  MISS:    1009573
cpu0_L1D LOAD      ACCESS:    3306584  HIT:    2361316  MISS:     945268
cpu0_L1D RFO       ACCESS:    1841242  HIT:    1779626  MISS:      61616
cpu0_L1D PREFETCH  ACCESS:          0  HIT:          0  MISS:          0
cpu0_L1D WRITEBACK ACCESS:          0  HIT:          0  MISS:          0
cpu0_L2C TOTAL     ACCESS:    1161977  HIT:    1064803  MISS:      97174
cpu0_L2C LOAD      ACCESS:    1015123  HIT:     971069  MISS:      44054
cpu0_L2C RFO       ACCESS:      61616  HIT:       8508  MISS:      53108
cpu0_L2C PREFETCH  ACCESS:          0  HIT:          0  MISS:          0
cpu0_L2C WRITEBACK ACCESS:      82549  HIT:      82549  MISS:          0
LLC TOTAL     ACCESS:     155296  HIT:      83622  MISS:      71674
LLC LOAD      ACCESS:      44051  HIT:      39710  MISS:       4341
LLC RFO       ACCESS:      53108  HIT:        620  MISS:      52488
LLC PREFETCH  ACCESS:          0  HIT:          0  MISS:          0
LLC WRITEBACK ACCESS:      58125  HIT:      43283  MISS:      14842
Heartbeat CPU 0 instructions: 78000000 cycles: 41309282 heartbeat IPC: 1.39249 cumulative IPC: 1.0567 (Simulation time: 0 hr 55 min 56 sec) 

Region of Interest Statistics
cpu0_DTLB TOTAL     ACCESS:    4214091  HIT:    3755717  MISS:     458374
cpu0_DTLB LOAD      ACCESS:    3202412  HIT:    2756786  MISS:     445626
cpu0_DTLB RFO       ACCESS:    1011679  HIT:     998931  MISS:      12748
cpu0_DTLB PREFETCH  ACCESS:          0  HIT:          0  MISS:          0
cpu0_DTLB WRITEBACK ACCESS:          0  HIT:          0  MISS:          0
cpu0_ITLB TOTAL     ACCESS:    1537682  HIT:    1526659  MISS:      11023
cpu0_ITLB LOAD      ACCESS:    1537682  HIT:    1526659  MISS:      11023
cpu0_ITLB RFO       ACCESS:          0  HIT:          0  MISS:          0
cpu0_ITLB PREFETCH  ACCESS:          0  HIT:          0  MISS:          0
cpu0_ITLB WRITEBACK ACCESS:          0  HIT:          0  MISS:          0
cpu0_L1I TOTAL     ACCESS:    1468227  HIT:    1398366  MISS:      69861
cpu0_L1I LOAD      ACCESS:    1468227  HIT:    1398366  MISS:      69861
cpu0_L1I RFO       ACCESS:          0  HIT:          0  MISS:          0
cpu0_L1I PREFETCH  ACCESS:          0  HIT:          0  MISS:          0
cpu0_L1I WRITEBACK ACCESS:          0  HIT:          0  MISS:          0
cpu0_STLB TOTAL     ACCESS:     469397  HIT:     441839  MISS:      27558
cpu0_STLB LOAD      ACCESS:     456649  HIT:     430354  MISS:      26295
cpu0_STLB RFO       ACCESS:      12748  HIT:      11485  MISS:       1263
cpu0_STLB PREFETCH  ACCESS:          0  HIT:          0  MISS:          0
cpu0_STLB WRITEBACK ACCESS:          0  HIT:          0  MISS:          0
cpu0_L1D TOTAL     ACCESS:    5419021  HIT:    4347289  MISS:    1071732
cpu0_L1D LOAD      ACCESS:    3536160  HIT:    2529031  MISS:    1007129
cpu0_L1D RFO       ACCESS:    1855911  HIT:    1794155  MISS:      61756
cpu0_L1D PREFETCH  ACCESS:          0  HIT:          0  MISS:          0
cpu0_L1D WRITEBACK ACCESS:          0  HIT:          0  MISS:          0
cpu0_L2C TOTAL     ACCESS:    1225216  HIT:    1125627  MISS:      99589
cpu0_L2C LOAD      ACCESS:    1076984  HIT:    1030572  MISS:      46412
cpu0_L2C RFO       ACCESS:      61756  HIT:       8591  MISS:      53165
cpu0_L2C PREFETCH  ACCESS:          0  HIT:          0  MISS:          0
cpu0_L2C WRITEBACK ACCESS:      83629  HIT:      83629  MISS:          0
LLC TOTAL     ACCESS:     158272  HIT:      86145  MISS:      72127
LLC LOAD      ACCESS:      46409  HIT:      41846  MISS:       4563
LLC RFO       ACCESS:      53165  HIT:        658  MISS:      52507
LLC PREFETCH  ACCESS:          0  HIT:          0  MISS:          0
LLC WRITEBACK ACCESS:      58686  HIT:      43632  MISS:      15054
Heartbeat CPU 0 instructions: 80000002 cycles: 42767049 heartbeat IPC: 1.37196 cumulative IPC: 1.07314 (Simulation time: 0 hr 57 min 44 sec) 

Region of Interest Statistics
cpu0_DTLB TOTAL     ACCESS:    4413641  HIT:    3923214  MISS:     490427
cpu0_DTLB LOAD      ACCESS:    3394183  HIT:    2916815  MISS:     477368
cpu0_DTLB RFO       ACCESS:    1019458  HIT:    1006399  MISS:      13059
cpu0_DTLB PREFETCH  ACCESS:          0  HIT:          0  MISS:          0
cpu0_DTLB WRITEBACK ACCESS:          0  HIT:          0  MISS:          0
cpu0_ITLB TOTAL     ACCESS:    1577688  HIT:    1566665  MISS:      11023
cpu0_ITLB LOAD      ACCESS:    1577688  HIT:    1566665  MISS:      11023
cpu0_ITLB RFO       ACCESS:          0  HIT:          0  MISS:          0
cpu0_ITLB PREFETCH  ACCESS:          0  HIT:          0  MISS:          0
cpu0_ITLB WRITEBACK ACCESS:          0  HIT:          0  MISS:          0
cpu0_L1I TOTAL     ACCESS:    1468419  HIT:    1398558  MISS:      69861
cpu0_L1I LOAD      ACCESS:    1468419  HIT:    1398558  MISS:      69861
cpu0_L1I RFO       ACCESS:          0  HIT:          0  MISS:          0
cpu0_L1I PREFETCH  ACCESS:          0  HIT:          0  MISS:          0
cpu0_L1I WRITEBACK ACCESS:          0  HIT:          0  MISS:          0
cpu0_STLB TOTAL     ACCESS:     501450  HIT:     471970  MISS:      29480
cpu0_STLB LOAD      ACCESS:     488391  HIT:     460183  MISS:      28208
cpu0_STLB RFO       ACCESS:      13059  HIT:      11787  MISS:       1272
cpu0_STLB PREFETCH  ACCESS:          0  HIT:          0  MISS:          0
cpu0_STLB WRITEBACK ACCESS:          0  HIT:          0  MISS:          0
cpu0_L1D TOTAL     ACCESS:    5667875  HIT:    4534176  MISS:    1133699
cpu0_L1D LOAD      ACCESS:    3768233  HIT:    2699425  MISS:    1068808
cpu0_L1D RFO       ACCESS:    1870824  HIT:    1808919  MISS:      61905
cpu0_L1D PREFETCH  ACCESS:          0  HIT:          0  MISS:          0
cpu0_L1D WRITEBACK ACCESS:          0  HIT:          0  MISS:          0
cpu0_L2C TOTAL     ACCESS:    1288219  HIT:    1186226  MISS:     101993
cpu0_L2C LOAD      ACCESS:    1138663  HIT:    1089916  MISS:      48747
cpu0_L2C RFO       ACCESS:      61905  HIT:       8671  MISS:      53234
cpu0_L2C PREFETCH  ACCESS:          0  HIT:          0  MISS:          0
cpu0_L2C WRITEBACK ACCESS:      84665  HIT:      84665  MISS:          0
LLC TOTAL     ACCESS:     161202  HIT:      88624  MISS:      72578
LLC LOAD      ACCESS:      48744  HIT:      43966  MISS:       4778
LLC RFO       ACCESS:      53234  HIT:        698  MISS:      52536
LLC PREFETCH  ACCESS:          0  HIT:          0  MISS:          0
LLC WRITEBACK ACCESS:      59212  HIT:      43951  MISS:      15261
Heartbeat CPU 0 instructions: 82000000 cycles: 44236018 heartbeat IPC: 1.3615 cumulative IPC: 1.08753 (Simulation time: 0 hr 59 min 33 sec) 

Region of Interest Statistics
cpu0_DTLB TOTAL     ACCESS:    4615151  HIT:    4091242  MISS:     523909
cpu0_DTLB LOAD      ACCESS:    3587659  HIT:    3077165  MISS:     510494
cpu0_DTLB RFO       ACCESS:    1027492  HIT:    1014077  MISS:      13415
cpu0_DTLB PREFETCH  ACCESS:          0  HIT:          0  MISS:          0
cpu0_DTLB WRITEBACK ACCESS:          0  HIT:          0  MISS:          0
cpu0_ITLB TOTAL     ACCESS:    1619736  HIT:    1608713  MISS:      11023
cpu0_ITLB LOAD      ACCESS:    1619736  HIT:    1608713  MISS:      11023
cpu0_ITLB RFO       ACCESS:          0  HIT:          0  MISS:          0
cpu0_ITLB PREFETCH  ACCESS:          0  HIT:          0  MISS:          0
cpu0_ITLB WRITEBACK ACCESS:          0  HIT:          0  MISS:          0
cpu0_L1I TOTAL     ACCESS:    1468617  HIT:    1398756  MISS:      69861
cpu0_L1I LOAD      ACCESS:    1468617  HIT:    1398756  MISS:      69861
cpu0_L1I RFO       ACCESS:          0  HIT:          0  MISS:          0
cpu0_L1I PREFETCH  ACCESS:          0  HIT:          0  MISS:          0
cpu0_L1I WRITEBACK ACCESS:          0  HIT:          0  MISS:          0
cpu0_STLB TOTAL     ACCESS:     534932  HIT:     503579  MISS:      31353
cpu0_STLB LOAD      ACCESS:     521517  HIT:     491442  MISS:      30075
cpu0_STLB RFO       ACCESS:      13415  HIT:      12137  MISS:       1278
cpu0_STLB PREFETCH  ACCESS:          0  HIT:          0  MISS:          0
cpu0_STLB WRITEBACK ACCESS:          0  HIT:          0  MISS:          0
cpu0_L1D TOTAL     ACCESS:    5919128  HIT:    4723568  MISS:    1195560
cpu0_L1D LOAD      ACCESS:    4002098  HIT:    2871726  MISS:    1130372
cpu0_L1D RFO       ACCESS:    1886386  HIT:    1824328  MISS:      62058
cpu0_L1D PREFETCH  ACCESS:          0  HIT:          0  MISS:          0
cpu0_L1D WRITEBACK ACCESS:          0  HIT:          0  MISS:          0
cpu0_L2C TOTAL     ACCESS:    1351121  HIT:    1246698  MISS:     104423
cpu0_L2C LOAD      ACCESS:    1200227  HIT:    1149123  MISS:      51104
cpu0_L2C RFO       ACCESS:      62058  HIT:       8751  MISS:      53307
cpu0_L2C PREFETCH  ACCESS:          0  HIT:          0  MISS:          0
cpu0_L2C WRITEBACK ACCESS:      85706  HIT:      85706  MISS:          0
LLC TOTAL     ACCESS:     164163  HIT:      91122  MISS:      73041
LLC LOAD      ACCESS:      51101  HIT:      46092  MISS:       5009
LLC RFO       ACCESS:      53307  HIT:        725  MISS:      52582
LLC PREFETCH  ACCESS:          0  HIT:          0  MISS:          0
LLC WRITEBACK ACCESS:      59743  HIT:      44296  MISS:      15447
Heartbeat CPU 0 instructions: 84000000 cycles: 45774590 heartbeat IPC: 1.29991 cumulative IPC: 1.09809 (Simulation time: 1 hr 1 min 21 sec) 

Region of Interest Statistics
cpu0_DTLB TOTAL     ACCESS:    4820729  HIT:    4258751  MISS:     561978
cpu0_DTLB LOAD      ACCESS:    3785023  HIT:    3236878  MISS:     548145
cpu0_DTLB RFO       ACCESS:    1035706  HIT:    1021873  MISS:      13833
cpu0_DTLB PREFETCH  ACCESS:          0  HIT:          0  MISS:          0
cpu0_DTLB WRITEBACK ACCESS:          0  HIT:          0  MISS:          0
cpu0_ITLB TOTAL     ACCESS:    1664116  HIT:    1653093  MISS:      11023
cpu0_ITLB LOAD      ACCESS:    1664116  HIT:    1653093  MISS:      11023
cpu0_ITLB RFO       ACCESS:          0  HIT:          0  MISS:          0
cpu0_ITLB PREFETCH  ACCESS:          0  HIT:          0  MISS:          0
cpu0_ITLB WRITEBACK ACCESS:          0  HIT:          0  MISS:          0
cpu0_L1I TOTAL     ACCESS:    1468822  HIT:    1398961  MISS:      69861
cpu0_L1I LOAD      ACCESS:    1468822  HIT:    1398961  MISS:      69861
cpu0_L1I RFO       ACCESS:          0  HIT:          0  MISS:          0
cpu0_L1I PREFETCH  ACCESS:          0  HIT:          0  MISS:          0
cpu0_L1I WRITEBACK ACCESS:          0  HIT:          0  MISS:          0
cpu0_STLB TOTAL     ACCESS:     573001  HIT:     539630  MISS:      33371
cpu0_STLB LOAD      ACCESS:     559168  HIT:     527089  MISS:      32079
cpu0_STLB RFO       ACCESS:      13833  HIT:      12541  MISS:       1292
cpu0_STLB PREFETCH  ACCESS:          0  HIT:          0  MISS:          0
cpu0_STLB WRITEBACK ACCESS:          0  HIT:          0  MISS:          0
cpu0_L1D TOTAL     ACCESS:    6175524  HIT:    4912300  MISS:    1263224
cpu0_L1D LOAD      ACCESS:    4240607  HIT:    3042869  MISS:    1197738
cpu0_L1D RFO       ACCESS:    1902309  HIT:    1840093  MISS:      62216
cpu0_L1D PREFETCH  ACCESS:          0  HIT:          0  MISS:          0
cpu0_L1D WRITEBACK ACCESS:          0  HIT:          0  MISS:          0
cpu0_L2C TOTAL     ACCESS:    1419939  HIT:    1312962  MISS:     106977
cpu0_L2C LOAD      ACCESS:    1267593  HIT:    1214008  MISS:      53585
cpu0_L2C RFO       ACCESS:      62216  HIT:       8836  MISS:      53380
cpu0_L2C PREFETCH  ACCESS:          0  HIT:          0  MISS:          0
cpu0_L2C WRITEBACK ACCESS:      86860  HIT:      86860  MISS:          0
LLC TOTAL     ACCESS:     167226  HIT:      93701  MISS:      73525
LLC LOAD      ACCESS:      53582  HIT:      48301  MISS:       5281
LLC RFO       ACCESS:      53380  HIT:        753  MISS:      52627
LLC PREFETCH  ACCESS:          0  HIT:          0  MISS:          0
LLC WRITEBACK ACCESS:      60252  HIT:      44638  MISS:      15614
Heartbeat CPU 0 instructions: 86000001 cycles: 47357586 heartbeat IPC: 1.26343 cumulative IPC: 1.10613 (Simulation time: 1 hr 3 min 4 sec) 

Region of Interest Statistics
cpu0_DTLB TOTAL     ACCESS:    5030733  HIT:    4429700  MISS:     601033
cpu0_DTLB LOAD      ACCESS:    3986434  HIT:    3399608  MISS:     586826
cpu0_DTLB RFO       ACCESS:    1044299  HIT:    1030092  MISS:      14207
cpu0_DTLB PREFETCH  ACCESS:          0  HIT:          0  MISS:          0
cpu0_DTLB WRITEBACK ACCESS:          0  HIT:          0  MISS:          0
cpu0_ITLB TOTAL     ACCESS:    1710461  HIT:    1699438  MISS:      11023
cpu0_ITLB LOAD      ACCESS:    1710461  HIT:    1699438  MISS:      11023
cpu0_ITLB RFO       ACCESS:          0  HIT:          0  MISS:          0
cpu0_ITLB PREFETCH  ACCESS:          0  HIT:          0  MISS:          0
cpu0_ITLB WRITEBACK ACCESS:          0  HIT:          0  MISS:          0
cpu0_L1I TOTAL     ACCESS:    1469036  HIT:    1399175  MISS:      69861
cpu0_L1I LOAD      ACCESS:    1469036  HIT:    1399175  MISS:      69861
cpu0_L1I RFO       ACCESS:          0  HIT:          0  MISS:          0
cpu0_L1I PREFETCH  ACCESS:          0  HIT:          0  MISS:          0
cpu0_L1I WRITEBACK ACCESS:          0  HIT:          0  MISS:          0
cpu0_STLB TOTAL     ACCESS:     612056  HIT:     576575  MISS:      35481
cpu0_STLB LOAD      ACCESS:     597849  HIT:     563662  MISS:      34187
cpu0_STLB RFO       ACCESS:      14207  HIT:      12913  MISS:       1294
cpu0_STLB PREFETCH  ACCESS:          0  HIT:          0  MISS:          0
cpu0_STLB WRITEBACK ACCESS:          0  HIT:          0  MISS:          0
cpu0_L1D TOTAL     ACCESS:    6434766  HIT:    5104612  MISS:    1330154
cpu0_L1D LOAD      ACCESS:    4481286  HIT:    3216943  MISS:    1264343
cpu0_L1D RFO       ACCESS:    1918815  HIT:    1856427  MISS:      62388
cpu0_L1D PREFETCH  ACCESS:          0  HIT:          0  MISS:          0
cpu0_L1D WRITEBACK ACCESS:          0  HIT:          0  MISS:          0
cpu0_L2C TOTAL     ACCESS:    1487963  HIT:    1378524  MISS:     109439
cpu0_L2C LOAD      ACCESS:    1334198  HIT:    1278233  MISS:      55965
cpu0_L2C RFO       ACCESS:      62388  HIT:       8926  MISS:      53462
cpu0_L2C PREFETCH  ACCESS:          0  HIT:          0  MISS:          0
cpu0_L2C WRITEBACK ACCESS:      87954  HIT:      87954  MISS:          0
LLC TOTAL     ACCESS:     170211  HIT:      96128  MISS:      74083
LLC LOAD      ACCESS:      55962  HIT:      50303  MISS:       5659
LLC RFO       ACCESS:      53462  HIT:        779  MISS:      52683
LLC PREFETCH  ACCESS:          0  HIT:          0  MISS:          0
LLC WRITEBACK ACCESS:      60775  HIT:      45037  MISS:      15738
Heartbeat CPU 0 instructions: 88000001 cycles: 48989218 heartbeat IPC: 1.22577 cumulative IPC: 1.11184 (Simulation time: 1 hr 5 min 5 sec) 

Region of Interest Statistics
cpu0_DTLB TOTAL     ACCESS:    5242265  HIT:    4597009  MISS:     645256
cpu0_DTLB LOAD      ACCESS:    4189257  HIT:    3558666  MISS:     630591
cpu0_DTLB RFO       ACCESS:    1053008  HIT:    1038343  MISS:      14665
cpu0_DTLB PREFETCH  ACCESS:          0  HIT:          0  MISS:          0
cpu0_DTLB WRITEBACK ACCESS:          0  HIT:          0  MISS:          0
cpu0_ITLB TOTAL     ACCESS:    1760660  HIT:    1749637  MISS:      11023
cpu0_ITLB LOAD      ACCESS:    1760660  HIT:    1749637  MISS:      11023
cpu0_ITLB RFO       ACCESS:          0  HIT:          0  MISS:          0
cpu0_ITLB PREFETCH  ACCESS:          0  HIT:          0  MISS:          0
cpu0_ITLB WRITEBACK ACCESS:          0  HIT:          0  MISS:          0
cpu0_L1I TOTAL     ACCESS:    1469254  HIT:    1399393  MISS:      69861
cpu0_L1I LOAD      ACCESS:    1469254  HIT:    1399393  MISS:      69861
cpu0_L1I RFO       ACCESS:          0  HIT:          0  MISS:          0
cpu0_L1I PREFETCH  ACCESS:          0  HIT:          0  MISS:          0
cpu0_L1I WRITEBACK ACCESS:          0  HIT:          0  MISS:          0
cpu0_STLB TOTAL     ACCESS:     656279  HIT:     618337  MISS:      37942
cpu0_STLB LOAD      ACCESS:     641614  HIT:     604968  MISS:      36646
cpu0_STLB RFO       ACCESS:      14665  HIT:      13369  MISS:       1296
cpu0_STLB PREFETCH  ACCESS:          0  HIT:          0  MISS:          0
cpu0_STLB WRITEBACK ACCESS:          0  HIT:          0  MISS:          0
cpu0_L1D TOTAL     ACCESS:    6698174  HIT:    5295735  MISS:    1402439
cpu0_L1D LOAD      ACCESS:    4725405  HIT:    3389082  MISS:    1336323
cpu0_L1D RFO       ACCESS:    1935713  HIT:    1873154  MISS:      62559
cpu0_L1D PREFETCH  ACCESS:          0  HIT:          0  MISS:          0
cpu0_L1D WRITEBACK ACCESS:          0  HIT:          0  MISS:          0
cpu0_L2C TOTAL     ACCESS:    1561460  HIT:    1449477  MISS:     111983
cpu0_L2C LOAD      ACCESS:    1406178  HIT:    1347749  MISS:      58429
cpu0_L2C RFO       ACCESS:      62559  HIT:       9017  MISS:      53542
cpu0_L2C PREFETCH  ACCESS:          0  HIT:          0  MISS:          0
cpu0_L2C WRITEBACK ACCESS:      89166  HIT:      89166  MISS:          0
LLC TOTAL     ACCESS:     173270  HIT:      98562  MISS:      74708
LLC LOAD      ACCESS:      58426  HIT:      52339  MISS:       6087
LLC RFO       ACCESS:      53542  HIT:        791  MISS:      52751
LLC PREFETCH  ACCESS:          0  HIT:          0  MISS:          0
LLC WRITEBACK ACCESS:      61290  HIT:      45423  MISS:      15867
Heartbeat CPU 0 instructions: 90000001 cycles: 50689498 heartbeat IPC: 1.17628 cumulative IPC: 1.11489 (Simulation time: 1 hr 6 min 55 sec) 

Region of Interest Statistics
cpu0_DTLB TOTAL     ACCESS:    5459701  HIT:    4767342  MISS:     692359
cpu0_DTLB LOAD      ACCESS:    4397450  HIT:    3720374  MISS:     677076
cpu0_DTLB RFO       ACCESS:    1062251  HIT:    1046968  MISS:      15283
cpu0_DTLB PREFETCH  ACCESS:          0  HIT:          0  MISS:          0
cpu0_DTLB WRITEBACK ACCESS:          0  HIT:          0  MISS:          0
cpu0_ITLB TOTAL     ACCESS:    1814394  HIT:    1803371  MISS:      11023
cpu0_ITLB LOAD      ACCESS:    1814394  HIT:    1803371  MISS:      11023
cpu0_ITLB RFO       ACCESS:          0  HIT:          0  MISS:          0
cpu0_ITLB PREFETCH  ACCESS:          0  HIT:          0  MISS:          0
cpu0_ITLB WRITEBACK ACCESS:          0  HIT:          0  MISS:          0
cpu0_L1I TOTAL     ACCESS:    1469488  HIT:    1399627  MISS:      69861
cpu0_L1I LOAD      ACCESS:    1469488  HIT:    1399627  MISS:      69861
cpu0_L1I RFO       ACCESS:          0  HIT:          0  MISS:          0
cpu0_L1I PREFETCH  ACCESS:          0  HIT:          0  MISS:          0
cpu0_L1I WRITEBACK ACCESS:          0  HIT:          0  MISS:          0
cpu0_STLB TOTAL     ACCESS:     703382  HIT:     662894  MISS:      40488
cpu0_STLB LOAD      ACCESS:     688099  HIT:     648916  MISS:      39183
cpu0_STLB RFO       ACCESS:      15283  HIT:      13978  MISS:       1305
cpu0_STLB PREFETCH  ACCESS:          0  HIT:          0  MISS:          0
cpu0_STLB WRITEBACK ACCESS:          0  HIT:          0  MISS:          0
cpu0_L1D TOTAL     ACCESS:    6966807  HIT:    5491908  MISS:    1474899
cpu0_L1D LOAD      ACCESS:    4973640  HIT:    3565159  MISS:    1408481
cpu0_L1D RFO       ACCESS:    1953642  HIT:    1890912  MISS:      62730
cpu0_L1D PREFETCH  ACCESS:          0  HIT:          0  MISS:          0
cpu0_L1D WRITEBACK ACCESS:          0  HIT:          0  MISS:          0
cpu0_L2C TOTAL     ACCESS:    1635122  HIT:    1520595  MISS:     114527
cpu0_L2C LOAD      ACCESS:    1478336  HIT:    1417435  MISS:      60901
cpu0_L2C RFO       ACCESS:      62730  HIT:       9116  MISS:      53614
cpu0_L2C PREFETCH  ACCESS:          0  HIT:          0  MISS:          0
cpu0_L2C WRITEBACK ACCESS:      90368  HIT:      90368  MISS:          0
LLC TOTAL     ACCESS:     176409  HIT:     100900  MISS:      75509
LLC LOAD      ACCESS:      60898  HIT:      54219  MISS:       6679
LLC RFO       ACCESS:      53614  HIT:        804  MISS:      52810
LLC PREFETCH  ACCESS:          0  HIT:          0  MISS:          0
LLC WRITEBACK ACCESS:      61885  HIT:      45868  MISS:      16017
Heartbeat CPU 0 instructions: 92000001 cycles: 52498473 heartbeat IPC: 1.1056 cumulative IPC: 1.11445 (Simulation time: 1 hr 8 min 45 sec) 

Region of Interest Statistics
cpu0_DTLB TOTAL     ACCESS:    5685274  HIT:    4940515  MISS:     744759
cpu0_DTLB LOAD      ACCESS:    4613410  HIT:    3884600  MISS:     728810
cpu0_DTLB RFO       ACCESS:    1071864  HIT:    1055915  MISS:      15949
cpu0_DTLB PREFETCH  ACCESS:          0  HIT:          0  MISS:          0
cpu0_DTLB WRITEBACK ACCESS:          0  HIT:          0  MISS:          0
cpu0_ITLB TOTAL     ACCESS:    1871894  HIT:    1860871  MISS:      11023
cpu0_ITLB LOAD      ACCESS:    1871894  HIT:    1860871  MISS:      11023
cpu0_ITLB RFO       ACCESS:          0  HIT:          0  MISS:          0
cpu0_ITLB PREFETCH  ACCESS:          0  HIT:          0  MISS:          0
cpu0_ITLB WRITEBACK ACCESS:          0  HIT:          0  MISS:          0
cpu0_L1I TOTAL     ACCESS:    1469730  HIT:    1399869  MISS:      69861
cpu0_L1I LOAD      ACCESS:    1469730  HIT:    1399869  MISS:      69861
cpu0_L1I RFO       ACCESS:          0  HIT:          0  MISS:          0
cpu0_L1I PREFETCH  ACCESS:          0  HIT:          0  MISS:          0
cpu0_L1I WRITEBACK ACCESS:          0  HIT:          0  MISS:          0
cpu0_STLB TOTAL     ACCESS:     755782  HIT:     712596  MISS:      43186
cpu0_STLB LOAD      ACCESS:     739833  HIT:     697960  MISS:      41873
cpu0_STLB RFO       ACCESS:      15949  HIT:      14636  MISS:       1313
cpu0_STLB PREFETCH  ACCESS:          0  HIT:          0  MISS:          0
cpu0_STLB WRITEBACK ACCESS:          0  HIT:          0  MISS:          0
cpu0_L1D TOTAL     ACCESS:    7243860  HIT:    5693170  MISS:    1550690
cpu0_L1D LOAD      ACCESS:    5229359  HIT:    3745455  MISS:    1483904
cpu0_L1D RFO       ACCESS:    1972358  HIT:    1909421  MISS:      62937
cpu0_L1D PREFETCH  ACCESS:          0  HIT:          0  MISS:          0
cpu0_L1D WRITEBACK ACCESS:          0  HIT:          0  MISS:          0
cpu0_L2C TOTAL     ACCESS:    1712209  HIT:    1594881  MISS:     117328
cpu0_L2C LOAD      ACCESS:    1553759  HIT:    1490165  MISS:      63594
cpu0_L2C RFO       ACCESS:      62937  HIT:       9216  MISS:      53721
cpu0_L2C PREFETCH  ACCESS:          0  HIT:          0  MISS:          0
cpu0_L2C WRITEBACK ACCESS:      91664  HIT:      91664  MISS:          0
LLC TOTAL     ACCESS:     179751  HIT:     103326  MISS:      76425
LLC LOAD      ACCESS:      63591  HIT:      56225  MISS:       7366
LLC RFO       ACCESS:      53721  HIT:        815  MISS:      52906
LLC PREFETCH  ACCESS:          0  HIT:          0  MISS:          0
LLC WRITEBACK ACCESS:      62426  HIT:      46277  MISS:      16149
Heartbeat CPU 0 instructions: 94000001 cycles: 54382251 heartbeat IPC: 1.0617 cumulative IPC: 1.11194 (Simulation time: 1 hr 10 min 37 sec) 

Region of Interest Statistics
cpu0_DTLB TOTAL     ACCESS:    5916686  HIT:    5114987  MISS:     801699
cpu0_DTLB LOAD      ACCESS:    4834846  HIT:    4049868  MISS:     784978
cpu0_DTLB RFO       ACCESS:    1081840  HIT:    1065119  MISS:      16721
cpu0_DTLB PREFETCH  ACCESS:          0  HIT:          0  MISS:          0
cpu0_DTLB WRITEBACK ACCESS:          0  HIT:          0  MISS:          0
cpu0_ITLB TOTAL     ACCESS:    1935244  HIT:    1924221  MISS:      11023
cpu0_ITLB LOAD      ACCESS:    1935244  HIT:    1924221  MISS:      11023
cpu0_ITLB RFO       ACCESS:          0  HIT:          0  MISS:          0
cpu0_ITLB PREFETCH  ACCESS:          0  HIT:          0  MISS:          0
cpu0_ITLB WRITEBACK ACCESS:          0  HIT:          0  MISS:          0
cpu0_L1I TOTAL     ACCESS:    1469983  HIT:    1400122  MISS:      69861
cpu0_L1I LOAD      ACCESS:    1469983  HIT:    1400122  MISS:      69861
cpu0_L1I RFO       ACCESS:          0  HIT:          0  MISS:          0
cpu0_L1I PREFETCH  ACCESS:          0  HIT:          0  MISS:          0
cpu0_L1I WRITEBACK ACCESS:          0  HIT:          0  MISS:          0
cpu0_STLB TOTAL     ACCESS:     812722  HIT:     766716  MISS:      46006
cpu0_STLB LOAD      ACCESS:     796001  HIT:     751317  MISS:      44684
cpu0_STLB RFO       ACCESS:      16721  HIT:      15399  MISS:       1322
cpu0_STLB PREFETCH  ACCESS:          0  HIT:          0  MISS:          0
cpu0_STLB WRITEBACK ACCESS:          0  HIT:          0  MISS:          0
cpu0_L1D TOTAL     ACCESS:    7527042  HIT:    5897124  MISS:    1629918
cpu0_L1D LOAD      ACCESS:    5490139  HIT:    3927336  MISS:    1562803
cpu0_L1D RFO       ACCESS:    1992020  HIT:    1928899  MISS:      63121
cpu0_L1D PREFETCH  ACCESS:          0  HIT:          0  MISS:          0
cpu0_L1D WRITEBACK ACCESS:          0  HIT:          0  MISS:          0
cpu0_L2C TOTAL     ACCESS:    1792748  HIT:    1672635  MISS:     120113
cpu0_L2C LOAD      ACCESS:    1632658  HIT:    1566358  MISS:      66300
cpu0_L2C RFO       ACCESS:      63121  HIT:       9321  MISS:      53800
cpu0_L2C PREFETCH  ACCESS:          0  HIT:          0  MISS:          0
cpu0_L2C WRITEBACK ACCESS:      92975  HIT:      92975  MISS:          0
LLC TOTAL     ACCESS:     183187  HIT:     105785  MISS:      77402
LLC LOAD      ACCESS:      66297  HIT:      58209  MISS:       8088
LLC RFO       ACCESS:      53800  HIT:        821  MISS:      52979
LLC PREFETCH  ACCESS:          0  HIT:          0  MISS:          0
LLC WRITEBACK ACCESS:      63077  HIT:      46746  MISS:      16331
Heartbeat CPU 0 instructions: 96000004 cycles: 56390895 heartbeat IPC: 0.995698 cumulative IPC: 1.10632 (Simulation time: 1 hr 12 min 31 sec) 

Region of Interest Statistics
cpu0_DTLB TOTAL     ACCESS:    6155929  HIT:    5289892  MISS:     866037
cpu0_DTLB LOAD      ACCESS:    5063802  HIT:    4215478  MISS:     848324
cpu0_DTLB RFO       ACCESS:    1092127  HIT:    1074414  MISS:      17713
cpu0_DTLB PREFETCH  ACCESS:          0  HIT:          0  MISS:          0
cpu0_DTLB WRITEBACK ACCESS:          0  HIT:          0  MISS:          0
cpu0_ITLB TOTAL     ACCESS:    2004409  HIT:    1993386  MISS:      11023
cpu0_ITLB LOAD      ACCESS:    2004409  HIT:    1993386  MISS:      11023
cpu0_ITLB RFO       ACCESS:          0  HIT:          0  MISS:          0
cpu0_ITLB PREFETCH  ACCESS:          0  HIT:          0  MISS:          0
cpu0_ITLB WRITEBACK ACCESS:          0  HIT:          0  MISS:          0
cpu0_L1I TOTAL     ACCESS:    1470249  HIT:    1400388  MISS:      69861
cpu0_L1I LOAD      ACCESS:    1470249  HIT:    1400388  MISS:      69861
cpu0_L1I RFO       ACCESS:          0  HIT:          0  MISS:          0
cpu0_L1I PREFETCH  ACCESS:          0  HIT:          0  MISS:          0
cpu0_L1I WRITEBACK ACCESS:          0  HIT:          0  MISS:          0
cpu0_STLB TOTAL     ACCESS:     877061  HIT:     827894  MISS:      49167
cpu0_STLB LOAD      ACCESS:     859348  HIT:     811517  MISS:      47831
cpu0_STLB RFO       ACCESS:      17713  HIT:      16377  MISS:       1336
cpu0_STLB PREFETCH  ACCESS:          0  HIT:          0  MISS:          0
cpu0_STLB WRITEBACK ACCESS:          0  HIT:          0  MISS:          0
cpu0_L1D TOTAL     ACCESS:    7819561  HIT:    6103823  MISS:    1715738
cpu0_L1D LOAD      ACCESS:    5759011  HIT:    4110747  MISS:    1648264
cpu0_L1D RFO       ACCESS:    2012596  HIT:    1949278  MISS:      63318
cpu0_L1D PREFETCH  ACCESS:          0  HIT:          0  MISS:          0
cpu0_L1D WRITEBACK ACCESS:          0  HIT:          0  MISS:          0
cpu0_L2C TOTAL     ACCESS:    1880023  HIT:    1756766  MISS:     123257
cpu0_L2C LOAD      ACCESS:    1718119  HIT:    1648762  MISS:      69357
cpu0_L2C RFO       ACCESS:      63318  HIT:       9431  MISS:      53887
cpu0_L2C PREFETCH  ACCESS:          0  HIT:          0  MISS:          0
cpu0_L2C WRITEBACK ACCESS:      94430  HIT:      94430  MISS:          0
LLC TOTAL     ACCESS:     186999  HIT:     108511  MISS:      78488
LLC LOAD      ACCESS:      69354  HIT:      60443  MISS:       8911
LLC RFO       ACCESS:      53887  HIT:        821  MISS:      53066
LLC PREFETCH  ACCESS:          0  HIT:          0  MISS:          0
LLC WRITEBACK ACCESS:      63745  HIT:      47238  MISS:      16507
Heartbeat CPU 0 instructions: 98000001 cycles: 58488667 heartbeat IPC: 0.953391 cumulative IPC: 1.09898 (Simulation time: 1 hr 14 min 28 sec) 

Region of Interest Statistics
cpu0_DTLB TOTAL     ACCESS:    6403506  HIT:    5468772  MISS:     934734
cpu0_DTLB LOAD      ACCESS:    5300341  HIT:    4384445  MISS:     915896
cpu0_DTLB RFO       ACCESS:    1103165  HIT:    1084327  MISS:      18838
cpu0_DTLB PREFETCH  ACCESS:          0  HIT:          0  MISS:          0
cpu0_DTLB WRITEBACK ACCESS:          0  HIT:          0  MISS:          0
cpu0_ITLB TOTAL     ACCESS:    2081161  HIT:    2070138  MISS:      11023
cpu0_ITLB LOAD      ACCESS:    2081161  HIT:    2070138  MISS:      11023
cpu0_ITLB RFO       ACCESS:          0  HIT:          0  MISS:          0
cpu0_ITLB PREFETCH  ACCESS:          0  HIT:          0  MISS:          0
cpu0_ITLB WRITEBACK ACCESS:          0  HIT:          0  MISS:          0
cpu0_L1I TOTAL     ACCESS:    1470537  HIT:    1400676  MISS:      69861
cpu0_L1I LOAD      ACCESS:    1470537  HIT:    1400676  MISS:      69861
cpu0_L1I RFO       ACCESS:          0  HIT:          0  MISS:          0
cpu0_L1I PREFETCH  ACCESS:          0  HIT:          0  MISS:          0
cpu0_L1I WRITEBACK ACCESS:          0  HIT:          0  MISS:          0
cpu0_STLB TOTAL     ACCESS:     945757  HIT:     893255  MISS:      52502
cpu0_STLB LOAD      ACCESS:     926919  HIT:     875773  MISS:      51146
cpu0_STLB RFO       ACCESS:      18838  HIT:      17482  MISS:       1356
cpu0_STLB PREFETCH  ACCESS:          0  HIT:          0  MISS:          0
cpu0_STLB WRITEBACK ACCESS:          0  HIT:          0  MISS:          0
cpu0_L1D TOTAL     ACCESS:    8119998  HIT:    6317332  MISS:    1802666
cpu0_L1D LOAD      ACCESS:    6034031  HIT:    4299229  MISS:    1734802
cpu0_L1D RFO       ACCESS:    2034771  HIT:    1971227  MISS:      63544
cpu0_L1D PREFETCH  ACCESS:          0  HIT:          0  MISS:          0
cpu0_L1D WRITEBACK ACCESS:          0  HIT:          0  MISS:          0
cpu0_L2C TOTAL     ACCESS:    1968404  HIT:    1841893  MISS:     126511
cpu0_L2C LOAD      ACCESS:    1804656  HIT:    1732151  MISS:      72505
cpu0_L2C RFO       ACCESS:      63544  HIT:       9551  MISS:      53993
cpu0_L2C PREFETCH  ACCESS:          0  HIT:          0  MISS:          0
cpu0_L2C WRITEBACK ACCESS:      95884  HIT:      95884  MISS:          0
LLC TOTAL     ACCESS:     190982  HIT:     111238  MISS:      79744
LLC LOAD      ACCESS:      72502  HIT:      62662  MISS:       9840
LLC RFO       ACCESS:      53993  HIT:        821  MISS:      53172
LLC PREFETCH  ACCESS:          0  HIT:          0  MISS:          0
LLC WRITEBACK ACCESS:      64474  HIT:      47746  MISS:      16728
Heartbeat CPU 0 instructions: 100000001 cycles: 60735254 heartbeat IPC: 0.890239 cumulative IPC: 1.08876 (Simulation time: 1 hr 16 min 26 sec) 

Region of Interest Statistics
cpu0_DTLB TOTAL     ACCESS:    6663345  HIT:    5649364  MISS:    1013981
cpu0_DTLB LOAD      ACCESS:    5548394  HIT:    4554470  MISS:     993924
cpu0_DTLB RFO       ACCESS:    1114951  HIT:    1094894  MISS:      20057
cpu0_DTLB PREFETCH  ACCESS:          0  HIT:          0  MISS:          0
cpu0_DTLB WRITEBACK ACCESS:          0  HIT:          0  MISS:          0
cpu0_ITLB TOTAL     ACCESS:    2162216  HIT:    2151193  MISS:      11023
cpu0_ITLB LOAD      ACCESS:    2162216  HIT:    2151193  MISS:      11023
cpu0_ITLB RFO       ACCESS:          0  HIT:          0  MISS:          0
cpu0_ITLB PREFETCH  ACCESS:          0  HIT:          0  MISS:          0
cpu0_ITLB WRITEBACK ACCESS:          0  HIT:          0  MISS:          0
cpu0_L1I TOTAL     ACCESS:    1470845  HIT:    1400984  MISS:      69861
cpu0_L1I LOAD      ACCESS:    1470845  HIT:    1400984  MISS:      69861
cpu0_L1I RFO       ACCESS:          0  HIT:          0  MISS:          0
cpu0_L1I PREFETCH  ACCESS:          0  HIT:          0  MISS:          0
cpu0_L1I WRITEBACK ACCESS:          0  HIT:          0  MISS:          0
cpu0_STLB TOTAL     ACCESS:    1025004  HIT:     968809  MISS:      56195
cpu0_STLB LOAD      ACCESS:    1004947  HIT:     950127  MISS:      54820
cpu0_STLB RFO       ACCESS:      20057  HIT:      18682  MISS:       1375
cpu0_STLB PREFETCH  ACCESS:          0  HIT:          0  MISS:          0
cpu0_STLB WRITEBACK ACCESS:          0  HIT:          0  MISS:          0
cpu0_L1D TOTAL     ACCESS:    8434978  HIT:    6535184  MISS:    1899794
cpu0_L1D LOAD      ACCESS:    6321743  HIT:    4490211  MISS:    1831532
cpu0_L1D RFO       ACCESS:    2058443  HIT:    1994663  MISS:      63780
cpu0_L1D PREFETCH  ACCESS:          0  HIT:          0  MISS:          0
cpu0_L1D WRITEBACK ACCESS:          0  HIT:          0  MISS:          0
cpu0_L2C TOTAL     ACCESS:    2067175  HIT:    1937274  MISS:     129901
cpu0_L2C LOAD      ACCESS:    1901386  HIT:    1825597  MISS:      75789
cpu0_L2C RFO       ACCESS:      63780  HIT:       9682  MISS:      54098
cpu0_L2C PREFETCH  ACCESS:          0  HIT:          0  MISS:          0
cpu0_L2C WRITEBACK ACCESS:      97527  HIT:      97527  MISS:          0
LLC TOTAL     ACCESS:     195181  HIT:     114091  MISS:      81090
LLC LOAD      ACCESS:      75786  HIT:      64947  MISS:      10839
LLC RFO       ACCESS:      54098  HIT:        821  MISS:      53277
LLC PREFETCH  ACCESS:          0  HIT:          0  MISS:          0
LLC WRITEBACK ACCESS:      65283  HIT:      48313  MISS:      16970
Heartbeat CPU 0 instructions: 102000004 cycles: 63131801 heartbeat IPC: 0.834535 cumulative IPC: 1.07616 (Simulation time: 1 hr 18 min 23 sec) 

Region of Interest Statistics
cpu0_DTLB TOTAL     ACCESS:    6935401  HIT:    5832388  MISS:    1103013
cpu0_DTLB LOAD      ACCESS:    5807620  HIT:    4725984  MISS:    1081636
cpu0_DTLB RFO       ACCESS:    1127781  HIT:    1106404  MISS:      21377
cpu0_DTLB PREFETCH  ACCESS:          0  HIT:          0  MISS:          0
cpu0_DTLB WRITEBACK ACCESS:          0  HIT:          0  MISS:          0
cpu0_ITLB TOTAL     ACCESS:    2253053  HIT:    2242030  MISS:      11023
cpu0_ITLB LOAD      ACCESS:    2253053  HIT:    2242030  MISS:      11023
cpu0_ITLB RFO       ACCESS:          0  HIT:          0  MISS:          0
cpu0_ITLB PREFETCH  ACCESS:          0  HIT:          0  MISS:          0
cpu0_ITLB WRITEBACK ACCESS:          0  HIT:          0  MISS:          0
cpu0_L1I TOTAL     ACCESS:    1471179  HIT:    1401318  MISS:      69861
cpu0_L1I LOAD      ACCESS:    1471179  HIT:    1401318  MISS:      69861
cpu0_L1I RFO       ACCESS:          0  HIT:          0  MISS:          0
cpu0_L1I PREFETCH  ACCESS:          0  HIT:          0  MISS:          0
cpu0_L1I WRITEBACK ACCESS:          0  HIT:          0  MISS:          0
cpu0_STLB TOTAL     ACCESS:    1114036  HIT:    1053643  MISS:      60393
cpu0_STLB LOAD      ACCESS:    1092659  HIT:    1033671  MISS:      58988
cpu0_STLB RFO       ACCESS:      21377  HIT:      19972  MISS:       1405
cpu0_STLB PREFETCH  ACCESS:          0  HIT:          0  MISS:          0
cpu0_STLB WRITEBACK ACCESS:          0  HIT:          0  MISS:          0
cpu0_L1D TOTAL     ACCESS:    8764357  HIT:    6760408  MISS:    2003949
cpu0_L1D LOAD      ACCESS:    6621293  HIT:    4686072  MISS:    1935221
cpu0_L1D RFO       ACCESS:    2084163  HIT:    2020114  MISS:      64049
cpu0_L1D PREFETCH  ACCESS:          0  HIT:          0  MISS:          0
cpu0_L1D WRITEBACK ACCESS:          0  HIT:          0  MISS:          0
cpu0_L2C TOTAL     ACCESS:    2173115  HIT:    2039446  MISS:     133669
cpu0_L2C LOAD      ACCESS:    2005075  HIT:    1925647  MISS:      79428
cpu0_L2C RFO       ACCESS:      64049  HIT:       9822  MISS:      54227
cpu0_L2C PREFETCH  ACCESS:          0  HIT:          0  MISS:          0
cpu0_L2C WRITEBACK ACCESS:      99312  HIT:      99312  MISS:          0
LLC TOTAL     ACCESS:     199836  HIT:     117228  MISS:      82608
LLC LOAD      ACCESS:      79425  HIT:      67486  MISS:      11939
LLC RFO       ACCESS:      54227  HIT:        821  MISS:      53406
LLC PREFETCH  ACCESS:          0  HIT:          0  MISS:          0
LLC WRITEBACK ACCESS:      66170  HIT:      48911  MISS:      17259
Heartbeat CPU 0 instructions: 104000001 cycles: 65799548 heartbeat IPC: 0.749695 cumulative IPC: 1.05907 (Simulation time: 1 hr 20 min 23 sec) 

Region of Interest Statistics
cpu0_DTLB TOTAL     ACCESS:    7230571  HIT:    6025287  MISS:    1205284
cpu0_DTLB LOAD      ACCESS:    6088542  HIT:    4906074  MISS:    1182468
cpu0_DTLB RFO       ACCESS:    1142029  HIT:    1119213  MISS:      22816
cpu0_DTLB PREFETCH  ACCESS:          0  HIT:          0  MISS:          0
cpu0_DTLB WRITEBACK ACCESS:          0  HIT:          0  MISS:          0
cpu0_ITLB TOTAL     ACCESS:    2353707  HIT:    2342684  MISS:      11023
cpu0_ITLB LOAD      ACCESS:    2353707  HIT:    2342684  MISS:      11023
cpu0_ITLB RFO       ACCESS:          0  HIT:          0  MISS:          0
cpu0_ITLB PREFETCH  ACCESS:          0  HIT:          0  MISS:          0
cpu0_ITLB WRITEBACK ACCESS:          0  HIT:          0  MISS:          0
cpu0_L1I TOTAL     ACCESS:    1471545  HIT:    1401684  MISS:      69861
cpu0_L1I LOAD      ACCESS:    1471545  HIT:    1401684  MISS:      69861
cpu0_L1I RFO       ACCESS:          0  HIT:          0  MISS:          0
cpu0_L1I PREFETCH  ACCESS:          0  HIT:          0  MISS:          0
cpu0_L1I WRITEBACK ACCESS:          0  HIT:          0  MISS:          0
cpu0_STLB TOTAL     ACCESS:    1216307  HIT:    1151163  MISS:      65144
cpu0_STLB LOAD      ACCESS:    1193491  HIT:    1129770  MISS:      63721
cpu0_STLB RFO       ACCESS:      22816  HIT:      21393  MISS:       1423
cpu0_STLB PREFETCH  ACCESS:          0  HIT:          0  MISS:          0
cpu0_STLB WRITEBACK ACCESS:          0  HIT:          0  MISS:          0
cpu0_L1D TOTAL     ACCESS:    9116374  HIT:    6998026  MISS:    2118348
cpu0_L1D LOAD      ACCESS:    6940072  HIT:    4890956  MISS:    2049116
cpu0_L1D RFO       ACCESS:    2112743  HIT:    2048411  MISS:      64332
cpu0_L1D PREFETCH  ACCESS:          0  HIT:          0  MISS:          0
cpu0_L1D WRITEBACK ACCESS:          0  HIT:          0  MISS:          0
cpu0_L2C TOTAL     ACCESS:    2289496  HIT:    2151680  MISS:     137816
cpu0_L2C LOAD      ACCESS:    2118971  HIT:    2035528  MISS:      83443
cpu0_L2C RFO       ACCESS:      64332  HIT:       9973  MISS:      54359
cpu0_L2C PREFETCH  ACCESS:          0  HIT:          0  MISS:          0
cpu0_L2C WRITEBACK ACCESS:     101293  HIT:     101293  MISS:          0
LLC TOTAL     ACCESS:     204996  HIT:     120717  MISS:      84279
LLC LOAD      ACCESS:      83440  HIT:      70279  MISS:      13161
LLC RFO       ACCESS:      54359  HIT:        821  MISS:      53538
LLC PREFETCH  ACCESS:          0  HIT:          0  MISS:          0
LLC WRITEBACK ACCESS:      67183  HIT:      49607  MISS:      17576
Heartbeat CPU 0 instructions: 106000002 cycles: 68787103 heartbeat IPC: 0.669444 cumulative IPC: 1.03751 (Simulation time: 1 hr 22 min 20 sec) 

Region of Interest Statistics
cpu0_DTLB TOTAL     ACCESS:    7552105  HIT:    6227149  MISS:    1324956
cpu0_DTLB LOAD      ACCESS:    6393674  HIT:    5093076  MISS:    1300598
cpu0_DTLB RFO       ACCESS:    1158431  HIT:    1134073  MISS:      24358
cpu0_DTLB PREFETCH  ACCESS:          0  HIT:          0  MISS:          0
cpu0_DTLB WRITEBACK ACCESS:          0  HIT:          0  MISS:          0
cpu0_ITLB TOTAL     ACCESS:    2466485  HIT:    2455462  MISS:      11023
cpu0_ITLB LOAD      ACCESS:    2466485  HIT:    2455462  MISS:      11023
cpu0_ITLB RFO       ACCESS:          0  HIT:          0  MISS:          0
cpu0_ITLB PREFETCH  ACCESS:          0  HIT:          0  MISS:          0
cpu0_ITLB WRITEBACK ACCESS:          0  HIT:          0  MISS:          0
cpu0_L1I TOTAL     ACCESS:    1471966  HIT:    1402105  MISS:      69861
cpu0_L1I LOAD      ACCESS:    1471966  HIT:    1402105  MISS:      69861
cpu0_L1I RFO       ACCESS:          0  HIT:          0  MISS:          0
cpu0_L1I PREFETCH  ACCESS:          0  HIT:          0  MISS:          0
cpu0_L1I WRITEBACK ACCESS:          0  HIT:          0  MISS:          0
cpu0_STLB TOTAL     ACCESS:    1335979  HIT:    1265336  MISS:      70643
cpu0_STLB LOAD      ACCESS:    1311621  HIT:    1242432  MISS:      69189
cpu0_STLB RFO       ACCESS:      24358  HIT:      22904  MISS:       1454
cpu0_STLB PREFETCH  ACCESS:          0  HIT:          0  MISS:          0
cpu0_STLB WRITEBACK ACCESS:          0  HIT:          0  MISS:          0
cpu0_L1D TOTAL     ACCESS:    9497201  HIT:    7250690  MISS:    2246511
cpu0_L1D LOAD      ACCESS:    7282722  HIT:    5106026  MISS:    2176696
cpu0_L1D RFO       ACCESS:    2145536  HIT:    2080872  MISS:      64664
cpu0_L1D PREFETCH  ACCESS:          0  HIT:          0  MISS:          0
cpu0_L1D WRITEBACK ACCESS:          0  HIT:          0  MISS:          0
cpu0_L2C TOTAL     ACCESS:    2419921  HIT:    2277323  MISS:     142598
cpu0_L2C LOAD      ACCESS:    2246550  HIT:    2158480  MISS:      88070
cpu0_L2C RFO       ACCESS:      64664  HIT:      10150  MISS:      54514
cpu0_L2C PREFETCH  ACCESS:          0  HIT:          0  MISS:          0
[...]
cpu0_DTLB WRITEBACK ACCESS:          0  HIT:          0  MISS:          0
cpu0_DTLB TRANSLATION ACCESS:          0  HIT:          0  MISS:          0
cpu0_DTLB PREFETCH  REQUESTED:          0  ISSUED:          0  USEFUL:          0  USELESS:          0
cpu0_DTLB AVERAGE MISS LATENCY: 9.55425 cycles
cpu0_ITLB TOTAL     ACCESS:   75566643  HIT:   75120074  MISS:     446569
cpu0_ITLB LOAD      ACCESS:   75566643  HIT:   75120074  MISS:     446569
cpu0_ITLB RFO       ACCESS:          0  HIT:          0  MISS:          0
cpu0_ITLB PREFETCH  ACCESS:          0  HIT:          0  MISS:          0
cpu0_ITLB WRITEBACK ACCESS:          0  HIT:          0  MISS:          0
cpu0_ITLB TRANSLATION ACCESS:          0  HIT:          0  MISS:          0
cpu0_ITLB PREFETCH  REQUESTED:          0  ISSUED:          0  USEFUL:          0  USELESS:          0
cpu0_ITLB AVERAGE MISS LATENCY: 9.7193 cycles
cpu0_L1I TOTAL     ACCESS:   56223876  HIT:   53615027  MISS:    2608849
cpu0_L1I LOAD      ACCESS:   56223876  HIT:   53615027  MISS:    2608849
cpu0_L1I RFO       ACCESS:          0  HIT:          0  MISS:          0
cpu0_L1I PREFETCH  ACCESS:          0  HIT:          0  MISS:          0
cpu0_L1I WRITEBACK ACCESS:          0  HIT:          0  MISS:          0
cpu0_L1I TRANSLATION ACCESS:          0  HIT:          0  MISS:          0
cpu0_L1I PREFETCH  REQUESTED:          0  ISSUED:          0  USEFUL:          0  USELESS:          0
cpu0_L1I AVERAGE MISS LATENCY: 12.8288 cycles
cpu0_STLB TOTAL     ACCESS:   36044576  HIT:   34158518  MISS:    1886058
cpu0_STLB LOAD      ACCESS:   35378007  HIT:   33552070  MISS:    1825937
cpu0_STLB RFO       ACCESS:     666569  HIT:     606448  MISS:      60121
cpu0_STLB PREFETCH  ACCESS:          0  HIT:          0  MISS:          0
cpu0_STLB WRITEBACK ACCESS:          0  HIT:          0  MISS:          0
cpu0_STLB TRANSLATION ACCESS:          0  HIT:          0  MISS:          0
cpu0_STLB PREFETCH  REQUESTED:          0  ISSUED:          0  USEFUL:          0  USELESS:          0
cpu0_STLB AVERAGE MISS LATENCY: 10.518 cycles
cpu0_L1D TOTAL     ACCESS:  268469927  HIT:  195394518  MISS:   73075409
cpu0_L1D LOAD      ACCESS:  188952492  HIT:  118717697  MISS:   70234795
cpu0_L1D RFO       ACCESS:   77674658  HIT:   74979697  MISS:    2694961
cpu0_L1D PREFETCH  ACCESS:          0  HIT:          0  MISS:          0
cpu0_L1D WRITEBACK ACCESS:          0  HIT:          0  MISS:          0
cpu0_L1D TRANSLATION ACCESS:    1842777  HIT:    1697124  MISS:     145653
cpu0_L1D PREFETCH  REQUESTED:          0  ISSUED:          0  USEFUL:          0  USELESS:          0
cpu0_L1D AVERAGE MISS LATENCY: 21.8536 cycles
cpu0_L2C TOTAL     ACCESS:   79672440  HIT:   74496024  MISS:    5176416
cpu0_L2C LOAD      ACCESS:   72843180  HIT:   69938114  MISS:    2905066
cpu0_L2C RFO       ACCESS:    2694901  HIT:     424482  MISS:    2270419
cpu0_L2C PREFETCH  ACCESS:          0  HIT:          0  MISS:          0
cpu0_L2C WRITEBACK ACCESS:    3988706  HIT:    3988665  MISS:         41
cpu0_L2C TRANSLATION ACCESS:     145653  HIT:     144763  MISS:        890
cpu0_L2C PREFETCH  REQUESTED:          0  ISSUED:          0  USEFUL:          0  USELESS:          0
cpu0_L2C AVERAGE MISS LATENCY: 152.385 cycles
LLC TOTAL     ACCESS:    7766227  HIT:    3815487  MISS:    3950740
LLC LOAD      ACCESS:    2905004  HIT:    2662459  MISS:     242545
LLC RFO       ACCESS:    2270419  HIT:     244853  MISS:    2025566
LLC PREFETCH  ACCESS:          0  HIT:          0  MISS:          0
LLC WRITEBACK ACCESS:    2589914  HIT:     907499  MISS:    1682415
LLC TRANSLATION ACCESS:        890  HIT:        676  MISS:        214
LLC PREFETCH  REQUESTED:          0  ISSUED:          0  USEFUL:          0  USELESS:          0
LLC AVERAGE MISS LATENCY: 172.145 cycles
~~~~~~~~~~Reuse Distance Profiler output~~~~~~~~~~
0	68771152	27559760
1	16652448	10736496
2	11092672	7409552
3	6595824	4078624
4	5084640	3399664
5	3701744	2395248
6	3152512	1472656
7	2421984	1143008
8	2148464	1001248
9	2321488	1039920
10	2082336	1196160
11	1820224	873456
12	1308720	643472
13	1286768	697728
14	1258672	807648
15	1294496	751312
16	1318960	877696
17	1022480	719648
18	968944	523664
19	1251632	950848
20	658640	415312
21	513232	310608
22	543040	309040
23	520944	317904
24	313376	170400
25	371120	203312
26	382912	211168
27	396176	223296
28	392880	190912
29	338624	167296
30	390464	238976
31	441072	200688
32	453904	258896
33	423040	276736
34	363472	227344
35	320448	189808
36	289712	169216
37	295040	170432
38	359328	296000
39	416192	305280
40	332480	273744
41	313056	250944
42	228560	150976
43	346880	256464
44	268144	186864
45	311424	231872
46	259712	175056
47	214688	117520
48	248608	154432
49	180256	72992
50	216496	101040
51	173264	87680
52	215408	120960
53	195616	118528
54	228176	122720
55	225168	154704
56	205920	123648
57	238592	169344
58	189408	123120
59	220608	156512
60	236592	135264
61	249616	174000
62	248560	124320
63	314992	188592
64	396320	291344
66	342112	206592
68	300880	230208
70	397728	314352
72	290960	190592
74	363680	238896
76	301728	191984
78	250896	185760
80	371856	300448
82	354608	315328
84	480368	431792
86	404736	358288
88	284224	262464
90	219360	194800
92	219968	186816
94	209712	174960
96	177600	133440
98	164496	104240
100	149072	109840
102	144160	122768
104	160896	134336
106	207840	165232
108	188160	107216
110	204224	122896
112	132128	87616
114	143136	127520
116	127008	109200
118	127488	107872
120	93984	73712
122	77216	57024
124	99568	84960
126	145184	121968
128	353072	285968
132	381808	289088
136	302880	211872
140	263552	214832
144	204688	181584
148	183888	159280
152	206464	159456
156	235312	205520
160	238656	197936
164	256176	202240
168	285664	256624
172	216048	188272
176	240368	169840
180	242992	191888
184	248800	214624
188	256464	205312
192	219808	166080
196	128256	104736
200	156064	145616
204	239312	231440
208	318016	275472
212	214000	198432
216	147632	136704
220	109520	84016
224	102432	90464
228	119056	109808
232	141456	133744
236	163728	154496
240	97424	79568
244	113216	85200
248	134368	117872
252	115792	104960
256	128896	107552
264	115968	95936
272	110112	97392
280	156240	143408
288	156480	121600
296	121232	113040
304	178464	171312
312	190096	151696
320	206928	179856
328	218576	186880
336	219360	173632
344	193616	181360
352	217712	208480
360	233952	217168
368	215888	201920
376	228368	207872
384	256320	225744
392	365472	333472
400	306608	277392
408	393536	352032
416	283952	247296
424	256624	212592
432	309936	276480
440	274096	234176
448	240640	185888
456	198448	171248
464	176416	142416
472	213696	170144
480	245040	223504
488	228544	221664
496	206032	199232
504	201056	191056
512	569088	543552
528	297248	263408
544	381136	340864
560	364816	350000
576	371184	357072
592	393488	357856
608	387520	347792
624	446320	409456
640	461008	442784
656	426928	412336
672	393984	375888
688	351664	329264
704	377472	344288
720	385504	348256
736	429856	391408
752	388720	360464
768	517296	447568
784	411952	368384
800	383728	365696
816	362800	348992
832	443872	401824
848	461808	419264
864	371920	356624
880	372304	347936
896	439584	397184
912	455440	421040
928	446640	421008
944	410736	391280
960	436784	422208
976	430960	387408
992	399584	342032
1008	377984	345568
1024	837280	816080
1056	879520	843392
1088	719968	689248
1120	678608	659136
1152	693024	675168
1184	692416	673472
1216	624560	600736
1248	671936	652048
1280	616480	599200
1312	500240	482000
1344	651888	635088
1376	797216	779808
1408	1081664	1063456
1440	2212048	2191984
1472	1335168	1317248
1504	1084032	1068320
1536	1584064	1563440
1568	2150624	2130080
1600	800864	787648
1632	582496	572656
1664	540416	532400
1696	275072	267824
1728	193328	185840
1760	145904	138544
1792	128656	122160
1824	124144	118512
1856	104736	98608
1888	130384	124368
1920	129520	122800
1952	154832	139536
1984	123760	112272
2016	114896	94048
2048	132944	123104
2112	131760	119488
2176	153984	137728
2240	180096	166896
2304	230928	218384
2368	178464	164384
2432	194272	180848
2496	145952	131248
2560	114672	100656
2624	142416	124016
2688	128768	109856
2752	118496	99008
2816	124832	106064
2880	121584	107968
2944	151424	135904
3008	167088	155184
3072	130256	118864
3136	124544	114432
3200	104960	95776
3264	89184	81344
3328	91456	84448
3392	108160	101424
3456	127280	119408
3520	124320	115584
3584	158144	150080
3648	143968	136272
3712	124720	116368
3776	166928	157936
3840	239552	228128
3904	273680	262288
3968	281920	271616
4032	315232	305008
4096	623568	604816
4224	779648	751744
4352	865392	836224
4480	1075584	1048320
4608	1845712	1820256
4736	2312880	2282176
4864	883376	872848
4992	725312	719648
5120	701056	695536
5248	746464	741952
5376	1022784	1011360
5504	407824	399328
5632	321568	311888
5760	667680	657216
5888	516720	510608
6016	307968	303552
6144	306800	303072
6272	157392	151872
6400	205248	200528
6528	220384	212112
6656	193168	184928
6784	213616	203552
6912	278464	270064
7040	367504	363024
7168	423552	418032
7296	406960	401328
7424	450304	445696
7552	415584	411120
7680	368368	364512
7808	331680	326800
7936	368480	363152
8064	370080	363728
8192	900592	886672
8448	1009088	996576
8704	1008096	1001664
8960	1051440	1047760
9216	638560	636688
9472	597824	595824
9728	868208	865904
9984	654800	654272
10240	529248	529072
10496	566192	566000
10752	584800	584720
11008	560320	560176
11264	505712	505504
11520	518752	518528
11776	539024	538736
12032	452656	452384
12288	491168	491056
12544	531312	531024
12800	460560	460272
13056	490208	490048
13312	432496	432304
13568	428272	428160
13824	473584	473424
14080	463168	463024
14336	406992	406880
14592	429568	429424
14848	337504	337296
15104	393664	393472
15360	366736	366304
15616	357920	357520
15872	273952	273568
16128	243808	243520
16384	335776	335136
16896	526144	525584
17408	1236928	1236240
17920	1886480	1885824
18432	820544	819280
18944	471040	470448
19456	1108496	1107680
19968	1305072	1304128
20480	1159936	1159024
20992	1187040	1186112
21504	977008	975936
22016	1271312	1270144
22528	1700496	1698992
23040	2203936	2202912
23552	1223408	1222464
24064	1291376	1290672
24576	1188384	1187648
25088	1008192	1007872
25600	1060112	1059696
26112	1068160	1067808
26624	905616	904928
27136	1040112	1039616
27648	2302288	2302032
28160	320256	320000
28672	166736	166576
29184	198080	197936
29696	170368	170224
30208	135248	135024
30720	158240	158064
31232	234080	233872
31744	119440	119280
32256	2880	2672
32768	5248	5008
33792	5104	4912
34816	10704	10464
35840	7760	7456
36864	6928	6720
37888	5088	4896
38912	4816	4656
39936	4848	4592
40960	5168	4912
41984	4944	4736
43008	3904	3760
44032	6528	6256
45056	3072	2768
46080	4256	3952
47104	4912	4752
48128	3280	3104
49152	3168	3040
50176	7200	6960
51200	3344	3184
52224	5584	5472
53248	5712	5648
54272	2864	2720
55296	11248	11072
56320	2432	2368
57344	2240	2112
58368	6992	6816
59392	1616	1568
60416	4912	4768
61440	1360	1264
62464	6704	6496
63488	7024	6944
64512	1648	1568
65536	6080	5808
67584	7808	7664
69632	2368	2224
71680	5680	5536
73728	9360	9264
75776	1040	896
77824	7696	7536
79872	4240	3888
81920	5728	5568
83968	1488	1216
86016	2016	1776
88064	8000	7648
90112	5536	5360
92160	2048	1808
94208	4864	4672
96256	1168	1088
98304	1296	1216
100352	1968	1936
102400	5808	5680
104448	9088	8976
106496	6192	6080
108544	5040	4928
110592	4352	4240
112640	2032	1936
114688	1328	1280
116736	1504	1360
118784	1200	1152
120832	1376	1280
122880	752	704
124928	4096	3968
126976	944	880
129024	3664	3504
131072	1056	944
135168	1216	1008
139264	1600	1456
143360	1008	816
147456	624	512
151552	608	464
155648	544	432
159744	816	656
163840	544	400
167936	640	432
172032	3776	3680
176128	944	736
180224	1552	1424
184320	1296	1136
188416	1040	944
192512	1872	1648
196608	1200	1024
200704	3856	3680
204800	592	320
208896	496	400
212992	688	560
217088	544	400
221184	528	352
225280	448	304
229376	416	240
233472	496	336
237568	608	384
241664	832	528
245760	480	336
249856	704	624
253952	592	464
258048	624	368
262144	1264	880
270336	1264	720
278528	1472	992
286720	1056	816
294912	1248	880
303104	1296	928
311296	1296	848
319488	2320	1936
327680	1632	1264
335872	1008	720
344064	1696	1152
352256	2160	1904
360448	1552	1216
368640	1504	1168
376832	2656	2272
385024	3408	2960
393216	3744	3216
401408	2176	1728
409600	1152	816
417792	1104	672
425984	2000	1648
434176	2160	1824
442368	2624	2208
450560	2816	2400
458752	960	656
466944	1360	896
475136	1280	864
483328	1152	800
491520	1088	672
499712	1296	912
507904	1824	1568
516096	2048	1696
524288	5488	4672
540672	2240	1632
557056	2304	1632
573440	2112	1392
589824	3344	2400
606208	1888	1168
622592	1984	1264
638976	4048	3152
655360	1744	1120
671744	2240	1520
688128	2448	1712
704512	3456	2848
720896	3328	2624
737280	1984	1232
753664	1696	1104
770048	1632	1136
786432	3408	2512
802816	4688	3984
819200	2528	1472
835584	1488	1008
851968	3344	2592
868352	1920	1248
884736	2112	1376
901120	2128	1472
917504	3152	2448
933888	1856	1104
950272	1584	880
966656	1264	880
983040	3456	2832
999424	1744	1248
1015808	1584	944
1032192	1184	688
1048576	4768	3328
1081344	6320	4960
1114112	4688	3424
1146880	3376	1824
1179648	3488	2032
1212416	3072	1856
1245184	3968	2560
1277952	3600	2000
1310720	3552	2048
1343488	2336	1312
1376256	2432	1408
1409024	2672	1456
1441792	4304	2912
1474560	4000	2896
1507328	2592	1296
1540096	4960	3280
1572864	2848	1520
1605632	2624	1328
1638400	4544	3248
1671168	2416	1344
1703936	2832	1696
1736704	3840	2656
1769472	4352	2832
1802240	5120	3280
1835008	2848	1376
1867776	3328	1760
1900544	3392	1952
1933312	3312	1696
1966080	2848	1344
1998848	4176	2800
2031616	5360	4064
2064384	3392	1744
2097152	6528	3696
2162688	5488	3232
2228224	5568	3232
2293760	5488	3296
2359296	6736	3984
2424832	8560	5424
2490368	6112	2720
2555904	6272	3280
2621440	4720	2032
2686976	4032	1968
2752512	5024	3008
2818048	5456	3248
2883584	4064	2112
2949120	3824	1904
3014656	5328	3456
3080192	4528	2480
3145728	3936	2096
3211264	6320	3840
3276800	3840	1616
3342336	4640	1744
3407872	3840	1584
3473408	4144	1776
3538944	3712	2032
3604480	6336	4448
3670016	4208	1792
3735552	3296	1488
3801088	3664	1328
3866624	4080	1344
3932160	3216	1200
3997696	3792	1776
4063232	4800	2960
4128768	3648	1408
4194304	9360	4592
4325376	5632	2496
4456448	6112	3024
4587520	8880	4416
4718592	9360	4528
4849664	10512	3824
4980736	10224	2768
5111808	13088	5792
5242880	6448	2512
5373952	8272	4032
5505024	7264	4048
5636096	6208	2752
5767168	6048	2464
5898240	5184	2480
6029312	4528	1824
6160384	5392	3712
6291456	4992	2384
6422528	3888	1792
6553600	4432	1984
6684672	4512	2208
6815744	4672	2256
6946816	5120	2480
7077888	5216	2224
7208960	5888	3744
7340032	4048	2016
7471104	4160	1952
7602176	4832	2272
7733248	4272	1824
7864320	4144	2080
7995392	4304	1872
8126464	4224	1824
8257536	4224	2016
8388608	7392	4528
8650752	8448	4000
8912896	10768	5536
9175040	9792	3216
9437184	14336	4320
9699328	12656	3648
9961472	10480	4368
10223616	17808	5920
10485760	24112	4240
10747904	27664	4352
11010048	24816	2672
11272192	18576	3088
11534336	8960	2848
11796480	7504	2752
12058624	8416	2608
12320768	8064	2896
12582912	8192	2912
12845056	33392	3712
13107200	41488	2896
13369344	35920	2368
13631488	13536	2752
13893632	13808	2208
14155776	31232	2784
14417920	53424	2560
14680064	39488	3136
14942208	11120	2160
15204352	8720	2224
15466496	35152	2656
15728640	31216	2544
15990784	16096	1200
16252928	11824	960
16515072	7616	544
16777216	14704	1568
17301504	16160	1456
17825792	16960	1696
18350080	17040	1376
18874368	15280	1840
19398656	4336	1472
19922944	9920	1216
20447232	12640	2128
20971520	10384	2096
21495808	3168	1344
22020096	3104	1376
22544384	1504	1024
23068672	1824	992
23592960	2176	1520
24117248	1856	1120
24641536	2048	1280
25165824	3024	1216
25690112	2800	656
26214400	3024	704
26738688	7184	624
27262976	2976	512
27787264	1008	416
28311552	1472	432
28835840	13312	448
29360128	28928	272
29884416	41280	560
30408704	18704	448
30932992	29696	704
31457280	20736	1328
31981568	25840	688
32505856	5296	672
33030144	1232	544
33554432	2784	1488
34603008	2528	1136
35651584	2608	1136
36700160	21392	960
37748736	31888	976
38797312	32864	1136
39845888	39744	1264
40894464	27264	944
41943040	5632	1264
42991616	1648	1008
44040192	1840	976
45088768	1424	1152
46137344	1344	1056
47185920	1168	1040
48234496	1744	1136
49283072	1664	1232
50331648	3648	1024
51380224	1664	976
52428800	3680	768
53477376	3840	48
54525952	3840	32
55574528	672	16
56623104	832	32
57671680	1264	32
58720256	7024	0
59768832	18592	0
60817408	14944	288
61865984	14800	0
62914560	16928	16
63963136	16576	32
65011712	2432	0
66060288	1072	0
67108864	2592	720
69206016	1024	128
71303168	26800	112
73400320	4544	16
75497472	16	0
77594624	112	16
79691776	448	16
81788928	784	32
83886080	11856	144
85983232	4944	0
88080384	0	0
90177536	240	0
92274688	432	176
94371840	352	208
96468992	288	128
98566144	7088	272
100663296	352	176
102760448	400	272
104857600	400	224
106954752	256	176
109051904	256	112
111149056	384	256
113246208	432	304
115343360	704	432
117440512	336	256
119537664	432	272
121634816	560	384
123731968	688	320
125829120	464	352
127926272	656	400
130023424	736	448
132120576	864	464
134217728	2576	1680
138412032	2448	1664
142606336	3376	2240
146800640	1488	1040
150994944	832	544
155189248	384	240
159383552	48	48
163577856	8992	0
167772160	80	0
171966464	0	0
176160768	0	0
180355072	0	0
184549376	0	0
188743680	16	0
192937984	0	0
197132288	0	0
201326592	0	0
205520896	0	0
209715200	0	0
213909504	0	0
218103808	0	0
222298112	0	0
226492416	0	0
230686720	0	0
234881024	0	0
239075328	0	0
243269632	0	0
247463936	0	0
251658240	0	0
255852544	0	0
260046848	0	0
264241152	0	0
268435456	0	0
276824064	0	0
285212672	0	0
293601280	0	0
301989888	0	0
310378496	0	0
318767104	0	0
327155712	0	0
335544320	0	0
343932928	0	0
352321536	0	0
360710144	0	0
369098752	0	0
377487360	0	0
385875968	0	0
394264576	0	0
402653184	0	0
411041792	0	0
419430400	0	0
427819008	0	0
436207616	0	0
444596224	0	0
452984832	0	0
461373440	0	0
469762048	0	0
478150656	0	0
486539264	0	0
494927872	0	0
503316480	0	0
511705088	0	0
520093696	0	0
528482304	0	0
536870912	0	0
553648128	0	0
570425344	0	0
587202560	0	0
603979776	0	0
620756992	0	0
637534208	0	0
654311424	0	0
671088640	0	0
687865856	0	0
704643072	0	0
721420288	0	0
738197504	0	0
754974720	0	0
771751936	0	0
788529152	0	0
805306368	0	0
822083584	0	0
838860800	0	0
855638016	0	0
872415232	0	0
889192448	0	0
905969664	0	0
922746880	0	0
939524096	0	0
956301312	0	0
973078528	0	0
989855744	0	0
1006632960	0	0
1023410176	0	0
1040187392	0	0
1056964608	0	0
1073741824	0	0
1107296256	0	0
1140850688	0	0
1174405120	0	0
1207959552	0	0
1241513984	0	0
1275068416	0	0
1308622848	0	0
1342177280	0	0
1375731712	0	0
1409286144	0	0
1442840576	0	0
1476395008	0	0
1509949440	0	0
1543503872	0	0
1577058304	0	0
1610612736	0	0
1644167168	0	0
1677721600	0	0
1711276032	0	0
1744830464	0	0
1778384896	0	0
1811939328	0	0
1845493760	0	0
1879048192	0	0
1912602624	0	0
1946157056	0	0
1979711488	0	0
2013265920	0	0
2046820352	0	0
2080374784	0	0
2113929216	0	0
2147483648	0	0
2214592512	0	0
2281701376	0	0
2348810240	0	0
2415919104	0	0
2483027968	0	0
2550136832	0	0
2617245696	0	0
2684354560	0	0
2751463424	0	0
2818572288	0	0
2885681152	0	0
2952790016	0	0
3019898880	0	0
3087007744	0	0
3154116608	0	0
3221225472	0	0
3288334336	0	0
3355443200	0	0
3422552064	0	0
3489660928	0	0
3556769792	0	0
3623878656	0	0
3690987520	0	0
3758096384	0	0
3825205248	0	0
3892314112	0	0
3959422976	0	0
4026531840	0	0
4093640704	0	0
4160749568	0	0
4227858432	0	0
~~~~~~~~~~Reuse Distance Profiler output end~~~~~~~~~~

Sampler size:58766

DRAM Statistics
 CHANNEL 0
 RQ ROW_BUFFER_HIT:    1119277  ROW_BUFFER_MISS:    1148928
 DBUS AVG_CONGESTED_CYCLE:    3.96989
 WQ ROW_BUFFER_HIT:     171851  ROW_BUFFER_MISS:    2069063  FULL:       1619


CPU 0 Branch Prediction Accuracy: 97.6314% MPKI: 7.10611 Average ROB Occupancy at Mispredict: 38.91
Branch type MPKI
BRANCH_DIRECT_JUMP: 3.53333e-05
BRANCH_INDIRECT: 0.274237
BRANCH_CONDITIONAL: 5.74669
BRANCH_DIRECT_CALL: 0.000142
BRANCH_INDIRECT_CALL: 0.209877
BRANCH_RETURN: 0.875124

