
*** ChampSim Multicore Out-of-Order Simulator ***

Warmup Instructions: 50000000
Simulation Instructions: 1500000000
Number of CPUs: 1
Off-chip DRAM Size: 4 GiB Channels: 1 Width: 64-bit Data Rate: 3200 MT/s

VirtualMemory physical capacity: 8588881920 num_ppages: 2096895
VirtualMemory page size: 4096 log2_page_size: 12

CPU 0 runs /s/traces/champsim_traces/641.leela_s-602B.champsimtrace.xz
CPU 0 Bimodal branch predictor
Basic BTB sets: 1024 ways: 8 indirect buffer size: 4096 RAS size: 64
Initializing LRU.
Initializing LRU.
Initializing LRU.
Initializing LRU.
Initializing rdLRU.
Initializing LRU.
Heartbeat CPU 0 instructions: 2000001 cycles: 508790 heartbeat IPC: 3.9309 cumulative IPC: 3.9309 (Simulation time: 0 hr 0 min 40 sec) 
Heartbeat CPU 0 instructions: 4000002 cycles: 1017433 heartbeat IPC: 3.93203 cumulative IPC: 3.93146 (Simulation time: 0 hr 1 min 20 sec) 
Heartbeat CPU 0 instructions: 6000003 cycles: 1526741 heartbeat IPC: 3.9269 cumulative IPC: 3.92994 (Simulation time: 0 hr 1 min 59 sec) 
Heartbeat CPU 0 instructions: 8000001 cycles: 2034721 heartbeat IPC: 3.93716 cumulative IPC: 3.93174 (Simulation time: 0 hr 2 min 39 sec) 
Heartbeat CPU 0 instructions: 10000002 cycles: 2542703 heartbeat IPC: 3.93715 cumulative IPC: 3.93282 (Simulation time: 0 hr 3 min 21 sec) 
Heartbeat CPU 0 instructions: 12000000 cycles: 3050015 heartbeat IPC: 3.94234 cumulative IPC: 3.93441 (Simulation time: 0 hr 4 min 1 sec) 
Heartbeat CPU 0 instructions: 14000003 cycles: 3557999 heartbeat IPC: 3.93714 cumulative IPC: 3.9348 (Simulation time: 0 hr 4 min 37 sec) 
Heartbeat CPU 0 instructions: 16000001 cycles: 4066719 heartbeat IPC: 3.93143 cumulative IPC: 3.93438 (Simulation time: 0 hr 5 min 16 sec) 
Heartbeat CPU 0 instructions: 18000000 cycles: 4574037 heartbeat IPC: 3.9423 cumulative IPC: 3.93525 (Simulation time: 0 hr 5 min 57 sec) 
Heartbeat CPU 0 instructions: 20000002 cycles: 5082686 heartbeat IPC: 3.93199 cumulative IPC: 3.93493 (Simulation time: 0 hr 6 min 33 sec) 
Heartbeat CPU 0 instructions: 22000002 cycles: 5590676 heartbeat IPC: 3.93709 cumulative IPC: 3.93512 (Simulation time: 0 hr 7 min 16 sec) 
Heartbeat CPU 0 instructions: 24000003 cycles: 6098031 heartbeat IPC: 3.94201 cumulative IPC: 3.9357 (Simulation time: 0 hr 7 min 56 sec) 
Heartbeat CPU 0 instructions: 26000003 cycles: 6606010 heartbeat IPC: 3.93717 cumulative IPC: 3.93581 (Simulation time: 0 hr 8 min 35 sec) 
Heartbeat CPU 0 instructions: 28000000 cycles: 7112659 heartbeat IPC: 3.9475 cumulative IPC: 3.93664 (Simulation time: 0 hr 9 min 16 sec) 
Heartbeat CPU 0 instructions: 30000001 cycles: 7620672 heartbeat IPC: 3.93691 cumulative IPC: 3.93666 (Simulation time: 0 hr 9 min 54 sec) 
Heartbeat CPU 0 instructions: 32000003 cycles: 8128652 heartbeat IPC: 3.93717 cumulative IPC: 3.93669 (Simulation time: 0 hr 10 min 34 sec) 
Heartbeat CPU 0 instructions: 34000002 cycles: 8637300 heartbeat IPC: 3.93199 cumulative IPC: 3.93642 (Simulation time: 0 hr 11 min 14 sec) 
Heartbeat CPU 0 instructions: 36000000 cycles: 9144617 heartbeat IPC: 3.9423 cumulative IPC: 3.93674 (Simulation time: 0 hr 11 min 53 sec) 
Heartbeat CPU 0 instructions: 38000002 cycles: 9653266 heartbeat IPC: 3.93199 cumulative IPC: 3.93649 (Simulation time: 0 hr 12 min 32 sec) 
Heartbeat CPU 0 instructions: 40000002 cycles: 10161245 heartbeat IPC: 3.93717 cumulative IPC: 3.93653 (Simulation time: 0 hr 13 min 12 sec) 
Heartbeat CPU 0 instructions: 42000002 cycles: 10669236 heartbeat IPC: 3.93708 cumulative IPC: 3.93655 (Simulation time: 0 hr 13 min 52 sec) 
Heartbeat CPU 0 instructions: 44000001 cycles: 11177219 heartbeat IPC: 3.93714 cumulative IPC: 3.93658 (Simulation time: 0 hr 14 min 32 sec) 
Heartbeat CPU 0 instructions: 46000001 cycles: 11684536 heartbeat IPC: 3.94231 cumulative IPC: 3.93683 (Simulation time: 0 hr 15 min 10 sec) 
Heartbeat CPU 0 instructions: 48000001 cycles: 12192519 heartbeat IPC: 3.93714 cumulative IPC: 3.93684 (Simulation time: 0 hr 15 min 48 sec) 
Heartbeat CPU 0 instructions: 50000003 cycles: 12699838 heartbeat IPC: 3.9423 cumulative IPC: 3.93706 (Simulation time: 0 hr 16 min 26 sec) 

Warmup complete CPU 0 instructions: 50000003 cycles: 12699838 (Simulation time: 0 hr 16 min 26 sec) 

Heartbeat CPU 0 instructions: 52000000 cycles: 14734003 heartbeat IPC: 0.983203 cumulative IPC: 0.983203 (Simulation time: 0 hr 17 min 10 sec) 

Region of Interest Statistics
cpu0_DTLB TOTAL     ACCESS:     391290  HIT:     389755  MISS:       1535
cpu0_DTLB LOAD      ACCESS:     267441  HIT:     266019  MISS:       1422
cpu0_DTLB RFO       ACCESS:     123849  HIT:     123736  MISS:        113
cpu0_DTLB PREFETCH  ACCESS:          0  HIT:          0  MISS:          0
cpu0_DTLB WRITEBACK ACCESS:          0  HIT:          0  MISS:          0
cpu0_ITLB TOTAL     ACCESS:     216164  HIT:     216164  MISS:          0
cpu0_ITLB LOAD      ACCESS:     216164  HIT:     216164  MISS:          0
cpu0_ITLB RFO       ACCESS:          0  HIT:          0  MISS:          0
cpu0_ITLB PREFETCH  ACCESS:          0  HIT:          0  MISS:          0
cpu0_ITLB WRITEBACK ACCESS:          0  HIT:          0  MISS:          0
cpu0_L1I TOTAL     ACCESS:     116752  HIT:     116329  MISS:        423
cpu0_L1I LOAD      ACCESS:     116752  HIT:     116329  MISS:        423
cpu0_L1I RFO       ACCESS:          0  HIT:          0  MISS:          0
cpu0_L1I PREFETCH  ACCESS:          0  HIT:          0  MISS:          0
cpu0_L1I WRITEBACK ACCESS:          0  HIT:          0  MISS:          0
cpu0_STLB TOTAL     ACCESS:       1535  HIT:       1531  MISS:          4
cpu0_STLB LOAD      ACCESS:       1422  HIT:       1418  MISS:          4
cpu0_STLB RFO       ACCESS:        113  HIT:        113  MISS:          0
cpu0_STLB PREFETCH  ACCESS:          0  HIT:          0  MISS:          0
cpu0_STLB WRITEBACK ACCESS:          0  HIT:          0  MISS:          0
cpu0_L1D TOTAL     ACCESS:     516162  HIT:     510678  MISS:       5484
cpu0_L1D LOAD      ACCESS:     293601  HIT:     289420  MISS:       4181
cpu0_L1D RFO       ACCESS:     222557  HIT:     221258  MISS:       1299
cpu0_L1D PREFETCH  ACCESS:          0  HIT:          0  MISS:          0
cpu0_L1D WRITEBACK ACCESS:          0  HIT:          0  MISS:          0
cpu0_L2C TOTAL     ACCESS:       8133  HIT:       8087  MISS:         46
cpu0_L2C LOAD      ACCESS:       4604  HIT:       4583  MISS:         21
cpu0_L2C RFO       ACCESS:       1299  HIT:       1274  MISS:         25
cpu0_L2C PREFETCH  ACCESS:          0  HIT:          0  MISS:          0
cpu0_L2C WRITEBACK ACCESS:       2226  HIT:       2226  MISS:          0
LLC TOTAL     ACCESS:         47  HIT:          7  MISS:         40
LLC LOAD      ACCESS:         21  HIT:          6  MISS:         15
LLC RFO       ACCESS:         25  HIT:          0  MISS:         25
LLC PREFETCH  ACCESS:          0  HIT:          0  MISS:          0
LLC WRITEBACK ACCESS:          1  HIT:          1  MISS:          0
Heartbeat CPU 0 instructions: 54000001 cycles: 16782359 heartbeat IPC: 0.976393 cumulative IPC: 0.979786 (Simulation time: 0 hr 17 min 57 sec) 

Region of Interest Statistics
cpu0_DTLB TOTAL     ACCESS:     782980  HIT:     779937  MISS:       3043
cpu0_DTLB LOAD      ACCESS:     536057  HIT:     533222  MISS:       2835
cpu0_DTLB RFO       ACCESS:     246923  HIT:     246715  MISS:        208
cpu0_DTLB PREFETCH  ACCESS:          0  HIT:          0  MISS:          0
cpu0_DTLB WRITEBACK ACCESS:          0  HIT:          0  MISS:          0
cpu0_ITLB TOTAL     ACCESS:     432482  HIT:     432482  MISS:          0
cpu0_ITLB LOAD      ACCESS:     432482  HIT:     432482  MISS:          0
cpu0_ITLB RFO       ACCESS:          0  HIT:          0  MISS:          0
cpu0_ITLB PREFETCH  ACCESS:          0  HIT:          0  MISS:          0
cpu0_ITLB WRITEBACK ACCESS:          0  HIT:          0  MISS:          0
cpu0_L1I TOTAL     ACCESS:     232791  HIT:     231945  MISS:        846
cpu0_L1I LOAD      ACCESS:     232791  HIT:     231945  MISS:        846
cpu0_L1I RFO       ACCESS:          0  HIT:          0  MISS:          0
cpu0_L1I PREFETCH  ACCESS:          0  HIT:          0  MISS:          0
cpu0_L1I WRITEBACK ACCESS:          0  HIT:          0  MISS:          0
cpu0_STLB TOTAL     ACCESS:       3043  HIT:       3032  MISS:         11
cpu0_STLB LOAD      ACCESS:       2835  HIT:       2824  MISS:         11
cpu0_STLB RFO       ACCESS:        208  HIT:        208  MISS:          0
cpu0_STLB PREFETCH  ACCESS:          0  HIT:          0  MISS:          0
cpu0_STLB WRITEBACK ACCESS:          0  HIT:          0  MISS:          0
cpu0_L1D TOTAL     ACCESS:    1032185  HIT:    1021000  MISS:      11185
cpu0_L1D LOAD      ACCESS:     588129  HIT:     579479  MISS:       8650
cpu0_L1D RFO       ACCESS:     444045  HIT:     441520  MISS:       2525
cpu0_L1D PREFETCH  ACCESS:          0  HIT:          0  MISS:          0
cpu0_L1D WRITEBACK ACCESS:          0  HIT:          0  MISS:          0
cpu0_L2C TOTAL     ACCESS:      16593  HIT:      16514  MISS:         79
cpu0_L2C LOAD      ACCESS:       9495  HIT:       9453  MISS:         42
cpu0_L2C RFO       ACCESS:       2525  HIT:       2488  MISS:         37
cpu0_L2C PREFETCH  ACCESS:          0  HIT:          0  MISS:          0
cpu0_L2C WRITEBACK ACCESS:       4563  HIT:       4563  MISS:          0
LLC TOTAL     ACCESS:         81  HIT:          9  MISS:         72
LLC LOAD      ACCESS:         42  HIT:          7  MISS:         35
LLC RFO       ACCESS:         37  HIT:          0  MISS:         37
LLC PREFETCH  ACCESS:          0  HIT:          0  MISS:          0
LLC WRITEBACK ACCESS:          2  HIT:          2  MISS:          0
Heartbeat CPU 0 instructions: 56000004 cycles: 18788196 heartbeat IPC: 0.997091 cumulative IPC: 0.985488 (Simulation time: 0 hr 18 min 39 sec) 

Region of Interest Statistics
cpu0_DTLB TOTAL     ACCESS:    1171930  HIT:    1167316  MISS:       4614
cpu0_DTLB LOAD      ACCESS:     800663  HIT:     796363  MISS:       4300
cpu0_DTLB RFO       ACCESS:     371267  HIT:     370953  MISS:        314
cpu0_DTLB PREFETCH  ACCESS:          0  HIT:          0  MISS:          0
cpu0_DTLB WRITEBACK ACCESS:          0  HIT:          0  MISS:          0
cpu0_ITLB TOTAL     ACCESS:     648752  HIT:     648752  MISS:          0
cpu0_ITLB LOAD      ACCESS:     648752  HIT:     648752  MISS:          0
cpu0_ITLB RFO       ACCESS:          0  HIT:          0  MISS:          0
cpu0_ITLB PREFETCH  ACCESS:          0  HIT:          0  MISS:          0
cpu0_ITLB WRITEBACK ACCESS:          0  HIT:          0  MISS:          0
cpu0_L1I TOTAL     ACCESS:     347424  HIT:     346160  MISS:       1264
cpu0_L1I LOAD      ACCESS:     347424  HIT:     346160  MISS:       1264
cpu0_L1I RFO       ACCESS:          0  HIT:          0  MISS:          0
cpu0_L1I PREFETCH  ACCESS:          0  HIT:          0  MISS:          0
cpu0_L1I WRITEBACK ACCESS:          0  HIT:          0  MISS:          0
cpu0_STLB TOTAL     ACCESS:       4614  HIT:       4593  MISS:         21
cpu0_STLB LOAD      ACCESS:       4300  HIT:       4281  MISS:         19
cpu0_STLB RFO       ACCESS:        314  HIT:        312  MISS:          2
cpu0_STLB PREFETCH  ACCESS:          0  HIT:          0  MISS:          0
cpu0_STLB WRITEBACK ACCESS:          0  HIT:          0  MISS:          0
cpu0_L1D TOTAL     ACCESS:    1545963  HIT:    1528865  MISS:      17098
cpu0_L1D LOAD      ACCESS:     879290  HIT:     866126  MISS:      13164
cpu0_L1D RFO       ACCESS:     666652  HIT:     662734  MISS:       3918
cpu0_L1D PREFETCH  ACCESS:          0  HIT:          0  MISS:          0
cpu0_L1D WRITEBACK ACCESS:          0  HIT:          0  MISS:          0
cpu0_L2C TOTAL     ACCESS:      25402  HIT:      25259  MISS:        143
cpu0_L2C LOAD      ACCESS:      14427  HIT:      14354  MISS:         73
cpu0_L2C RFO       ACCESS:       3918  HIT:       3848  MISS:         70
cpu0_L2C PREFETCH  ACCESS:          0  HIT:          0  MISS:          0
cpu0_L2C WRITEBACK ACCESS:       7041  HIT:       7041  MISS:          0
LLC TOTAL     ACCESS:        146  HIT:         15  MISS:        131
LLC LOAD      ACCESS:         73  HIT:         12  MISS:         61
LLC RFO       ACCESS:         70  HIT:          0  MISS:         70
LLC PREFETCH  ACCESS:          0  HIT:          0  MISS:          0
LLC WRITEBACK ACCESS:          3  HIT:          3  MISS:          0
Heartbeat CPU 0 instructions: 58000001 cycles: 20816162 heartbeat IPC: 0.986208 cumulative IPC: 0.985668 (Simulation time: 0 hr 19 min 25 sec) 

Region of Interest Statistics
cpu0_DTLB TOTAL     ACCESS:    1564533  HIT:    1558414  MISS:       6119
cpu0_DTLB LOAD      ACCESS:    1066679  HIT:    1060970  MISS:       5709
cpu0_DTLB RFO       ACCESS:     497854  HIT:     497444  MISS:        410
cpu0_DTLB PREFETCH  ACCESS:          0  HIT:          0  MISS:          0
cpu0_DTLB WRITEBACK ACCESS:          0  HIT:          0  MISS:          0
cpu0_ITLB TOTAL     ACCESS:     866460  HIT:     866460  MISS:          0
cpu0_ITLB LOAD      ACCESS:     866460  HIT:     866460  MISS:          0
cpu0_ITLB RFO       ACCESS:          0  HIT:          0  MISS:          0
cpu0_ITLB PREFETCH  ACCESS:          0  HIT:          0  MISS:          0
cpu0_ITLB WRITEBACK ACCESS:          0  HIT:          0  MISS:          0
cpu0_L1I TOTAL     ACCESS:     463634  HIT:     461916  MISS:       1718
cpu0_L1I LOAD      ACCESS:     463634  HIT:     461916  MISS:       1718
cpu0_L1I RFO       ACCESS:          0  HIT:          0  MISS:          0
cpu0_L1I PREFETCH  ACCESS:          0  HIT:          0  MISS:          0
cpu0_L1I WRITEBACK ACCESS:          0  HIT:          0  MISS:          0
cpu0_STLB TOTAL     ACCESS:       6119  HIT:       6092  MISS:         27
cpu0_STLB LOAD      ACCESS:       5709  HIT:       5684  MISS:         25
cpu0_STLB RFO       ACCESS:        410  HIT:        408  MISS:          2
cpu0_STLB PREFETCH  ACCESS:          0  HIT:          0  MISS:          0
cpu0_STLB WRITEBACK ACCESS:          0  HIT:          0  MISS:          0
cpu0_L1D TOTAL     ACCESS:    2064786  HIT:    2042384  MISS:      22402
cpu0_L1D LOAD      ACCESS:    1171494  HIT:    1154283  MISS:      17211
cpu0_L1D RFO       ACCESS:     893265  HIT:     888092  MISS:       5173
cpu0_L1D PREFETCH  ACCESS:          0  HIT:          0  MISS:          0
cpu0_L1D WRITEBACK ACCESS:          0  HIT:          0  MISS:          0
cpu0_L2C TOTAL     ACCESS:      33322  HIT:      33116  MISS:        206
cpu0_L2C LOAD      ACCESS:      18926  HIT:      18826  MISS:        100
cpu0_L2C RFO       ACCESS:       5173  HIT:       5067  MISS:        106
cpu0_L2C PREFETCH  ACCESS:          0  HIT:          0  MISS:          0
cpu0_L2C WRITEBACK ACCESS:       9205  HIT:       9205  MISS:          0
LLC TOTAL     ACCESS:        210  HIT:         17  MISS:        193
LLC LOAD      ACCESS:        100  HIT:         13  MISS:         87
LLC RFO       ACCESS:        106  HIT:          0  MISS:        106
LLC PREFETCH  ACCESS:          0  HIT:          0  MISS:          0
LLC WRITEBACK ACCESS:          4  HIT:          4  MISS:          0
Heartbeat CPU 0 instructions: 60000002 cycles: 22875012 heartbeat IPC: 0.971417 cumulative IPC: 0.982784 (Simulation time: 0 hr 20 min 10 sec) 

Region of Interest Statistics
cpu0_DTLB TOTAL     ACCESS:    1964325  HIT:    1956827  MISS:       7498
cpu0_DTLB LOAD      ACCESS:    1342021  HIT:    1335029  MISS:       6992
cpu0_DTLB RFO       ACCESS:     622304  HIT:     621798  MISS:        506
cpu0_DTLB PREFETCH  ACCESS:          0  HIT:          0  MISS:          0
cpu0_DTLB WRITEBACK ACCESS:          0  HIT:          0  MISS:          0
cpu0_ITLB TOTAL     ACCESS:    1087967  HIT:    1087967  MISS:          0
cpu0_ITLB LOAD      ACCESS:    1087967  HIT:    1087967  MISS:          0
cpu0_ITLB RFO       ACCESS:          0  HIT:          0  MISS:          0
cpu0_ITLB PREFETCH  ACCESS:          0  HIT:          0  MISS:          0
cpu0_ITLB WRITEBACK ACCESS:          0  HIT:          0  MISS:          0
cpu0_L1I TOTAL     ACCESS:     578894  HIT:     576751  MISS:       2143
cpu0_L1I LOAD      ACCESS:     578894  HIT:     576751  MISS:       2143
cpu0_L1I RFO       ACCESS:          0  HIT:          0  MISS:          0
cpu0_L1I PREFETCH  ACCESS:          0  HIT:          0  MISS:          0
cpu0_L1I WRITEBACK ACCESS:          0  HIT:          0  MISS:          0
cpu0_STLB TOTAL     ACCESS:       7498  HIT:       7467  MISS:         31
cpu0_STLB LOAD      ACCESS:       6992  HIT:       6963  MISS:         29
cpu0_STLB RFO       ACCESS:        506  HIT:        504  MISS:          2
cpu0_STLB PREFETCH  ACCESS:          0  HIT:          0  MISS:          0
cpu0_STLB WRITEBACK ACCESS:          0  HIT:          0  MISS:          0
cpu0_L1D TOTAL     ACCESS:    2594198  HIT:    2568173  MISS:      26025
cpu0_L1D LOAD      ACCESS:    1473797  HIT:    1453699  MISS:      20098
cpu0_L1D RFO       ACCESS:    1120370  HIT:    1114464  MISS:       5906
cpu0_L1D PREFETCH  ACCESS:          0  HIT:          0  MISS:          0
cpu0_L1D WRITEBACK ACCESS:          0  HIT:          0  MISS:          0
cpu0_L2C TOTAL     ACCESS:      38629  HIT:      38405  MISS:        224
cpu0_L2C LOAD      ACCESS:      22237  HIT:      22119  MISS:        118
cpu0_L2C RFO       ACCESS:       5906  HIT:       5800  MISS:        106
cpu0_L2C PREFETCH  ACCESS:          0  HIT:          0  MISS:          0
cpu0_L2C WRITEBACK ACCESS:      10465  HIT:      10465  MISS:          0
LLC TOTAL     ACCESS:        229  HIT:         22  MISS:        207
LLC LOAD      ACCESS:        118  HIT:         17  MISS:        101
LLC RFO       ACCESS:        106  HIT:          0  MISS:        106
LLC PREFETCH  ACCESS:          0  HIT:          0  MISS:          0
LLC WRITEBACK ACCESS:          5  HIT:          5  MISS:          0
Heartbeat CPU 0 instructions: 62000000 cycles: 24884602 heartbeat IPC: 0.995227 cumulative IPC: 0.984836 (Simulation time: 0 hr 20 min 52 sec) 

Region of Interest Statistics
cpu0_DTLB TOTAL     ACCESS:    2353401  HIT:    2344348  MISS:       9053
cpu0_DTLB LOAD      ACCESS:    1607018  HIT:    1598580  MISS:       8438
cpu0_DTLB RFO       ACCESS:     746383  HIT:     745768  MISS:        615
cpu0_DTLB PREFETCH  ACCESS:          0  HIT:          0  MISS:          0
cpu0_DTLB WRITEBACK ACCESS:          0  HIT:          0  MISS:          0
cpu0_ITLB TOTAL     ACCESS:    1304407  HIT:    1304407  MISS:          0
cpu0_ITLB LOAD      ACCESS:    1304407  HIT:    1304407  MISS:          0
cpu0_ITLB RFO       ACCESS:          0  HIT:          0  MISS:          0
cpu0_ITLB PREFETCH  ACCESS:          0  HIT:          0  MISS:          0
cpu0_ITLB WRITEBACK ACCESS:          0  HIT:          0  MISS:          0
cpu0_L1I TOTAL     ACCESS:     694350  HIT:     691780  MISS:       2570
cpu0_L1I LOAD      ACCESS:     694350  HIT:     691780  MISS:       2570
cpu0_L1I RFO       ACCESS:          0  HIT:          0  MISS:          0
cpu0_L1I PREFETCH  ACCESS:          0  HIT:          0  MISS:          0
cpu0_L1I WRITEBACK ACCESS:          0  HIT:          0  MISS:          0
cpu0_STLB TOTAL     ACCESS:       9053  HIT:       9019  MISS:         34
cpu0_STLB LOAD      ACCESS:       8438  HIT:       8406  MISS:         32
cpu0_STLB RFO       ACCESS:        615  HIT:        613  MISS:          2
cpu0_STLB PREFETCH  ACCESS:          0  HIT:          0  MISS:          0
cpu0_STLB WRITEBACK ACCESS:          0  HIT:          0  MISS:          0
cpu0_L1D TOTAL     ACCESS:    3108823  HIT:    3077581  MISS:      31242
cpu0_L1D LOAD      ACCESS:    1764156  HIT:    1740022  MISS:      24134
cpu0_L1D RFO       ACCESS:    1344633  HIT:    1337549  MISS:       7084
cpu0_L1D PREFETCH  ACCESS:          0  HIT:          0  MISS:          0
cpu0_L1D WRITEBACK ACCESS:          0  HIT:          0  MISS:          0
cpu0_L2C TOTAL     ACCESS:      46219  HIT:      45970  MISS:        249
cpu0_L2C LOAD      ACCESS:      26700  HIT:      26557  MISS:        143
cpu0_L2C RFO       ACCESS:       7084  HIT:       6978  MISS:        106
cpu0_L2C PREFETCH  ACCESS:          0  HIT:          0  MISS:          0
cpu0_L2C WRITEBACK ACCESS:      12411  HIT:      12411  MISS:          0
LLC TOTAL     ACCESS:        255  HIT:         25  MISS:        230
LLC LOAD      ACCESS:        143  HIT:         19  MISS:        124
LLC RFO       ACCESS:        106  HIT:          0  MISS:        106
LLC PREFETCH  ACCESS:          0  HIT:          0  MISS:          0
LLC WRITEBACK ACCESS:          6  HIT:          6  MISS:          0
Heartbeat CPU 0 instructions: 64000000 cycles: 26919066 heartbeat IPC: 0.98306 cumulative IPC: 0.984582 (Simulation time: 0 hr 21 min 35 sec) 

Region of Interest Statistics
cpu0_DTLB TOTAL     ACCESS:    2743877  HIT:    2733324  MISS:      10553
cpu0_DTLB LOAD      ACCESS:    1873519  HIT:    1863684  MISS:       9835
cpu0_DTLB RFO       ACCESS:     870358  HIT:     869640  MISS:        718
cpu0_DTLB PREFETCH  ACCESS:          0  HIT:          0  MISS:          0
cpu0_DTLB WRITEBACK ACCESS:          0  HIT:          0  MISS:          0
cpu0_ITLB TOTAL     ACCESS:    1521132  HIT:    1521132  MISS:          0
cpu0_ITLB LOAD      ACCESS:    1521132  HIT:    1521132  MISS:          0
cpu0_ITLB RFO       ACCESS:          0  HIT:          0  MISS:          0
cpu0_ITLB PREFETCH  ACCESS:          0  HIT:          0  MISS:          0
cpu0_ITLB WRITEBACK ACCESS:          0  HIT:          0  MISS:          0
cpu0_L1I TOTAL     ACCESS:     809894  HIT:     806904  MISS:       2990
cpu0_L1I LOAD      ACCESS:     809894  HIT:     806904  MISS:       2990
cpu0_L1I RFO       ACCESS:          0  HIT:          0  MISS:          0
cpu0_L1I PREFETCH  ACCESS:          0  HIT:          0  MISS:          0
cpu0_L1I WRITEBACK ACCESS:          0  HIT:          0  MISS:          0
cpu0_STLB TOTAL     ACCESS:      10553  HIT:      10515  MISS:         38
cpu0_STLB LOAD      ACCESS:       9835  HIT:       9799  MISS:         36
cpu0_STLB RFO       ACCESS:        718  HIT:        716  MISS:          2
cpu0_STLB PREFETCH  ACCESS:          0  HIT:          0  MISS:          0
cpu0_STLB WRITEBACK ACCESS:          0  HIT:          0  MISS:          0
cpu0_L1D TOTAL     ACCESS:    3624874  HIT:    3588436  MISS:      36438
cpu0_L1D LOAD      ACCESS:    2056814  HIT:    2028726  MISS:      28088
cpu0_L1D RFO       ACCESS:    1568022  HIT:    1559700  MISS:       8322
cpu0_L1D PREFETCH  ACCESS:          0  HIT:          0  MISS:          0
cpu0_L1D WRITEBACK ACCESS:          0  HIT:          0  MISS:          0
cpu0_L2C TOTAL     ACCESS:      53851  HIT:      53584  MISS:        267
cpu0_L2C LOAD      ACCESS:      31072  HIT:      30911  MISS:        161
cpu0_L2C RFO       ACCESS:       8322  HIT:       8216  MISS:        106
cpu0_L2C PREFETCH  ACCESS:          0  HIT:          0  MISS:          0
cpu0_L2C WRITEBACK ACCESS:      14429  HIT:      14429  MISS:          0
LLC TOTAL     ACCESS:        273  HIT:         28  MISS:        245
LLC LOAD      ACCESS:        161  HIT:         22  MISS:        139
LLC RFO       ACCESS:        106  HIT:          0  MISS:        106
LLC PREFETCH  ACCESS:          0  HIT:          0  MISS:          0
LLC WRITEBACK ACCESS:          6  HIT:          6  MISS:          0
Heartbeat CPU 0 instructions: 66000002 cycles: 28928416 heartbeat IPC: 0.995348 cumulative IPC: 0.985915 (Simulation time: 0 hr 22 min 17 sec) 

Region of Interest Statistics
cpu0_DTLB TOTAL     ACCESS:    3134878  HIT:    3122772  MISS:      12106
cpu0_DTLB LOAD      ACCESS:    2138303  HIT:    2127034  MISS:      11269
cpu0_DTLB RFO       ACCESS:     996575  HIT:     995738  MISS:        837
cpu0_DTLB PREFETCH  ACCESS:          0  HIT:          0  MISS:          0
cpu0_DTLB WRITEBACK ACCESS:          0  HIT:          0  MISS:          0
cpu0_ITLB TOTAL     ACCESS:    1738036  HIT:    1738036  MISS:          0
cpu0_ITLB LOAD      ACCESS:    1738036  HIT:    1738036  MISS:          0
cpu0_ITLB RFO       ACCESS:          0  HIT:          0  MISS:          0
cpu0_ITLB PREFETCH  ACCESS:          0  HIT:          0  MISS:          0
cpu0_ITLB WRITEBACK ACCESS:          0  HIT:          0  MISS:          0
cpu0_L1I TOTAL     ACCESS:     925670  HIT:     922227  MISS:       3443
cpu0_L1I LOAD      ACCESS:     925670  HIT:     922227  MISS:       3443
cpu0_L1I RFO       ACCESS:          0  HIT:          0  MISS:          0
cpu0_L1I PREFETCH  ACCESS:          0  HIT:          0  MISS:          0
cpu0_L1I WRITEBACK ACCESS:          0  HIT:          0  MISS:          0
cpu0_STLB TOTAL     ACCESS:      12106  HIT:      12058  MISS:         48
cpu0_STLB LOAD      ACCESS:      11269  HIT:      11223  MISS:         46
cpu0_STLB RFO       ACCESS:        837  HIT:        835  MISS:          2
cpu0_STLB PREFETCH  ACCESS:          0  HIT:          0  MISS:          0
cpu0_STLB WRITEBACK ACCESS:          0  HIT:          0  MISS:          0
cpu0_L1D TOTAL     ACCESS:    4143936  HIT:    4102444  MISS:      41492
cpu0_L1D LOAD      ACCESS:    2347924  HIT:    2315936  MISS:      31988
cpu0_L1D RFO       ACCESS:    1795964  HIT:    1786493  MISS:       9471
cpu0_L1D PREFETCH  ACCESS:          0  HIT:          0  MISS:          0
cpu0_L1D WRITEBACK ACCESS:          0  HIT:          0  MISS:          0
cpu0_L2C TOTAL     ACCESS:      61394  HIT:      61057  MISS:        337
cpu0_L2C LOAD      ACCESS:      35425  HIT:      35194  MISS:        231
cpu0_L2C RFO       ACCESS:       9471  HIT:       9365  MISS:        106
cpu0_L2C PREFETCH  ACCESS:          0  HIT:          0  MISS:          0
cpu0_L2C WRITEBACK ACCESS:      16465  HIT:      16465  MISS:          0
LLC TOTAL     ACCESS:        345  HIT:         35  MISS:        310
LLC LOAD      ACCESS:        231  HIT:         27  MISS:        204
LLC RFO       ACCESS:        106  HIT:          0  MISS:        106
LLC PREFETCH  ACCESS:          0  HIT:          0  MISS:          0
LLC WRITEBACK ACCESS:          8  HIT:          8  MISS:          0
Heartbeat CPU 0 instructions: 68000000 cycles: 30940173 heartbeat IPC: 0.994155 cumulative IPC: 0.986824 (Simulation time: 0 hr 22 min 57 sec) 

Region of Interest Statistics
cpu0_DTLB TOTAL     ACCESS:    3523406  HIT:    3509906  MISS:      13500
cpu0_DTLB LOAD      ACCESS:    2405895  HIT:    2393323  MISS:      12572
cpu0_DTLB RFO       ACCESS:    1117511  HIT:    1116583  MISS:        928
cpu0_DTLB PREFETCH  ACCESS:          0  HIT:          0  MISS:          0
cpu0_DTLB WRITEBACK ACCESS:          0  HIT:          0  MISS:          0
cpu0_ITLB TOTAL     ACCESS:    1953781  HIT:    1953781  MISS:          0
cpu0_ITLB LOAD      ACCESS:    1953781  HIT:    1953781  MISS:          0
cpu0_ITLB RFO       ACCESS:          0  HIT:          0  MISS:          0
cpu0_ITLB PREFETCH  ACCESS:          0  HIT:          0  MISS:          0
cpu0_ITLB WRITEBACK ACCESS:          0  HIT:          0  MISS:          0
cpu0_L1I TOTAL     ACCESS:    1039964  HIT:    1036136  MISS:       3828
cpu0_L1I LOAD      ACCESS:    1039964  HIT:    1036136  MISS:       3828
cpu0_L1I RFO       ACCESS:          0  HIT:          0  MISS:          0
cpu0_L1I PREFETCH  ACCESS:          0  HIT:          0  MISS:          0
cpu0_L1I WRITEBACK ACCESS:          0  HIT:          0  MISS:          0
cpu0_STLB TOTAL     ACCESS:      13500  HIT:      13448  MISS:         52
cpu0_STLB LOAD      ACCESS:      12572  HIT:      12522  MISS:         50
cpu0_STLB RFO       ACCESS:        928  HIT:        926  MISS:          2
cpu0_STLB PREFETCH  ACCESS:          0  HIT:          0  MISS:          0
cpu0_STLB WRITEBACK ACCESS:          0  HIT:          0  MISS:          0
cpu0_L1D TOTAL     ACCESS:    4655940  HIT:    4609117  MISS:      46823
cpu0_L1D LOAD      ACCESS:    2641452  HIT:    2605357  MISS:      36095
cpu0_L1D RFO       ACCESS:    2014436  HIT:    2003745  MISS:      10691
cpu0_L1D PREFETCH  ACCESS:          0  HIT:          0  MISS:          0
cpu0_L1D WRITEBACK ACCESS:          0  HIT:          0  MISS:          0
cpu0_L2C TOTAL     ACCESS:      69192  HIT:      68841  MISS:        351
cpu0_L2C LOAD      ACCESS:      39915  HIT:      39670  MISS:        245
cpu0_L2C RFO       ACCESS:      10691  HIT:      10585  MISS:        106
cpu0_L2C PREFETCH  ACCESS:          0  HIT:          0  MISS:          0
cpu0_L2C WRITEBACK ACCESS:      18549  HIT:      18549  MISS:          0
LLC TOTAL     ACCESS:        359  HIT:         38  MISS:        321
LLC LOAD      ACCESS:        245  HIT:         30  MISS:        215
LLC RFO       ACCESS:        106  HIT:          0  MISS:        106
LLC PREFETCH  ACCESS:          0  HIT:          0  MISS:          0
LLC WRITEBACK ACCESS:          8  HIT:          8  MISS:          0
Heartbeat CPU 0 instructions: 70000001 cycles: 32984979 heartbeat IPC: 0.978088 cumulative IPC: 0.985943 (Simulation time: 0 hr 23 min 42 sec) 

Region of Interest Statistics
cpu0_DTLB TOTAL     ACCESS:    3916260  HIT:    3901319  MISS:      14941
cpu0_DTLB LOAD      ACCESS:    2676463  HIT:    2662553  MISS:      13910
cpu0_DTLB RFO       ACCESS:    1239797  HIT:    1238766  MISS:       1031
cpu0_DTLB PREFETCH  ACCESS:          0  HIT:          0  MISS:          0
cpu0_DTLB WRITEBACK ACCESS:          0  HIT:          0  MISS:          0
cpu0_ITLB TOTAL     ACCESS:    2171582  HIT:    2171582  MISS:          0
cpu0_ITLB LOAD      ACCESS:    2171582  HIT:    2171582  MISS:          0
cpu0_ITLB RFO       ACCESS:          0  HIT:          0  MISS:          0
cpu0_ITLB PREFETCH  ACCESS:          0  HIT:          0  MISS:          0
cpu0_ITLB WRITEBACK ACCESS:          0  HIT:          0  MISS:          0
cpu0_L1I TOTAL     ACCESS:    1155767  HIT:    1151555  MISS:       4212
cpu0_L1I LOAD      ACCESS:    1155767  HIT:    1151555  MISS:       4212
cpu0_L1I RFO       ACCESS:          0  HIT:          0  MISS:          0
cpu0_L1I PREFETCH  ACCESS:          0  HIT:          0  MISS:          0
cpu0_L1I WRITEBACK ACCESS:          0  HIT:          0  MISS:          0
cpu0_STLB TOTAL     ACCESS:      14941  HIT:      14881  MISS:         60
cpu0_STLB LOAD      ACCESS:      13910  HIT:      13852  MISS:         58
cpu0_STLB RFO       ACCESS:       1031  HIT:       1029  MISS:          2
cpu0_STLB PREFETCH  ACCESS:          0  HIT:          0  MISS:          0
cpu0_STLB WRITEBACK ACCESS:          0  HIT:          0  MISS:          0
cpu0_L1D TOTAL     ACCESS:    5174927  HIT:    5122840  MISS:      52087
cpu0_L1D LOAD      ACCESS:    2938592  HIT:    2898360  MISS:      40232
cpu0_L1D RFO       ACCESS:    2236275  HIT:    2224459  MISS:      11816
cpu0_L1D PREFETCH  ACCESS:          0  HIT:          0  MISS:          0
cpu0_L1D WRITEBACK ACCESS:          0  HIT:          0  MISS:          0
cpu0_L2C TOTAL     ACCESS:      76922  HIT:      76476  MISS:        446
cpu0_L2C LOAD      ACCESS:      44436  HIT:      44096  MISS:        340
cpu0_L2C RFO       ACCESS:      11816  HIT:      11710  MISS:        106
cpu0_L2C PREFETCH  ACCESS:          0  HIT:          0  MISS:          0
cpu0_L2C WRITEBACK ACCESS:      20631  HIT:      20631  MISS:          0
LLC TOTAL     ACCESS:        456  HIT:         45  MISS:        411
LLC LOAD      ACCESS:        340  HIT:         35  MISS:        305
LLC RFO       ACCESS:        106  HIT:          0  MISS:        106
LLC PREFETCH  ACCESS:          0  HIT:          0  MISS:          0
LLC WRITEBACK ACCESS:         10  HIT:         10  MISS:          0
Heartbeat CPU 0 instructions: 72000002 cycles: 35009418 heartbeat IPC: 0.987929 cumulative IPC: 0.986123 (Simulation time: 0 hr 24 min 26 sec) 

Region of Interest Statistics
cpu0_DTLB TOTAL     ACCESS:    4310476  HIT:    4294016  MISS:      16460
cpu0_DTLB LOAD      ACCESS:    2945749  HIT:    2930441  MISS:      15308
cpu0_DTLB RFO       ACCESS:    1364727  HIT:    1363575  MISS:       1152
cpu0_DTLB PREFETCH  ACCESS:          0  HIT:          0  MISS:          0
cpu0_DTLB WRITEBACK ACCESS:          0  HIT:          0  MISS:          0
cpu0_ITLB TOTAL     ACCESS:    2389754  HIT:    2389754  MISS:          0
cpu0_ITLB LOAD      ACCESS:    2389754  HIT:    2389754  MISS:          0
cpu0_ITLB RFO       ACCESS:          0  HIT:          0  MISS:          0
cpu0_ITLB PREFETCH  ACCESS:          0  HIT:          0  MISS:          0
cpu0_ITLB WRITEBACK ACCESS:          0  HIT:          0  MISS:          0
cpu0_L1I TOTAL     ACCESS:    1272287  HIT:    1267653  MISS:       4634
cpu0_L1I LOAD      ACCESS:    1272287  HIT:    1267653  MISS:       4634
cpu0_L1I RFO       ACCESS:          0  HIT:          0  MISS:          0
cpu0_L1I PREFETCH  ACCESS:          0  HIT:          0  MISS:          0
cpu0_L1I WRITEBACK ACCESS:          0  HIT:          0  MISS:          0
cpu0_STLB TOTAL     ACCESS:      16460  HIT:      16388  MISS:         72
cpu0_STLB LOAD      ACCESS:      15308  HIT:      15239  MISS:         69
cpu0_STLB RFO       ACCESS:       1152  HIT:       1149  MISS:          3
cpu0_STLB PREFETCH  ACCESS:          0  HIT:          0  MISS:          0
cpu0_STLB WRITEBACK ACCESS:          0  HIT:          0  MISS:          0
cpu0_L1D TOTAL     ACCESS:    5695414  HIT:    5638282  MISS:      57132
cpu0_L1D LOAD      ACCESS:    3234463  HIT:    3190387  MISS:      44076
cpu0_L1D RFO       ACCESS:    2460879  HIT:    2447868  MISS:      13011
cpu0_L1D PREFETCH  ACCESS:          0  HIT:          0  MISS:          0
cpu0_L1D WRITEBACK ACCESS:          0  HIT:          0  MISS:          0
cpu0_L2C TOTAL     ACCESS:      84341  HIT:      83783  MISS:        558
cpu0_L2C LOAD      ACCESS:      48702  HIT:      48293  MISS:        409
cpu0_L2C RFO       ACCESS:      13011  HIT:      12862  MISS:        149
cpu0_L2C PREFETCH  ACCESS:          0  HIT:          0  MISS:          0
cpu0_L2C WRITEBACK ACCESS:      22583  HIT:      22583  MISS:          0
LLC TOTAL     ACCESS:        572  HIT:         58  MISS:        514
LLC LOAD      ACCESS:        409  HIT:         44  MISS:        365
LLC RFO       ACCESS:        149  HIT:          0  MISS:        149
LLC PREFETCH  ACCESS:          0  HIT:          0  MISS:          0
LLC WRITEBACK ACCESS:         14  HIT:         14  MISS:          0
Heartbeat CPU 0 instructions: 74000000 cycles: 37018376 heartbeat IPC: 0.99554 cumulative IPC: 0.986901 (Simulation time: 0 hr 25 min 9 sec) 

Region of Interest Statistics
cpu0_DTLB TOTAL     ACCESS:    4700593  HIT:    4682465  MISS:      18128
cpu0_DTLB LOAD      ACCESS:    3209537  HIT:    3192675  MISS:      16862
cpu0_DTLB RFO       ACCESS:    1491056  HIT:    1489790  MISS:       1266
cpu0_DTLB PREFETCH  ACCESS:          0  HIT:          0  MISS:          0
cpu0_DTLB WRITEBACK ACCESS:          0  HIT:          0  MISS:          0
cpu0_ITLB TOTAL     ACCESS:    2602534  HIT:    2602534  MISS:          0
cpu0_ITLB LOAD      ACCESS:    2602534  HIT:    2602534  MISS:          0
cpu0_ITLB RFO       ACCESS:          0  HIT:          0  MISS:          0
cpu0_ITLB PREFETCH  ACCESS:          0  HIT:          0  MISS:          0
cpu0_ITLB WRITEBACK ACCESS:          0  HIT:          0  MISS:          0
cpu0_L1I TOTAL     ACCESS:    1388252  HIT:    1383114  MISS:       5138
cpu0_L1I LOAD      ACCESS:    1388252  HIT:    1383114  MISS:       5138
cpu0_L1I RFO       ACCESS:          0  HIT:          0  MISS:          0
cpu0_L1I PREFETCH  ACCESS:          0  HIT:          0  MISS:          0
cpu0_L1I WRITEBACK ACCESS:          0  HIT:          0  MISS:          0
cpu0_STLB TOTAL     ACCESS:      18128  HIT:      18051  MISS:         77
cpu0_STLB LOAD      ACCESS:      16862  HIT:      16788  MISS:         74
cpu0_STLB RFO       ACCESS:       1266  HIT:       1263  MISS:          3
cpu0_STLB PREFETCH  ACCESS:          0  HIT:          0  MISS:          0
cpu0_STLB WRITEBACK ACCESS:          0  HIT:          0  MISS:          0
cpu0_L1D TOTAL     ACCESS:    6208830  HIT:    6146037  MISS:      62793
cpu0_L1D LOAD      ACCESS:    3523315  HIT:    3474846  MISS:      48469
cpu0_L1D RFO       ACCESS:    2685438  HIT:    2671160  MISS:      14278
cpu0_L1D PREFETCH  ACCESS:          0  HIT:          0  MISS:          0
cpu0_L1D WRITEBACK ACCESS:          0  HIT:          0  MISS:          0
cpu0_L2C TOTAL     ACCESS:      92816  HIT:      92233  MISS:        583
cpu0_L2C LOAD      ACCESS:      53599  HIT:      53165  MISS:        434
cpu0_L2C RFO       ACCESS:      14278  HIT:      14129  MISS:        149
cpu0_L2C PREFETCH  ACCESS:          0  HIT:          0  MISS:          0
cpu0_L2C WRITEBACK ACCESS:      24893  HIT:      24893  MISS:          0
LLC TOTAL     ACCESS:        597  HIT:         63  MISS:        534
LLC LOAD      ACCESS:        434  HIT:         49  MISS:        385
LLC RFO       ACCESS:        149  HIT:          0  MISS:        149
LLC PREFETCH  ACCESS:          0  HIT:          0  MISS:          0
LLC WRITEBACK ACCESS:         14  HIT:         14  MISS:          0
Heartbeat CPU 0 instructions: 76000002 cycles: 39023354 heartbeat IPC: 0.997518 cumulative IPC: 0.98771 (Simulation time: 0 hr 25 min 50 sec) 

Region of Interest Statistics
cpu0_DTLB TOTAL     ACCESS:    5090025  HIT:    5070356  MISS:      19669
cpu0_DTLB LOAD      ACCESS:    3474251  HIT:    3455955  MISS:      18296
cpu0_DTLB RFO       ACCESS:    1615774  HIT:    1614401  MISS:       1373
cpu0_DTLB PREFETCH  ACCESS:          0  HIT:          0  MISS:          0
cpu0_DTLB WRITEBACK ACCESS:          0  HIT:          0  MISS:          0
cpu0_ITLB TOTAL     ACCESS:    2816755  HIT:    2816755  MISS:          0
cpu0_ITLB LOAD      ACCESS:    2816755  HIT:    2816755  MISS:          0
cpu0_ITLB RFO       ACCESS:          0  HIT:          0  MISS:          0
cpu0_ITLB PREFETCH  ACCESS:          0  HIT:          0  MISS:          0
cpu0_ITLB WRITEBACK ACCESS:          0  HIT:          0  MISS:          0
cpu0_L1I TOTAL     ACCESS:    1504933  HIT:    1499373  MISS:       5560
cpu0_L1I LOAD      ACCESS:    1504933  HIT:    1499373  MISS:       5560
cpu0_L1I RFO       ACCESS:          0  HIT:          0  MISS:          0
cpu0_L1I PREFETCH  ACCESS:          0  HIT:          0  MISS:          0
cpu0_L1I WRITEBACK ACCESS:          0  HIT:          0  MISS:          0
cpu0_STLB TOTAL     ACCESS:      19669  HIT:      19588  MISS:         81
cpu0_STLB LOAD      ACCESS:      18296  HIT:      18219  MISS:         77
cpu0_STLB RFO       ACCESS:       1373  HIT:       1369  MISS:          4
cpu0_STLB PREFETCH  ACCESS:          0  HIT:          0  MISS:          0
cpu0_STLB WRITEBACK ACCESS:          0  HIT:          0  MISS:          0
cpu0_L1D TOTAL     ACCESS:    6724100  HIT:    6655678  MISS:      68422
cpu0_L1D LOAD      ACCESS:    3814298  HIT:    3761527  MISS:      52771
cpu0_L1D RFO       ACCESS:    2909721  HIT:    2894120  MISS:      15601
cpu0_L1D PREFETCH  ACCESS:          0  HIT:          0  MISS:          0
cpu0_L1D WRITEBACK ACCESS:          0  HIT:          0  MISS:          0
cpu0_L2C TOTAL     ACCESS:     101208  HIT:     100581  MISS:        627
cpu0_L2C LOAD      ACCESS:      58323  HIT:      57875  MISS:        448
cpu0_L2C RFO       ACCESS:      15601  HIT:      15422  MISS:        179
cpu0_L2C PREFETCH  ACCESS:          0  HIT:          0  MISS:          0
cpu0_L2C WRITEBACK ACCESS:      27234  HIT:      27234  MISS:          0
LLC TOTAL     ACCESS:        641  HIT:         66  MISS:        575
LLC LOAD      ACCESS:        448  HIT:         52  MISS:        396
LLC RFO       ACCESS:        179  HIT:          0  MISS:        179
LLC PREFETCH  ACCESS:          0  HIT:          0  MISS:          0
LLC WRITEBACK ACCESS:         14  HIT:         14  MISS:          0
Heartbeat CPU 0 instructions: 78000002 cycles: 41036844 heartbeat IPC: 0.9933 cumulative IPC: 0.988107 (Simulation time: 0 hr 26 min 32 sec) 

Region of Interest Statistics
cpu0_DTLB TOTAL     ACCESS:    5477517  HIT:    5456228  MISS:      21289
cpu0_DTLB LOAD      ACCESS:    3736487  HIT:    3716688  MISS:      19799
cpu0_DTLB RFO       ACCESS:    1741030  HIT:    1739540  MISS:       1490
cpu0_DTLB PREFETCH  ACCESS:          0  HIT:          0  MISS:          0
cpu0_DTLB WRITEBACK ACCESS:          0  HIT:          0  MISS:          0
cpu0_ITLB TOTAL     ACCESS:    3029236  HIT:    3029236  MISS:          0
cpu0_ITLB LOAD      ACCESS:    3029236  HIT:    3029236  MISS:          0
cpu0_ITLB RFO       ACCESS:          0  HIT:          0  MISS:          0
cpu0_ITLB PREFETCH  ACCESS:          0  HIT:          0  MISS:          0
cpu0_ITLB WRITEBACK ACCESS:          0  HIT:          0  MISS:          0
cpu0_L1I TOTAL     ACCESS:    1622672  HIT:    1616661  MISS:       6011
cpu0_L1I LOAD      ACCESS:    1622672  HIT:    1616661  MISS:       6011
cpu0_L1I RFO       ACCESS:          0  HIT:          0  MISS:          0
cpu0_L1I PREFETCH  ACCESS:          0  HIT:          0  MISS:          0
cpu0_L1I WRITEBACK ACCESS:          0  HIT:          0  MISS:          0
cpu0_STLB TOTAL     ACCESS:      21289  HIT:      21203  MISS:         86
cpu0_STLB LOAD      ACCESS:      19799  HIT:      19717  MISS:         82
cpu0_STLB RFO       ACCESS:       1490  HIT:       1486  MISS:          4
cpu0_STLB PREFETCH  ACCESS:          0  HIT:          0  MISS:          0
cpu0_STLB WRITEBACK ACCESS:          0  HIT:          0  MISS:          0
cpu0_L1D TOTAL     ACCESS:    7235225  HIT:    7160611  MISS:      74614
cpu0_L1D LOAD      ACCESS:    4102259  HIT:    4044785  MISS:      57474
cpu0_L1D RFO       ACCESS:    3132880  HIT:    3115795  MISS:      17085
cpu0_L1D PREFETCH  ACCESS:          0  HIT:          0  MISS:          0
cpu0_L1D WRITEBACK ACCESS:          0  HIT:          0  MISS:          0
cpu0_L2C TOTAL     ACCESS:     110356  HIT:     109667  MISS:        689
cpu0_L2C LOAD      ACCESS:      63477  HIT:      63005  MISS:        472
cpu0_L2C RFO       ACCESS:      17085  HIT:      16868  MISS:        217
cpu0_L2C PREFETCH  ACCESS:          0  HIT:          0  MISS:          0
cpu0_L2C WRITEBACK ACCESS:      29739  HIT:      29739  MISS:          0
LLC TOTAL     ACCESS:        706  HIT:         78  MISS:        628
LLC LOAD      ACCESS:        472  HIT:         61  MISS:        411
LLC RFO       ACCESS:        217  HIT:          0  MISS:        217
LLC PREFETCH  ACCESS:          0  HIT:          0  MISS:          0
LLC WRITEBACK ACCESS:         17  HIT:         17  MISS:          0
Heartbeat CPU 0 instructions: 80000001 cycles: 43057308 heartbeat IPC: 0.989871 cumulative IPC: 0.988225 (Simulation time: 0 hr 27 min 15 sec) 

Region of Interest Statistics
cpu0_DTLB TOTAL     ACCESS:    5864308  HIT:    5841440  MISS:      22868
cpu0_DTLB LOAD      ACCESS:    3999794  HIT:    3978520  MISS:      21274
cpu0_DTLB RFO       ACCESS:    1864514  HIT:    1862920  MISS:       1594
cpu0_DTLB PREFETCH  ACCESS:          0  HIT:          0  MISS:          0
cpu0_DTLB WRITEBACK ACCESS:          0  HIT:          0  MISS:          0
cpu0_ITLB TOTAL     ACCESS:    3244201  HIT:    3244201  MISS:          0
cpu0_ITLB LOAD      ACCESS:    3244201  HIT:    3244201  MISS:          0
cpu0_ITLB RFO       ACCESS:          0  HIT:          0  MISS:          0
cpu0_ITLB PREFETCH  ACCESS:          0  HIT:          0  MISS:          0
cpu0_ITLB WRITEBACK ACCESS:          0  HIT:          0  MISS:          0
cpu0_L1I TOTAL     ACCESS:    1736694  HIT:    1730252  MISS:       6442
cpu0_L1I LOAD      ACCESS:    1736694  HIT:    1730252  MISS:       6442
cpu0_L1I RFO       ACCESS:          0  HIT:          0  MISS:          0
cpu0_L1I PREFETCH  ACCESS:          0  HIT:          0  MISS:          0
cpu0_L1I WRITEBACK ACCESS:          0  HIT:          0  MISS:          0
cpu0_STLB TOTAL     ACCESS:      22868  HIT:      22776  MISS:         92
cpu0_STLB LOAD      ACCESS:      21274  HIT:      21186  MISS:         88
cpu0_STLB RFO       ACCESS:       1594  HIT:       1590  MISS:          4
cpu0_STLB PREFETCH  ACCESS:          0  HIT:          0  MISS:          0
cpu0_STLB WRITEBACK ACCESS:          0  HIT:          0  MISS:          0
cpu0_L1D TOTAL     ACCESS:    7746114  HIT:    7665393  MISS:      80721
cpu0_L1D LOAD      ACCESS:    4391165  HIT:    4328934  MISS:      62231
cpu0_L1D RFO       ACCESS:    3354857  HIT:    3336428  MISS:      18429
cpu0_L1D PREFETCH  ACCESS:          0  HIT:          0  MISS:          0
cpu0_L1D WRITEBACK ACCESS:          0  HIT:          0  MISS:          0
cpu0_L2C TOTAL     ACCESS:     119432  HIT:     118726  MISS:        706
cpu0_L2C LOAD      ACCESS:      68665  HIT:      68176  MISS:        489
cpu0_L2C RFO       ACCESS:      18429  HIT:      18212  MISS:        217
cpu0_L2C PREFETCH  ACCESS:          0  HIT:          0  MISS:          0
cpu0_L2C WRITEBACK ACCESS:      32277  HIT:      32277  MISS:          0
LLC TOTAL     ACCESS:        725  HIT:         82  MISS:        643
LLC LOAD      ACCESS:        489  HIT:         63  MISS:        426
LLC RFO       ACCESS:        217  HIT:          0  MISS:        217
LLC PREFETCH  ACCESS:          0  HIT:          0  MISS:          0
LLC WRITEBACK ACCESS:         19  HIT:         19  MISS:          0
Heartbeat CPU 0 instructions: 82000000 cycles: 45066795 heartbeat IPC: 0.995278 cumulative IPC: 0.988663 (Simulation time: 0 hr 27 min 55 sec) 

Region of Interest Statistics
cpu0_DTLB TOTAL     ACCESS:    6249921  HIT:    6225376  MISS:      24545
cpu0_DTLB LOAD      ACCESS:    4260357  HIT:    4237517  MISS:      22840
cpu0_DTLB RFO       ACCESS:    1989564  HIT:    1987859  MISS:       1705
cpu0_DTLB PREFETCH  ACCESS:          0  HIT:          0  MISS:          0
cpu0_DTLB WRITEBACK ACCESS:          0  HIT:          0  MISS:          0
cpu0_ITLB TOTAL     ACCESS:    3458033  HIT:    3458033  MISS:          0
cpu0_ITLB LOAD      ACCESS:    3458033  HIT:    3458033  MISS:          0
cpu0_ITLB RFO       ACCESS:          0  HIT:          0  MISS:          0
cpu0_ITLB PREFETCH  ACCESS:          0  HIT:          0  MISS:          0
cpu0_ITLB WRITEBACK ACCESS:          0  HIT:          0  MISS:          0
cpu0_L1I TOTAL     ACCESS:    1851497  HIT:    1844579  MISS:       6918
cpu0_L1I LOAD      ACCESS:    1851497  HIT:    1844579  MISS:       6918
cpu0_L1I RFO       ACCESS:          0  HIT:          0  MISS:          0
cpu0_L1I PREFETCH  ACCESS:          0  HIT:          0  MISS:          0
cpu0_L1I WRITEBACK ACCESS:          0  HIT:          0  MISS:          0
cpu0_STLB TOTAL     ACCESS:      24545  HIT:      24446  MISS:         99
cpu0_STLB LOAD      ACCESS:      22840  HIT:      22745  MISS:         95
cpu0_STLB RFO       ACCESS:       1705  HIT:       1701  MISS:          4
cpu0_STLB PREFETCH  ACCESS:          0  HIT:          0  MISS:          0
cpu0_STLB WRITEBACK ACCESS:          0  HIT:          0  MISS:          0
cpu0_L1D TOTAL     ACCESS:    8254266  HIT:    8167258  MISS:      87008
cpu0_L1D LOAD      ACCESS:    4677229  HIT:    4610166  MISS:      67063
cpu0_L1D RFO       ACCESS:    3576938  HIT:    3557060  MISS:      19878
cpu0_L1D PREFETCH  ACCESS:          0  HIT:          0  MISS:          0
cpu0_L1D WRITEBACK ACCESS:          0  HIT:          0  MISS:          0
cpu0_L2C TOTAL     ACCESS:     128755  HIT:     128029  MISS:        726
cpu0_L2C LOAD      ACCESS:      73973  HIT:      73464  MISS:        509
cpu0_L2C RFO       ACCESS:      19878  HIT:      19661  MISS:        217
cpu0_L2C PREFETCH  ACCESS:          0  HIT:          0  MISS:          0
cpu0_L2C WRITEBACK ACCESS:      34837  HIT:      34837  MISS:          0
LLC TOTAL     ACCESS:        746  HIT:         85  MISS:        661
LLC LOAD      ACCESS:        509  HIT:         65  MISS:        444
LLC RFO       ACCESS:        217  HIT:          0  MISS:        217
LLC PREFETCH  ACCESS:          0  HIT:          0  MISS:          0
LLC WRITEBACK ACCESS:         20  HIT:         20  MISS:          0
Heartbeat CPU 0 instructions: 84000001 cycles: 47061371 heartbeat IPC: 1.00272 cumulative IPC: 0.989478 (Simulation time: 0 hr 28 min 38 sec) 

Region of Interest Statistics
cpu0_DTLB TOTAL     ACCESS:    6638391  HIT:    6612307  MISS:      26084
cpu0_DTLB LOAD      ACCESS:    4523649  HIT:    4499375  MISS:      24274
cpu0_DTLB RFO       ACCESS:    2114742  HIT:    2112932  MISS:       1810
cpu0_DTLB PREFETCH  ACCESS:          0  HIT:          0  MISS:          0
cpu0_DTLB WRITEBACK ACCESS:          0  HIT:          0  MISS:          0
cpu0_ITLB TOTAL     ACCESS:    3672165  HIT:    3672165  MISS:          0
cpu0_ITLB LOAD      ACCESS:    3672165  HIT:    3672165  MISS:          0
cpu0_ITLB RFO       ACCESS:          0  HIT:          0  MISS:          0
cpu0_ITLB PREFETCH  ACCESS:          0  HIT:          0  MISS:          0
cpu0_ITLB WRITEBACK ACCESS:          0  HIT:          0  MISS:          0
cpu0_L1I TOTAL     ACCESS:    1967830  HIT:    1960475  MISS:       7355
cpu0_L1I LOAD      ACCESS:    1967830  HIT:    1960475  MISS:       7355
cpu0_L1I RFO       ACCESS:          0  HIT:          0  MISS:          0
cpu0_L1I PREFETCH  ACCESS:          0  HIT:          0  MISS:          0
cpu0_L1I WRITEBACK ACCESS:          0  HIT:          0  MISS:          0
cpu0_STLB TOTAL     ACCESS:      26084  HIT:      25984  MISS:        100
cpu0_STLB LOAD      ACCESS:      24274  HIT:      24178  MISS:         96
cpu0_STLB RFO       ACCESS:       1810  HIT:       1806  MISS:          4
cpu0_STLB PREFETCH  ACCESS:          0  HIT:          0  MISS:          0
cpu0_STLB WRITEBACK ACCESS:          0  HIT:          0  MISS:          0
cpu0_L1D TOTAL     ACCESS:    8768378  HIT:    8675930  MISS:      92448
cpu0_L1D LOAD      ACCESS:    4966551  HIT:    4895381  MISS:      71170
cpu0_L1D RFO       ACCESS:    3801727  HIT:    3780517  MISS:      21210
cpu0_L1D PREFETCH  ACCESS:          0  HIT:          0  MISS:          0
cpu0_L1D WRITEBACK ACCESS:          0  HIT:          0  MISS:          0
cpu0_L2C TOTAL     ACCESS:     136699  HIT:     135957  MISS:        742
cpu0_L2C LOAD      ACCESS:      78517  HIT:      77992  MISS:        525
cpu0_L2C RFO       ACCESS:      21210  HIT:      20993  MISS:        217
cpu0_L2C PREFETCH  ACCESS:          0  HIT:          0  MISS:          0
cpu0_L2C WRITEBACK ACCESS:      36904  HIT:      36904  MISS:          0
LLC TOTAL     ACCESS:        762  HIT:         88  MISS:        674
LLC LOAD      ACCESS:        525  HIT:         68  MISS:        457
LLC RFO       ACCESS:        217  HIT:          0  MISS:        217
LLC PREFETCH  ACCESS:          0  HIT:          0  MISS:          0
LLC WRITEBACK ACCESS:         20  HIT:         20  MISS:          0
Heartbeat CPU 0 instructions: 86000000 cycles: 49101222 heartbeat IPC: 0.980463 cumulative IPC: 0.988973 (Simulation time: 0 hr 29 min 15 sec) 

Region of Interest Statistics
cpu0_DTLB TOTAL     ACCESS:    7028140  HIT:    7000523  MISS:      27617
cpu0_DTLB LOAD      ACCESS:    4791065  HIT:    4765364  MISS:      25701
cpu0_DTLB RFO       ACCESS:    2237075  HIT:    2235159  MISS:       1916
cpu0_DTLB PREFETCH  ACCESS:          0  HIT:          0  MISS:          0
cpu0_DTLB WRITEBACK ACCESS:          0  HIT:          0  MISS:          0
cpu0_ITLB TOTAL     ACCESS:    3888284  HIT:    3888284  MISS:          0
cpu0_ITLB LOAD      ACCESS:    3888284  HIT:    3888284  MISS:          0
cpu0_ITLB RFO       ACCESS:          0  HIT:          0  MISS:          0
cpu0_ITLB PREFETCH  ACCESS:          0  HIT:          0  MISS:          0
cpu0_ITLB WRITEBACK ACCESS:          0  HIT:          0  MISS:          0
cpu0_L1I TOTAL     ACCESS:    2083419  HIT:    2075677  MISS:       7742
cpu0_L1I LOAD      ACCESS:    2083419  HIT:    2075677  MISS:       7742
cpu0_L1I RFO       ACCESS:          0  HIT:          0  MISS:          0
cpu0_L1I PREFETCH  ACCESS:          0  HIT:          0  MISS:          0
cpu0_L1I WRITEBACK ACCESS:          0  HIT:          0  MISS:          0
cpu0_STLB TOTAL     ACCESS:      27617  HIT:      27509  MISS:        108
cpu0_STLB LOAD      ACCESS:      25701  HIT:      25598  MISS:        103
cpu0_STLB RFO       ACCESS:       1916  HIT:       1911  MISS:          5
cpu0_STLB PREFETCH  ACCESS:          0  HIT:          0  MISS:          0
cpu0_STLB WRITEBACK ACCESS:          0  HIT:          0  MISS:          0
cpu0_L1D TOTAL     ACCESS:    9283241  HIT:    9185523  MISS:      97718
cpu0_L1D LOAD      ACCESS:    5259915  HIT:    5184753  MISS:      75162
cpu0_L1D RFO       ACCESS:    4023218  HIT:    4000738  MISS:      22480
cpu0_L1D PREFETCH  ACCESS:          0  HIT:          0  MISS:          0
cpu0_L1D WRITEBACK ACCESS:          0  HIT:          0  MISS:          0
cpu0_L2C TOTAL     ACCESS:     144482  HIT:     143691  MISS:        791
cpu0_L2C LOAD      ACCESS:      82896  HIT:      82352  MISS:        544
cpu0_L2C RFO       ACCESS:      22480  HIT:      22233  MISS:        247
cpu0_L2C PREFETCH  ACCESS:          0  HIT:          0  MISS:          0
cpu0_L2C WRITEBACK ACCESS:      39030  HIT:      39030  MISS:          0
LLC TOTAL     ACCESS:        813  HIT:         92  MISS:        721
LLC LOAD      ACCESS:        544  HIT:         70  MISS:        474
LLC RFO       ACCESS:        247  HIT:          0  MISS:        247
LLC PREFETCH  ACCESS:          0  HIT:          0  MISS:          0
LLC WRITEBACK ACCESS:         22  HIT:         22  MISS:          0
Heartbeat CPU 0 instructions: 88000003 cycles: 51134386 heartbeat IPC: 0.98369 cumulative IPC: 0.988694 (Simulation time: 0 hr 29 min 55 sec) 

Region of Interest Statistics
cpu0_DTLB TOTAL     ACCESS:    7420977  HIT:    7391895  MISS:      29082
cpu0_DTLB LOAD      ACCESS:    5059755  HIT:    5032690  MISS:      27065
cpu0_DTLB RFO       ACCESS:    2361222  HIT:    2359205  MISS:       2017
cpu0_DTLB PREFETCH  ACCESS:          0  HIT:          0  MISS:          0
cpu0_DTLB WRITEBACK ACCESS:          0  HIT:          0  MISS:          0
cpu0_ITLB TOTAL     ACCESS:    4105212  HIT:    4105212  MISS:          0
cpu0_ITLB LOAD      ACCESS:    4105212  HIT:    4105212  MISS:          0
cpu0_ITLB RFO       ACCESS:          0  HIT:          0  MISS:          0
cpu0_ITLB PREFETCH  ACCESS:          0  HIT:          0  MISS:          0
cpu0_ITLB WRITEBACK ACCESS:          0  HIT:          0  MISS:          0
cpu0_L1I TOTAL     ACCESS:    2200181  HIT:    2192018  MISS:       8163
cpu0_L1I LOAD      ACCESS:    2200181  HIT:    2192018  MISS:       8163
cpu0_L1I RFO       ACCESS:          0  HIT:          0  MISS:          0
cpu0_L1I PREFETCH  ACCESS:          0  HIT:          0  MISS:          0
cpu0_L1I WRITEBACK ACCESS:          0  HIT:          0  MISS:          0
cpu0_STLB TOTAL     ACCESS:      29082  HIT:      28968  MISS:        114
cpu0_STLB LOAD      ACCESS:      27065  HIT:      26956  MISS:        109
cpu0_STLB RFO       ACCESS:       2017  HIT:       2012  MISS:          5
cpu0_STLB PREFETCH  ACCESS:          0  HIT:          0  MISS:          0
cpu0_STLB WRITEBACK ACCESS:          0  HIT:          0  MISS:          0
cpu0_L1D TOTAL     ACCESS:    9802560  HIT:    9700151  MISS:     102409
cpu0_L1D LOAD      ACCESS:    5554408  HIT:    5475615  MISS:      78793
cpu0_L1D RFO       ACCESS:    4248038  HIT:    4224504  MISS:      23534
cpu0_L1D PREFETCH  ACCESS:          0  HIT:          0  MISS:          0
cpu0_L1D WRITEBACK ACCESS:          0  HIT:          0  MISS:          0
cpu0_L2C TOTAL     ACCESS:     151362  HIT:     150547  MISS:        815
cpu0_L2C LOAD      ACCESS:      86947  HIT:      86379  MISS:        568
cpu0_L2C RFO       ACCESS:      23534  HIT:      23287  MISS:        247
cpu0_L2C PREFETCH  ACCESS:          0  HIT:          0  MISS:          0
cpu0_L2C WRITEBACK ACCESS:      40799  HIT:      40799  MISS:          0
LLC TOTAL     ACCESS:        840  HIT:        103  MISS:        737
LLC LOAD      ACCESS:        568  HIT:         78  MISS:        490
LLC RFO       ACCESS:        247  HIT:          0  MISS:        247
LLC PREFETCH  ACCESS:          0  HIT:          0  MISS:          0
LLC WRITEBACK ACCESS:         25  HIT:         25  MISS:          0
Heartbeat CPU 0 instructions: 90000000 cycles: 53157718 heartbeat IPC: 0.988467 cumulative IPC: 0.988682 (Simulation time: 0 hr 30 min 34 sec) 

Region of Interest Statistics
cpu0_DTLB TOTAL     ACCESS:    7812662  HIT:    7782168  MISS:      30494
cpu0_DTLB LOAD      ACCESS:    5327353  HIT:    5298968  MISS:      28385
cpu0_DTLB RFO       ACCESS:    2485309  HIT:    2483200  MISS:       2109
cpu0_DTLB PREFETCH  ACCESS:          0  HIT:          0  MISS:          0
cpu0_DTLB WRITEBACK ACCESS:          0  HIT:          0  MISS:          0
cpu0_ITLB TOTAL     ACCESS:    4322979  HIT:    4322979  MISS:          0
cpu0_ITLB LOAD      ACCESS:    4322979  HIT:    4322979  MISS:          0
cpu0_ITLB RFO       ACCESS:          0  HIT:          0  MISS:          0
cpu0_ITLB PREFETCH  ACCESS:          0  HIT:          0  MISS:          0
cpu0_ITLB WRITEBACK ACCESS:          0  HIT:          0  MISS:          0
cpu0_L1I TOTAL     ACCESS:    2318056  HIT:    2309512  MISS:       8544
cpu0_L1I LOAD      ACCESS:    2318056  HIT:    2309512  MISS:       8544
cpu0_L1I RFO       ACCESS:          0  HIT:          0  MISS:          0
cpu0_L1I PREFETCH  ACCESS:          0  HIT:          0  MISS:          0
cpu0_L1I WRITEBACK ACCESS:          0  HIT:          0  MISS:          0
cpu0_STLB TOTAL     ACCESS:      30494  HIT:      30372  MISS:        122
cpu0_STLB LOAD      ACCESS:      28385  HIT:      28268  MISS:        117
cpu0_STLB RFO       ACCESS:       2109  HIT:       2104  MISS:          5
cpu0_STLB PREFETCH  ACCESS:          0  HIT:          0  MISS:          0
cpu0_STLB WRITEBACK ACCESS:          0  HIT:          0  MISS:          0
cpu0_L1D TOTAL     ACCESS:   10323295  HIT:   10215876  MISS:     107419
cpu0_L1D LOAD      ACCESS:    5848320  HIT:    5765594  MISS:      82726
cpu0_L1D RFO       ACCESS:    4474853  HIT:    4450247  MISS:      24606
cpu0_L1D PREFETCH  ACCESS:          0  HIT:          0  MISS:          0
cpu0_L1D WRITEBACK ACCESS:          0  HIT:          0  MISS:          0
cpu0_L2C TOTAL     ACCESS:     158690  HIT:     157781  MISS:        909
cpu0_L2C LOAD      ACCESS:      91261  HIT:      90600  MISS:        661
cpu0_L2C RFO       ACCESS:      24606  HIT:      24358  MISS:        248
cpu0_L2C PREFETCH  ACCESS:          0  HIT:          0  MISS:          0
cpu0_L2C WRITEBACK ACCESS:      42736  HIT:      42736  MISS:          0
LLC TOTAL     ACCESS:        937  HIT:        109  MISS:        828
LLC LOAD      ACCESS:        661  HIT:         80  MISS:        581
LLC RFO       ACCESS:        248  HIT:          1  MISS:        247
LLC PREFETCH  ACCESS:          0  HIT:          0  MISS:          0
LLC WRITEBACK ACCESS:         28  HIT:         28  MISS:          0
Heartbeat CPU 0 instructions: 92000003 cycles: 55168769 heartbeat IPC: 0.994506 cumulative IPC: 0.988958 (Simulation time: 0 hr 31 min 11 sec) 

Region of Interest Statistics
cpu0_DTLB TOTAL     ACCESS:    8203383  HIT:    8171238  MISS:      32145
cpu0_DTLB LOAD      ACCESS:    5591016  HIT:    5561097  MISS:      29919
cpu0_DTLB RFO       ACCESS:    2612367  HIT:    2610141  MISS:       2226
cpu0_DTLB PREFETCH  ACCESS:          0  HIT:          0  MISS:          0
cpu0_DTLB WRITEBACK ACCESS:          0  HIT:          0  MISS:          0
cpu0_ITLB TOTAL     ACCESS:    4539334  HIT:    4539334  MISS:          0
cpu0_ITLB LOAD      ACCESS:    4539334  HIT:    4539334  MISS:          0
cpu0_ITLB RFO       ACCESS:          0  HIT:          0  MISS:          0
cpu0_ITLB PREFETCH  ACCESS:          0  HIT:          0  MISS:          0
cpu0_ITLB WRITEBACK ACCESS:          0  HIT:          0  MISS:          0
cpu0_L1I TOTAL     ACCESS:    2432883  HIT:    2423833  MISS:       9050
cpu0_L1I LOAD      ACCESS:    2432883  HIT:    2423833  MISS:       9050
cpu0_L1I RFO       ACCESS:          0  HIT:          0  MISS:          0
cpu0_L1I PREFETCH  ACCESS:          0  HIT:          0  MISS:          0
cpu0_L1I WRITEBACK ACCESS:          0  HIT:          0  MISS:          0
cpu0_STLB TOTAL     ACCESS:      32145  HIT:      32022  MISS:        123
cpu0_STLB LOAD      ACCESS:      29919  HIT:      29801  MISS:        118
cpu0_STLB RFO       ACCESS:       2226  HIT:       2221  MISS:          5
cpu0_STLB PREFETCH  ACCESS:          0  HIT:          0  MISS:          0
cpu0_STLB WRITEBACK ACCESS:          0  HIT:          0  MISS:          0
cpu0_L1D TOTAL     ACCESS:   10841996  HIT:   10730252  MISS:     111744
cpu0_L1D LOAD      ACCESS:    6138319  HIT:    6052339  MISS:      85980
cpu0_L1D RFO       ACCESS:    4703554  HIT:    4677878  MISS:      25676
cpu0_L1D PREFETCH  ACCESS:          0  HIT:          0  MISS:          0
cpu0_L1D WRITEBACK ACCESS:          0  HIT:          0  MISS:          0
cpu0_L2C TOTAL     ACCESS:     165019  HIT:     164098  MISS:        921
cpu0_L2C LOAD      ACCESS:      95021  HIT:      94350  MISS:        671
cpu0_L2C RFO       ACCESS:      25676  HIT:      25426  MISS:        250
cpu0_L2C PREFETCH  ACCESS:          0  HIT:          0  MISS:          0
cpu0_L2C WRITEBACK ACCESS:      44234  HIT:      44234  MISS:          0
LLC TOTAL     ACCESS:        949  HIT:        113  MISS:        836
LLC LOAD      ACCESS:        671  HIT:         84  MISS:        587
LLC RFO       ACCESS:        250  HIT:          1  MISS:        249
LLC PREFETCH  ACCESS:          0  HIT:          0  MISS:          0
LLC WRITEBACK ACCESS:         28  HIT:         28  MISS:          0
Heartbeat CPU 0 instructions: 94000001 cycles: 57214982 heartbeat IPC: 0.977414 cumulative IPC: 0.988428 (Simulation time: 0 hr 31 min 48 sec) 

Region of Interest Statistics
cpu0_DTLB TOTAL     ACCESS:    8598806  HIT:    8565204  MISS:      33602
cpu0_DTLB LOAD      ACCESS:    5861697  HIT:    5830424  MISS:      31273
cpu0_DTLB RFO       ACCESS:    2737109  HIT:    2734780  MISS:       2329
cpu0_DTLB PREFETCH  ACCESS:          0  HIT:          0  MISS:          0
cpu0_DTLB WRITEBACK ACCESS:          0  HIT:          0  MISS:          0
cpu0_ITLB TOTAL     ACCESS:    4759530  HIT:    4759530  MISS:          0
cpu0_ITLB LOAD      ACCESS:    4759530  HIT:    4759530  MISS:          0
cpu0_ITLB RFO       ACCESS:          0  HIT:          0  MISS:          0
cpu0_ITLB PREFETCH  ACCESS:          0  HIT:          0  MISS:          0
cpu0_ITLB WRITEBACK ACCESS:          0  HIT:          0  MISS:          0
cpu0_L1I TOTAL     ACCESS:    2548695  HIT:    2539222  MISS:       9473
cpu0_L1I LOAD      ACCESS:    2548695  HIT:    2539222  MISS:       9473
cpu0_L1I RFO       ACCESS:          0  HIT:          0  MISS:          0
cpu0_L1I PREFETCH  ACCESS:          0  HIT:          0  MISS:          0
cpu0_L1I WRITEBACK ACCESS:          0  HIT:          0  MISS:          0
cpu0_STLB TOTAL     ACCESS:      33602  HIT:      33471  MISS:        131
cpu0_STLB LOAD      ACCESS:      31273  HIT:      31147  MISS:        126
cpu0_STLB RFO       ACCESS:       2329  HIT:       2324  MISS:          5
cpu0_STLB PREFETCH  ACCESS:          0  HIT:          0  MISS:          0
cpu0_STLB WRITEBACK ACCESS:          0  HIT:          0  MISS:          0
cpu0_L1D TOTAL     ACCESS:   11366110  HIT:   11250016  MISS:     116094
cpu0_L1D LOAD      ACCESS:    6436497  HIT:    6347211  MISS:      89286
cpu0_L1D RFO       ACCESS:    4929482  HIT:    4902769  MISS:      26713
cpu0_L1D PREFETCH  ACCESS:          0  HIT:          0  MISS:          0
cpu0_L1D WRITEBACK ACCESS:          0  HIT:          0  MISS:          0
cpu0_L2C TOTAL     ACCESS:     171329  HIT:     170344  MISS:        985
cpu0_L2C LOAD      ACCESS:      98750  HIT:      98052  MISS:        698
cpu0_L2C RFO       ACCESS:      26713  HIT:      26426  MISS:        287
cpu0_L2C PREFETCH  ACCESS:          0  HIT:          0  MISS:          0
cpu0_L2C WRITEBACK ACCESS:      45771  HIT:      45771  MISS:          0
LLC TOTAL     ACCESS:       1015  HIT:        122  MISS:        893
LLC LOAD      ACCESS:        698  HIT:         91  MISS:        607
LLC RFO       ACCESS:        287  HIT:          1  MISS:        286
LLC PREFETCH  ACCESS:          0  HIT:          0  MISS:          0
LLC WRITEBACK ACCESS:         30  HIT:         30  MISS:          0
Heartbeat CPU 0 instructions: 96000002 cycles: 59253057 heartbeat IPC: 0.981319 cumulative IPC: 0.988116 (Simulation time: 0 hr 32 min 28 sec) 

Region of Interest Statistics
cpu0_DTLB TOTAL     ACCESS:    8997965  HIT:    8962921  MISS:      35044
cpu0_DTLB LOAD      ACCESS:    6134106  HIT:    6101490  MISS:      32616
cpu0_DTLB RFO       ACCESS:    2863859  HIT:    2861431  MISS:       2428
cpu0_DTLB PREFETCH  ACCESS:          0  HIT:          0  MISS:          0
cpu0_DTLB WRITEBACK ACCESS:          0  HIT:          0  MISS:          0
cpu0_ITLB TOTAL     ACCESS:    4979969  HIT:    4979969  MISS:          0
cpu0_ITLB LOAD      ACCESS:    4979969  HIT:    4979969  MISS:          0
cpu0_ITLB RFO       ACCESS:          0  HIT:          0  MISS:          0
cpu0_ITLB PREFETCH  ACCESS:          0  HIT:          0  MISS:          0
cpu0_ITLB WRITEBACK ACCESS:          0  HIT:          0  MISS:          0
cpu0_L1I TOTAL     ACCESS:    2665883  HIT:    2655951  MISS:       9932
cpu0_L1I LOAD      ACCESS:    2665883  HIT:    2655951  MISS:       9932
cpu0_L1I RFO       ACCESS:          0  HIT:          0  MISS:          0
cpu0_L1I PREFETCH  ACCESS:          0  HIT:          0  MISS:          0
cpu0_L1I WRITEBACK ACCESS:          0  HIT:          0  MISS:          0
cpu0_STLB TOTAL     ACCESS:      35044  HIT:      34905  MISS:        139
cpu0_STLB LOAD      ACCESS:      32616  HIT:      32482  MISS:        134
cpu0_STLB RFO       ACCESS:       2428  HIT:       2423  MISS:          5
cpu0_STLB PREFETCH  ACCESS:          0  HIT:          0  MISS:          0
cpu0_STLB WRITEBACK ACCESS:          0  HIT:          0  MISS:          0
cpu0_L1D TOTAL     ACCESS:   11894836  HIT:   11774921  MISS:     119915
cpu0_L1D LOAD      ACCESS:    6735783  HIT:    6643526  MISS:      92257
cpu0_L1D RFO       ACCESS:    5158914  HIT:    5131354  MISS:      27560
cpu0_L1D PREFETCH  ACCESS:          0  HIT:          0  MISS:          0
cpu0_L1D WRITEBACK ACCESS:          0  HIT:          0  MISS:          0
cpu0_L2C TOTAL     ACCESS:     176963  HIT:     175911  MISS:       1052
cpu0_L2C LOAD      ACCESS:     102180  HIT:     101416  MISS:        764
cpu0_L2C RFO       ACCESS:      27560  HIT:      27272  MISS:        288
cpu0_L2C PREFETCH  ACCESS:          0  HIT:          0  MISS:          0
cpu0_L2C WRITEBACK ACCESS:      47125  HIT:      47125  MISS:          0
LLC TOTAL     ACCESS:       1085  HIT:        131  MISS:        954
LLC LOAD      ACCESS:        764  HIT:         97  MISS:        667
LLC RFO       ACCESS:        288  HIT:          1  MISS:        287
LLC PREFETCH  ACCESS:          0  HIT:          0  MISS:          0
LLC WRITEBACK ACCESS:         33  HIT:         33  MISS:          0
Heartbeat CPU 0 instructions: 98000002 cycles: 61295272 heartbeat IPC: 0.979329 cumulative IPC: 0.987747 (Simulation time: 0 hr 33 min 9 sec) 

Region of Interest Statistics
cpu0_DTLB TOTAL     ACCESS:    9397667  HIT:    9361251  MISS:      36416
cpu0_DTLB LOAD      ACCESS:    6407515  HIT:    6373604  MISS:      33911
cpu0_DTLB RFO       ACCESS:    2990152  HIT:    2987647  MISS:       2505
cpu0_DTLB PREFETCH  ACCESS:          0  HIT:          0  MISS:          0
cpu0_DTLB WRITEBACK ACCESS:          0  HIT:          0  MISS:          0
cpu0_ITLB TOTAL     ACCESS:    5202672  HIT:    5202672  MISS:          0
cpu0_ITLB LOAD      ACCESS:    5202672  HIT:    5202672  MISS:          0
cpu0_ITLB RFO       ACCESS:          0  HIT:          0  MISS:          0
cpu0_ITLB PREFETCH  ACCESS:          0  HIT:          0  MISS:          0
cpu0_ITLB WRITEBACK ACCESS:          0  HIT:          0  MISS:          0
cpu0_L1I TOTAL     ACCESS:    2780481  HIT:    2770083  MISS:      10398
cpu0_L1I LOAD      ACCESS:    2780481  HIT:    2770083  MISS:      10398
cpu0_L1I RFO       ACCESS:          0  HIT:          0  MISS:          0
cpu0_L1I PREFETCH  ACCESS:          0  HIT:          0  MISS:          0
cpu0_L1I WRITEBACK ACCESS:          0  HIT:          0  MISS:          0
cpu0_STLB TOTAL     ACCESS:      36416  HIT:      36272  MISS:        144
cpu0_STLB LOAD      ACCESS:      33911  HIT:      33772  MISS:        139
cpu0_STLB RFO       ACCESS:       2505  HIT:       2500  MISS:          5
cpu0_STLB PREFETCH  ACCESS:          0  HIT:          0  MISS:          0
cpu0_STLB WRITEBACK ACCESS:          0  HIT:          0  MISS:          0
cpu0_L1D TOTAL     ACCESS:   12427374  HIT:   12304941  MISS:     122433
cpu0_L1D LOAD      ACCESS:    7035661  HIT:    6941333  MISS:      94328
cpu0_L1D RFO       ACCESS:    5391569  HIT:    5363562  MISS:      28007
cpu0_L1D PREFETCH  ACCESS:          0  HIT:          0  MISS:          0
cpu0_L1D WRITEBACK ACCESS:          0  HIT:          0  MISS:          0
cpu0_L2C TOTAL     ACCESS:     180603  HIT:     179509  MISS:       1094
cpu0_L2C LOAD      ACCESS:     104715  HIT:     103910  MISS:        805
cpu0_L2C RFO       ACCESS:      28007  HIT:      27718  MISS:        289
cpu0_L2C PREFETCH  ACCESS:          0  HIT:          0  MISS:          0
cpu0_L2C WRITEBACK ACCESS:      47783  HIT:      47783  MISS:          0
LLC TOTAL     ACCESS:       1132  HIT:        148  MISS:        984
LLC LOAD      ACCESS:        805  HIT:        109  MISS:        696
LLC RFO       ACCESS:        289  HIT:          1  MISS:        288
LLC PREFETCH  ACCESS:          0  HIT:          0  MISS:          0
LLC WRITEBACK ACCESS:         38  HIT:         38  MISS:          0
Heartbeat CPU 0 instructions: 100000001 cycles: 63325305 heartbeat IPC: 0.985205 cumulative IPC: 0.987645 (Simulation time: 0 hr 33 min 50 sec) 

Region of Interest Statistics
cpu0_DTLB TOTAL     ACCESS:    9794676  HIT:    9756820  MISS:      37856
cpu0_DTLB LOAD      ACCESS:    6677033  HIT:    6641764  MISS:      35269
cpu0_DTLB RFO       ACCESS:    3117643  HIT:    3115056  MISS:       2587
cpu0_DTLB PREFETCH  ACCESS:          0  HIT:          0  MISS:          0
cpu0_DTLB WRITEBACK ACCESS:          0  HIT:          0  MISS:          0
cpu0_ITLB TOTAL     ACCESS:    5424375  HIT:    5424375  MISS:          0
cpu0_ITLB LOAD      ACCESS:    5424375  HIT:    5424375  MISS:          0
cpu0_ITLB RFO       ACCESS:          0  HIT:          0  MISS:          0
cpu0_ITLB PREFETCH  ACCESS:          0  HIT:          0  MISS:          0
cpu0_ITLB WRITEBACK ACCESS:          0  HIT:          0  MISS:          0
cpu0_L1I TOTAL     ACCESS:    2894256  HIT:    2883351  MISS:      10905
cpu0_L1I LOAD      ACCESS:    2894256  HIT:    2883351  MISS:      10905
cpu0_L1I RFO       ACCESS:          0  HIT:          0  MISS:          0
cpu0_L1I PREFETCH  ACCESS:          0  HIT:          0  MISS:          0
cpu0_L1I WRITEBACK ACCESS:          0  HIT:          0  MISS:          0
cpu0_STLB TOTAL     ACCESS:      37856  HIT:      37710  MISS:        146
cpu0_STLB LOAD      ACCESS:      35269  HIT:      35128  MISS:        141
cpu0_STLB RFO       ACCESS:       2587  HIT:       2582  MISS:          5
cpu0_STLB PREFETCH  ACCESS:          0  HIT:          0  MISS:          0
cpu0_STLB WRITEBACK ACCESS:          0  HIT:          0  MISS:          0
cpu0_L1D TOTAL     ACCESS:   12957428  HIT:   12832441  MISS:     124987
cpu0_L1D LOAD      ACCESS:    7331350  HIT:    7234950  MISS:      96400
cpu0_L1D RFO       ACCESS:    5625932  HIT:    5597444  MISS:      28488
cpu0_L1D PREFETCH  ACCESS:          0  HIT:          0  MISS:          0
cpu0_L1D WRITEBACK ACCESS:          0  HIT:          0  MISS:          0
cpu0_L2C TOTAL     ACCESS:     184338  HIT:     183229  MISS:       1109
cpu0_L2C LOAD      ACCESS:     107294  HIT:     106474  MISS:        820
cpu0_L2C RFO       ACCESS:      28488  HIT:      28199  MISS:        289
cpu0_L2C PREFETCH  ACCESS:          0  HIT:          0  MISS:          0
cpu0_L2C WRITEBACK ACCESS:      48457  HIT:      48457  MISS:          0
LLC TOTAL     ACCESS:       1149  HIT:        156  MISS:        993
LLC LOAD      ACCESS:        820  HIT:        115  MISS:        705
LLC RFO       ACCESS:        289  HIT:          1  MISS:        288
LLC PREFETCH  ACCESS:          0  HIT:          0  MISS:          0
LLC WRITEBACK ACCESS:         40  HIT:         40  MISS:          0
Heartbeat CPU 0 instructions: 102000003 cycles: 65373465 heartbeat IPC: 0.976487 cumulative IPC: 0.987211 (Simulation time: 0 hr 34 min 29 sec) 

Region of Interest Statistics
cpu0_DTLB TOTAL     ACCESS:   10193515  HIT:   10154177  MISS:      39338
cpu0_DTLB LOAD      ACCESS:    6948208  HIT:    6911552  MISS:      36656
cpu0_DTLB RFO       ACCESS:    3245307  HIT:    3242625  MISS:       2682
cpu0_DTLB PREFETCH  ACCESS:          0  HIT:          0  MISS:          0
cpu0_DTLB WRITEBACK ACCESS:          0  HIT:          0  MISS:          0
cpu0_ITLB TOTAL     ACCESS:    5645070  HIT:    5645070  MISS:          0
cpu0_ITLB LOAD      ACCESS:    5645070  HIT:    5645070  MISS:          0
cpu0_ITLB RFO       ACCESS:          0  HIT:          0  MISS:          0
cpu0_ITLB PREFETCH  ACCESS:          0  HIT:          0  MISS:          0
cpu0_ITLB WRITEBACK ACCESS:          0  HIT:          0  MISS:          0
cpu0_L1I TOTAL     ACCESS:    3011657  HIT:    3000243  MISS:      11414
cpu0_L1I LOAD      ACCESS:    3011657  HIT:    3000243  MISS:      11414
cpu0_L1I RFO       ACCESS:          0  HIT:          0  MISS:          0
cpu0_L1I PREFETCH  ACCESS:          0  HIT:          0  MISS:          0
cpu0_L1I WRITEBACK ACCESS:          0  HIT:          0  MISS:          0
cpu0_STLB TOTAL     ACCESS:      39338  HIT:      39186  MISS:        152
cpu0_STLB LOAD      ACCESS:      36656  HIT:      36510  MISS:        146
cpu0_STLB RFO       ACCESS:       2682  HIT:       2676  MISS:          6
cpu0_STLB PREFETCH  ACCESS:          0  HIT:          0  MISS:          0
cpu0_STLB WRITEBACK ACCESS:          0  HIT:          0  MISS:          0
cpu0_L1D TOTAL     ACCESS:   13486978  HIT:   13359148  MISS:     127830
cpu0_L1D LOAD      ACCESS:    7628347  HIT:    7529671  MISS:      98676
cpu0_L1D RFO       ACCESS:    5858479  HIT:    5829425  MISS:      29054
cpu0_L1D PREFETCH  ACCESS:          0  HIT:          0  MISS:          0
cpu0_L1D WRITEBACK ACCESS:          0  HIT:          0  MISS:          0
cpu0_L2C TOTAL     ACCESS:     188476  HIT:     187313  MISS:       1163
cpu0_L2C LOAD      ACCESS:     110079  HIT:     109242  MISS:        837
cpu0_L2C RFO       ACCESS:      29054  HIT:      28728  MISS:        326
cpu0_L2C PREFETCH  ACCESS:          0  HIT:          0  MISS:          0
cpu0_L2C WRITEBACK ACCESS:      49243  HIT:      49243  MISS:          0
LLC TOTAL     ACCESS:       1207  HIT:        167  MISS:       1040
LLC LOAD      ACCESS:        837  HIT:        122  MISS:        715
LLC RFO       ACCESS:        326  HIT:          1  MISS:        325
LLC PREFETCH  ACCESS:          0  HIT:          0  MISS:          0
LLC WRITEBACK ACCESS:         44  HIT:         44  MISS:          0
Heartbeat CPU 0 instructions: 104000001 cycles: 67403131 heartbeat IPC: 0.985383 cumulative IPC: 0.987143 (Simulation time: 0 hr 35 min 6 sec) 

Region of Interest Statistics
cpu0_DTLB TOTAL     ACCESS:   10593248  HIT:   10552487  MISS:      40761
cpu0_DTLB LOAD      ACCESS:    7219679  HIT:    7181675  MISS:      38004
cpu0_DTLB RFO       ACCESS:    3373569  HIT:    3370812  MISS:       2757
cpu0_DTLB PREFETCH  ACCESS:          0  HIT:          0  MISS:          0
cpu0_DTLB WRITEBACK ACCESS:          0  HIT:          0  MISS:          0
cpu0_ITLB TOTAL     ACCESS:    5864485  HIT:    5864485  MISS:          0
cpu0_ITLB LOAD      ACCESS:    5864485  HIT:    5864485  MISS:          0
cpu0_ITLB RFO       ACCESS:          0  HIT:          0  MISS:          0
cpu0_ITLB PREFETCH  ACCESS:          0  HIT:          0  MISS:          0
cpu0_ITLB WRITEBACK ACCESS:          0  HIT:          0  MISS:          0
cpu0_L1I TOTAL     ACCESS:    3129775  HIT:    3117868  MISS:      11907
cpu0_L1I LOAD      ACCESS:    3129775  HIT:    3117868  MISS:      11907
cpu0_L1I RFO       ACCESS:          0  HIT:          0  MISS:          0
cpu0_L1I PREFETCH  ACCESS:          0  HIT:          0  MISS:          0
cpu0_L1I WRITEBACK ACCESS:          0  HIT:          0  MISS:          0
cpu0_STLB TOTAL     ACCESS:      40761  HIT:      40608  MISS:        153
cpu0_STLB LOAD      ACCESS:      38004  HIT:      37857  MISS:        147
cpu0_STLB RFO       ACCESS:       2757  HIT:       2751  MISS:          6
cpu0_STLB PREFETCH  ACCESS:          0  HIT:          0  MISS:          0
cpu0_STLB WRITEBACK ACCESS:          0  HIT:          0  MISS:          0
cpu0_L1D TOTAL     ACCESS:   14019481  HIT:   13888951  MISS:     130530
cpu0_L1D LOAD      ACCESS:    7925997  HIT:    7825190  MISS:     100807
cpu0_L1D RFO       ACCESS:    6093331  HIT:    6063709  MISS:      29622
cpu0_L1D PREFETCH  ACCESS:          0  HIT:          0  MISS:          0
cpu0_L1D WRITEBACK ACCESS:          0  HIT:          0  MISS:          0
cpu0_L2C TOTAL     ACCESS:     192433  HIT:     191218  MISS:       1215
cpu0_L2C LOAD      ACCESS:     112703  HIT:     111851  MISS:        852
cpu0_L2C RFO       ACCESS:      29622  HIT:      29259  MISS:        363
cpu0_L2C PREFETCH  ACCESS:          0  HIT:          0  MISS:          0
cpu0_L2C WRITEBACK ACCESS:      50007  HIT:      50007  MISS:          0
LLC TOTAL     ACCESS:       1268  HIT:        182  MISS:       1086
LLC LOAD      ACCESS:        852  HIT:        128  MISS:        724
LLC RFO       ACCESS:        363  HIT:          1  MISS:        362
LLC PREFETCH  ACCESS:          0  HIT:          0  MISS:          0
LLC WRITEBACK ACCESS:         53  HIT:         53  MISS:          0
Heartbeat CPU 0 instructions: 106000000 cycles: 69422276 heartbeat IPC: 0.990518 cumulative IPC: 0.987264 (Simulation time: 0 hr 35 min 48 sec) 

Region of Interest Statistics
cpu0_DTLB TOTAL     ACCESS:   10990948  HIT:   10948780  MISS:      42168
cpu0_DTLB LOAD      ACCESS:    7490792  HIT:    7451458  MISS:      39334
cpu0_DTLB RFO       ACCESS:    3500156  HIT:    3497322  MISS:       2834
cpu0_DTLB PREFETCH  ACCESS:          0  HIT:          0  MISS:          0
cpu0_DTLB WRITEBACK ACCESS:          0  HIT:          0  MISS:          0
cpu0_ITLB TOTAL     ACCESS:    6085891  HIT:    6085891  MISS:          0
cpu0_ITLB LOAD      ACCESS:    6085891  HIT:    6085891  MISS:          0
cpu0_ITLB RFO       ACCESS:          0  HIT:          0  MISS:          0
cpu0_ITLB PREFETCH  ACCESS:          0  HIT:          0  MISS:          0
cpu0_ITLB WRITEBACK ACCESS:          0  HIT:          0  MISS:          0
cpu0_L1I TOTAL     ACCESS:    3246689  HIT:    3234323  MISS:      12366
cpu0_L1I LOAD      ACCESS:    3246689  HIT:    3234323  MISS:      12366
cpu0_L1I RFO       ACCESS:          0  HIT:          0  MISS:          0
cpu0_L1I PREFETCH  ACCESS:          0  HIT:          0  MISS:          0
cpu0_L1I WRITEBACK ACCESS:          0  HIT:          0  MISS:          0
cpu0_STLB TOTAL     ACCESS:      42168  HIT:      42009  MISS:        159
cpu0_STLB LOAD      ACCESS:      39334  HIT:      39182  MISS:        152
cpu0_STLB RFO       ACCESS:       2834  HIT:       2827  MISS:          7
cpu0_STLB PREFETCH  ACCESS:          0  HIT:          0  MISS:          0
cpu0_STLB WRITEBACK ACCESS:          0  HIT:          0  MISS:          0
cpu0_L1D TOTAL     ACCESS:   14549489  HIT:   14415976  MISS:     133513
cpu0_L1D LOAD      ACCESS:    8223928  HIT:    8120788  MISS:     103140
cpu0_L1D RFO       ACCESS:    6325402  HIT:    6295132  MISS:      30270
cpu0_L1D PREFETCH  ACCESS:          0  HIT:          0  MISS:          0
cpu0_L1D WRITEBACK ACCESS:          0  HIT:          0  MISS:          0
cpu0_L2C TOTAL     ACCESS:     196714  HIT:     195435  MISS:       1279
cpu0_L2C LOAD      ACCESS:     115492  HIT:     114613  MISS:        879
cpu0_L2C RFO       ACCESS:      30268  HIT:      29868  MISS:        400
cpu0_L2C PREFETCH  ACCESS:          0  HIT:          0  MISS:          0
[...]

ChampSim completed all CPUs

Region of Interest Statistics

CPU 0 cumulative IPC: 0.978847 instructions: 1500000000 cycles: 1532414620
cpu0_DTLB TOTAL     ACCESS:  299291699  HIT:  298335853  MISS:     955846
cpu0_DTLB LOAD      ACCESS:  202683665  HIT:  201792311  MISS:     891354
cpu0_DTLB RFO       ACCESS:   96608034  HIT:   96543542  MISS:      64492
cpu0_DTLB PREFETCH  ACCESS:          0  HIT:          0  MISS:          0
cpu0_DTLB WRITEBACK ACCESS:          0  HIT:          0  MISS:          0
cpu0_DTLB TRANSLATION ACCESS:          0  HIT:          0  MISS:          0
cpu0_DTLB PREFETCH  REQUESTED:          0  ISSUED:          0  USEFUL:          0  USELESS:          0
cpu0_DTLB AVERAGE MISS LATENCY: 9.26304 cycles
cpu0_ITLB TOTAL     ACCESS:  164480515  HIT:  164480035  MISS:        480
cpu0_ITLB LOAD      ACCESS:  164480515  HIT:  164480035  MISS:        480
cpu0_ITLB RFO       ACCESS:          0  HIT:          0  MISS:          0
cpu0_ITLB PREFETCH  ACCESS:          0  HIT:          0  MISS:          0
cpu0_ITLB WRITEBACK ACCESS:          0  HIT:          0  MISS:          0
cpu0_ITLB TRANSLATION ACCESS:          0  HIT:          0  MISS:          0
cpu0_ITLB PREFETCH  REQUESTED:          0  ISSUED:          0  USEFUL:          0  USELESS:          0
cpu0_ITLB AVERAGE MISS LATENCY: 30.5958 cycles
cpu0_L1I TOTAL     ACCESS:   87340883  HIT:   86985147  MISS:     355736
cpu0_L1I LOAD      ACCESS:   87340883  HIT:   86985147  MISS:     355736
cpu0_L1I RFO       ACCESS:          0  HIT:          0  MISS:          0
cpu0_L1I PREFETCH  ACCESS:          0  HIT:          0  MISS:          0
cpu0_L1I WRITEBACK ACCESS:          0  HIT:          0  MISS:          0
cpu0_L1I TRANSLATION ACCESS:          0  HIT:          0  MISS:          0
cpu0_L1I PREFETCH  REQUESTED:          0  ISSUED:          0  USEFUL:          0  USELESS:          0
cpu0_L1I AVERAGE MISS LATENCY: 14.0376 cycles
cpu0_STLB TOTAL     ACCESS:     956326  HIT:     954645  MISS:       1681
cpu0_STLB LOAD      ACCESS:     891834  HIT:     890534  MISS:       1300
cpu0_STLB RFO       ACCESS:      64492  HIT:      64111  MISS:        381
cpu0_STLB PREFETCH  ACCESS:          0  HIT:          0  MISS:          0
cpu0_STLB WRITEBACK ACCESS:          0  HIT:          0  MISS:          0
cpu0_STLB TRANSLATION ACCESS:          0  HIT:          0  MISS:          0
cpu0_STLB PREFETCH  REQUESTED:          0  ISSUED:          0  USEFUL:          0  USELESS:          0
cpu0_STLB AVERAGE MISS LATENCY: 155.632 cycles
cpu0_L1D TOTAL     ACCESS:  396937750  HIT:  393997710  MISS:    2940040
cpu0_L1D LOAD      ACCESS:  221990762  HIT:  219742159  MISS:    2248603
cpu0_L1D RFO       ACCESS:  174945309  HIT:  174254697  MISS:     690612
cpu0_L1D PREFETCH  ACCESS:          0  HIT:          0  MISS:          0
cpu0_L1D WRITEBACK ACCESS:          0  HIT:          0  MISS:          0
cpu0_L1D TRANSLATION ACCESS:       1679  HIT:        854  MISS:        825
cpu0_L1D PREFETCH  REQUESTED:          0  ISSUED:          0  USEFUL:          0  USELESS:          0
cpu0_L1D AVERAGE MISS LATENCY: 23.39 cycles
cpu0_L2C TOTAL     ACCESS:    4309330  HIT:    3938681  MISS:     370649
cpu0_L2C LOAD      ACCESS:    2604247  HIT:    2401014  MISS:     203233
cpu0_L2C RFO       ACCESS:     690458  HIT:     523380  MISS:     167078
cpu0_L2C PREFETCH  ACCESS:          0  HIT:          0  MISS:          0
cpu0_L2C WRITEBACK ACCESS:    1013800  HIT:    1013514  MISS:        286
cpu0_L2C TRANSLATION ACCESS:        825  HIT:        773  MISS:         52
cpu0_L2C PREFETCH  REQUESTED:          0  ISSUED:          0  USEFUL:          0  USELESS:          0
cpu0_L2C AVERAGE MISS LATENCY: 101.175 cycles
LLC TOTAL     ACCESS:     567572  HIT:     346937  MISS:     220635
LLC LOAD      ACCESS:     203233  HIT:     103774  MISS:      99459
LLC RFO       ACCESS:     167078  HIT:      96478  MISS:      70600
LLC PREFETCH  ACCESS:          0  HIT:          0  MISS:          0
LLC WRITEBACK ACCESS:     197209  HIT:     146661  MISS:      50548
LLC TRANSLATION ACCESS:         52  HIT:         24  MISS:         28
LLC PREFETCH  REQUESTED:          0  ISSUED:          0  USEFUL:          0  USELESS:          0
LLC AVERAGE MISS LATENCY: 134.714 cycles
~~~~~~~~~~Reuse Distance Profiler output~~~~~~~~~~
0	96546512	14183088
1	48059232	20490032
2	22937136	9477040
3	17391552	10731024
4	15031376	9312144
5	13659824	9326864
6	11402816	7270240
7	9151152	6422208
8	8216208	5764336
9	7448672	5600528
10	6150912	4559552
11	5778848	4201088
12	5999600	4753488
13	4843248	3780336
14	4745808	3590736
15	4557632	3283824
16	4634480	3640064
17	3891296	2634944
18	3686368	2588816
19	3095424	2435872
20	2579104	2060640
21	2465408	2078112
22	2352464	1933744
23	2287936	1832064
24	2149072	1670448
25	2017616	1632480
26	1905920	1507520
27	1673952	1346880
28	1599920	1200080
29	1557392	1192240
30	1366832	1076464
31	1426832	1073712
32	1254032	1020304
33	1129920	935456
34	1143920	967904
35	1202768	934576
36	1102560	883600
37	1004384	876352
38	910464	827072
39	902064	797040
40	914512	721888
41	795392	737536
42	801296	743376
43	784912	697232
44	853136	673328
45	793664	653152
46	707680	647856
47	715184	661376
48	685712	637280
49	725440	670784
50	654992	611712
51	688704	642928
52	685616	613712
53	661584	612080
54	658336	608096
55	672848	620832
56	702960	648496
57	680400	623040
58	704416	644288
59	669552	606544
60	667280	605392
61	683104	605488
62	714528	642944
63	740752	664912
64	1478128	1318800
66	1507744	1344608
68	1384752	1221632
70	1318800	1177104
72	1291392	1148096
74	1282896	1134400
76	1189632	1056160
78	1076064	962176
80	986800	887072
82	936288	842688
84	871152	788240
86	799056	721008
88	759984	683824
90	734528	652848
92	696912	612256
94	687136	599936
96	624096	545952
98	570736	496112
100	529376	458000
102	503136	437392
104	487808	421552
106	486384	424992
108	474608	416352
110	464352	412576
112	451712	402368
114	423904	381232
116	391120	354240
118	374912	340272
120	363104	327392
122	347312	313072
124	327600	294416
126	325664	292400
128	622288	550032
132	609760	539840
136	575568	514816
140	554752	497280
144	547136	497520
148	518448	473568
152	476672	429680
156	453264	408512
160	439744	392272
164	416672	366416
168	390016	335056
172	361328	309136
176	343872	298112
180	322784	284672
184	316192	277264
188	300864	258160
192	294160	251024
196	273696	236288
200	271376	235072
204	266272	234560
208	262128	230848
212	256736	225600
216	250256	218576
220	244304	216384
224	247376	219504
228	253168	222656
232	237808	210752
236	235232	205904
240	236320	207632
244	242512	211920
248	227840	198224
252	236048	206352
256	458176	390000
264	418512	353424
272	387728	334384
280	386080	328656
288	368448	313152
296	343488	292864
304	331120	278960
312	318384	264912
320	310336	255056
328	306784	255152
336	304576	252848
344	319248	268656
352	282784	234384
360	252288	207472
368	237920	195904
376	231968	187376
384	215024	176832
392	201104	164384
400	199616	163920
408	191520	155952
416	192256	155504
424	198256	160368
432	199184	157600
440	205696	162320
448	198144	154480
456	184496	140288
464	168336	133040
472	163328	127936
480	158480	121360
488	156128	122096
496	163248	127056
504	160464	126336
512	304592	239664
528	282944	218720
544	274960	213328
560	276416	215504
576	278736	219760
592	253360	197280
608	253712	202544
624	245696	193904
640	236400	185344
656	224688	178368
672	216144	174080
688	197648	157552
704	172080	140368
720	160464	129040
736	146768	120672
752	137152	111968
768	126496	103104
784	120672	99136
800	110768	90432
816	105856	87056
832	98720	80448
848	97616	79280
864	92816	73616
880	90944	70864
896	82496	65328
912	77760	61296
928	74000	59904
944	68800	55664
960	69248	53520
976	62640	49472
992	63536	51040
1008	66256	53216
1024	122112	96000
1056	114896	88240
1088	111136	82432
1120	101552	78688
1152	102400	79296
1184	98448	75680
1216	101344	77392
1248	98096	74672
1280	94256	74480
1312	89472	70832
1344	77184	60496
1376	74032	57520
1408	71392	53872
1440	64816	49232
1472	64400	49456
1504	64944	47968
1536	56672	40736
1568	50352	39072
1600	47856	36880
1632	48192	36528
1664	44752	32944
1696	45600	35200
1728	42048	31808
1760	38544	27888
1792	41376	29920
1824	42672	32176
1856	43152	31424
1888	40688	30336
1920	40928	31040
1952	41232	30304
1984	40704	28208
2016	45184	29072
2048	111344	75360
2112	130672	87088
2176	85168	49248
2240	66832	45856
2304	66432	43152
2368	62912	43888
2432	86256	62608
2496	99712	80832
2560	197856	178656
2624	209024	183760
2688	131920	116528
2752	65184	42240
2816	62720	34048
2880	48928	29952
2944	40160	22384
3008	36416	22752
3072	36384	20464
3136	31968	17472
3200	29424	17248
3264	36400	19856
3328	44464	30336
3392	90224	75680
3456	134048	120448
3520	131840	116208
3584	95856	84400
3648	40560	29824
3712	30208	16464
3776	33104	18688
3840	55440	42240
3904	80784	68160
3968	90816	79536
4032	110672	98960
4096	149280	123760
4224	58208	31088
4352	98608	70352
4480	97728	74608
4608	99264	76608
4736	128752	108832
4864	97952	79328
4992	103936	84032
5120	71008	52464
5248	95936	77824
5376	99472	84192
5504	63520	48976
5632	55776	41984
5760	44416	33024
5888	53328	41424
6016	77408	67120
6144	70464	61392
6272	36320	26976
6400	31472	21280
6528	38128	29152
6656	58480	50896
6784	36016	29696
6912	22304	16240
7040	22448	16080
7168	22176	16448
7296	26208	21024
7424	32912	28512
7552	22688	19008
7680	15104	10704
7808	16272	12016
7936	20064	16160
8064	16944	13280
8192	21920	14912
8448	20656	15168
8704	19360	14384
8960	14528	9856
9216	14688	10096
9472	12144	8800
9728	11440	8752
9984	11472	8368
10240	10016	7328
10496	8800	6432
10752	8176	6144
11008	8448	6416
11264	7824	5824
11520	7088	5248
11776	7472	5616
12032	7136	5296
12288	6112	4416
12544	6752	5056
12800	6048	4528
13056	6080	4464
13312	5424	4080
13568	5664	4112
13824	5488	3856
14080	5696	4176
14336	4752	3584
14592	4544	3408
14848	5712	4112
15104	5232	3856
15360	5248	3808
15616	4896	3712
15872	4544	3264
16128	4368	3504
16384	9984	7680
16896	8848	6576
17408	11024	8064
17920	9728	7168
18432	8032	6416
18944	8032	6528
19456	8352	6528
19968	8848	7088
20480	9504	7648
20992	10400	8688
21504	10608	8928
22016	10816	8976
22528	12432	10240
23040	12848	10848
23552	14448	12368
24064	15824	13600
24576	17552	15056
25088	22560	18960
25600	25360	21920
26112	29296	25344
26624	30288	26256
27136	38192	33280
27648	42544	37680
28160	51232	45168
28672	57488	50640
29184	65888	57728
29696	71568	62720
30208	79488	69616
30720	93504	80304
31232	100560	85952
31744	110160	94096
32256	124832	104208
32768	273312	226512
33792	306928	248592
34816	328272	259648
35840	347584	267376
36864	355408	273168
37888	330288	250688
38912	316912	239744
39936	288496	214800
40960	264384	195424
41984	239184	180576
43008	213408	158336
44032	186976	140112
45056	166112	125040
46080	150528	111328
47104	130336	97056
48128	118928	92496
49152	102704	78416
50176	104352	79952
51200	91616	70432
52224	81728	61680
53248	77408	59056
54272	71776	54560
55296	59408	45072
56320	62608	45888
57344	54784	39728
58368	45232	34256
59392	38864	28672
60416	32736	25408
61440	27456	21456
62464	26128	20016
63488	19088	14960
64512	17936	14176
65536	30448	24112
67584	21792	17680
69632	17136	15216
71680	16736	14768
73728	15264	14512
75776	23008	22016
77824	24720	23488
79872	23568	22480
81920	22416	21520
83968	20976	20320
86016	20896	19024
88064	19488	16816
90112	14592	10976
92160	12192	8352
94208	11680	7808
96256	11568	7264
98304	11024	6288
100352	10352	6288
102400	8576	6432
104448	6896	5872
106496	6736	5696
108544	6352	5760
110592	6032	5776
112640	6688	6560
114688	6752	6624
116736	6240	6000
118784	6768	6560
120832	6528	6304
122880	5920	5728
124928	5248	5152
126976	4784	4608
129024	5712	5600
131072	9360	9040
135168	8640	8400
139264	9104	8752
143360	8576	8256
147456	9120	8160
151552	10496	7936
155648	10848	8464
159744	9072	8208
163840	7600	7408
167936	7312	7168
172032	14208	13712
176128	47584	23760
180224	6784	6544
184320	19120	12512
188416	7312	6384
192512	7168	6048
196608	7424	6448
200704	6320	5360
204800	6464	5504
208896	6080	4944
212992	6912	5936
217088	5216	4864
221184	4800	4736
225280	4832	4720
229376	4752	4608
233472	14112	8560
237568	8720	8352
241664	4560	4528
245760	4208	4160
249856	4192	4112
253952	4544	4400
258048	4144	4016
262144	7792	7616
270336	8816	7456
278528	16016	13776
286720	9664	7056
294912	7776	6112
303104	6560	6432
311296	6416	6304
319488	6400	6352
327680	6352	6240
335872	4896	4816
344064	5632	5584
352256	5152	5072
360448	4880	4800
368640	4896	4832
376832	4704	4608
385024	4144	4128
393216	4736	4624
401408	4176	4064
409600	3216	3200
417792	4336	4256
425984	3712	3680
434176	3920	3856
442368	4288	4224
450560	3600	3488
458752	3840	3792
466944	3712	3696
475136	3632	3616
483328	3632	3616
491520	2896	2848
499712	3344	3312
507904	2832	2800
516096	2496	2448
524288	6304	6208
540672	5072	4864
557056	5392	5280
573440	4656	4576
589824	5040	4864
606208	4304	4192
622592	4800	4768
638976	4304	4208
655360	4000	3920
671744	3712	3696
688128	4464	4400
704512	3600	3552
720896	2832	2784
737280	4288	4240
753664	3568	3488
770048	3904	3776
786432	2992	2896
802816	2784	2736
819200	2416	2304
835584	2960	2944
851968	2480	2432
868352	2784	2704
884736	2624	2592
901120	2448	2448
917504	3120	3072
933888	2432	2384
950272	2672	2592
966656	2640	2624
983040	2080	2064
999424	2256	2224
1015808	1936	1920
1032192	2096	2064
1048576	3584	3520
1081344	3424	3312
1114112	5104	4176
1146880	3312	3280
1179648	3216	3040
1212416	3536	3424
1245184	2800	2736
1277952	2896	2880
1310720	3088	3008
1343488	2976	2960
1376256	2624	2528
1409024	3136	2992
1441792	2880	2832
1474560	2512	2480
1507328	1936	1936
1540096	1680	1664
1572864	2080	2016
1605632	1984	1920
1638400	1520	1504
1671168	2000	2000
1703936	1808	1808
1736704	2032	2000
1769472	1712	1664
1802240	1392	1344
1835008	1488	1472
1867776	1824	1824
1900544	1792	1776
1933312	1584	1552
1966080	1536	1504
1998848	1376	1376
2031616	1248	1232
2064384	1280	1264
2097152	2896	2864
2162688	2848	2848
2228224	2576	2544
2293760	2256	2208
2359296	2032	2000
2424832	2256	2176
2490368	2032	1968
2555904	1328	1312
2621440	1840	1776
2686976	1824	1792
2752512	1456	1456
2818048	2208	2160
2883584	1632	1616
2949120	2096	2080
3014656	2896	2896
3080192	2960	2880
3145728	3184	3136
3211264	3888	3728
3276800	2992	2960
3342336	2576	2560
3407872	1136	1136
3473408	1472	1312
3538944	7312	1584
3604480	7232	7232
3670016	576	576
3735552	1280	1216
3801088	1024	1024
3866624	992	976
3932160	736	736
3997696	704	656
4063232	832	816
4128768	624	624
4194304	1440	1360
4325376	1504	1456
4456448	1504	1456
4587520	1440	1408
4718592	1328	1296
4849664	1488	1488
4980736	768	752
5111808	912	848
5242880	1008	992
5373952	1104	1088
5505024	960	944
5636096	1008	976
5767168	896	896
5898240	752	736
6029312	864	816
6160384	704	560
6291456	656	656
6422528	688	688
6553600	608	528
6684672	624	624
6815744	416	416
6946816	672	656
7077888	448	416
7208960	416	416
7340032	880	848
7471104	608	592
7602176	544	544
7733248	688	688
7864320	528	528
7995392	640	624
8126464	752	752
8257536	464	448
8388608	976	880
8650752	672	624
8912896	848	848
9175040	656	608
9437184	608	592
9699328	656	624
9961472	512	512
10223616	528	480
10485760	704	688
10747904	400	384
11010048	576	576
11272192	576	496
11534336	592	576
11796480	704	704
12058624	416	416
12320768	496	480
12582912	368	352
12845056	224	192
13107200	304	224
13369344	288	288
13631488	160	160
13893632	544	496
14155776	336	208
14417920	352	336
14680064	240	240
14942208	304	288
15204352	176	160
15466496	112	80
15728640	176	176
15990784	432	352
16252928	656	528
16515072	208	176
16777216	544	528
17301504	384	208
17825792	576	544
18350080	496	384
18874368	544	464
19398656	448	368
19922944	464	368
20447232	352	320
20971520	288	288
21495808	320	240
22020096	640	640
22544384	240	224
23068672	128	128
23592960	304	240
24117248	192	192
24641536	352	352
25165824	224	160
25690112	272	224
26214400	192	192
26738688	176	176
27262976	144	144
27787264	256	224
28311552	224	160
28835840	192	192
29360128	272	272
29884416	304	304
30408704	112	112
30932992	208	160
31457280	96	96
31981568	80	80
32505856	128	128
33030144	160	80
33554432	176	176
34603008	368	368
35651584	192	192
36700160	96	96
37748736	288	288
38797312	192	144
39845888	240	176
40894464	80	80
41943040	272	192
42991616	224	208
44040192	192	112
45088768	64	64
46137344	240	224
47185920	176	48
48234496	144	144
49283072	288	288
50331648	80	48
51380224	96	64
52428800	128	96
53477376	112	64
54525952	64	64
55574528	80	80
56623104	96	48
57671680	16	16
58720256	32	32
59768832	32	32
60817408	0	0
61865984	32	16
62914560	128	80
63963136	32	32
65011712	32	32
66060288	32	32
67108864	256	256
69206016	64	48
71303168	160	112
73400320	96	48
75497472	64	32
77594624	48	16
79691776	176	80
81788928	9296	1808
83886080	59328	23632
85983232	96	96
88080384	6896	304
90177536	96	96
92274688	48	48
94371840	48	48
96468992	144	144
98566144	96	96
100663296	16	16
102760448	48	48
104857600	32	32
106954752	16	16
109051904	80	80
111149056	32	32
113246208	48	16
115343360	80	64
117440512	80	16
119537664	32	0
121634816	64	16
123731968	32	16
125829120	96	0
127926272	64	0
130023424	64	64
132120576	16	16
134217728	160	48
138412032	160	80
142606336	112	0
146800640	128	16
150994944	176	16
155189248	96	0
159383552	128	0
163577856	0	0
167772160	448	16
171966464	0	0
176160768	64	64
180355072	32	32
184549376	0	0
188743680	0	0
192937984	96	16
197132288	64	64
201326592	192	32
205520896	48	0
209715200	48	0
213909504	96	0
218103808	144	16
222298112	128	0
226492416	128	0
230686720	32	0
234881024	176	0
239075328	64	0
243269632	288	0
247463936	112	16
251658240	752	0
255852544	624	0
260046848	0	0
264241152	0	0
268435456	0	0
276824064	208	16
285212672	192	0
293601280	240	0
301989888	144	16
310378496	112	0
318767104	160	0
327155712	224	0
335544320	768	0
343932928	0	0
352321536	0	0
360710144	0	0
369098752	0	0
377487360	0	0
385875968	0	0
394264576	0	0
402653184	0	0
411041792	0	0
419430400	0	0
427819008	0	0
436207616	0	0
444596224	0	0
452984832	0	0
461373440	0	0
469762048	0	0
478150656	0	0
486539264	0	0
494927872	0	0
503316480	0	0
511705088	0	0
520093696	0	0
528482304	0	0
536870912	0	0
553648128	0	0
570425344	0	0
587202560	0	0
603979776	0	0
620756992	0	0
637534208	0	0
654311424	0	0
671088640	0	0
687865856	0	0
704643072	0	0
721420288	0	0
738197504	0	0
754974720	0	0
771751936	0	0
788529152	0	0
805306368	0	0
822083584	0	0
838860800	0	0
855638016	0	0
872415232	0	0
889192448	0	0
905969664	0	0
922746880	0	0
939524096	0	0
956301312	0	0
973078528	0	0
989855744	0	0
1006632960	0	0
1023410176	0	0
1040187392	0	0
1056964608	0	0
1073741824	0	0
1107296256	0	0
1140850688	0	0
1174405120	0	0
1207959552	0	0
1241513984	0	0
1275068416	0	0
1308622848	0	0
1342177280	0	0
1375731712	0	0
1409286144	0	0
1442840576	0	0
1476395008	0	0
1509949440	0	0
1543503872	0	0
1577058304	0	0
1610612736	0	0
1644167168	0	0
1677721600	0	0
1711276032	0	0
1744830464	0	0
1778384896	0	0
1811939328	0	0
1845493760	0	0
1879048192	0	0
1912602624	0	0
1946157056	0	0
1979711488	0	0
2013265920	0	0
2046820352	0	0
2080374784	0	0
2113929216	0	0
2147483648	0	0
2214592512	0	0
2281701376	0	0
2348810240	0	0
2415919104	0	0
2483027968	0	0
2550136832	0	0
2617245696	0	0
2684354560	0	0
2751463424	0	0
2818572288	0	0
2885681152	0	0
2952790016	0	0
3019898880	0	0
3087007744	0	0
3154116608	0	0
3221225472	0	0
3288334336	0	0
3355443200	0	0
3422552064	0	0
3489660928	0	0
3556769792	0	0
3623878656	0	0
3690987520	0	0
3758096384	0	0
3825205248	0	0
3892314112	0	0
3959422976	0	0
4026531840	0	0
4093640704	0	0
4160749568	0	0
4227858432	0	0
~~~~~~~~~~Reuse Distance Profiler output end~~~~~~~~~~

Sampler size:2357

DRAM Statistics
 CHANNEL 0
 RQ ROW_BUFFER_HIT:      19940  ROW_BUFFER_MISS:     149997
 DBUS AVG_CONGESTED_CYCLE:    3.95322
 WQ ROW_BUFFER_HIT:      14149  ROW_BUFFER_MISS:      79564  FULL:          0


CPU 0 Branch Prediction Accuracy: 85.8306% MPKI: 23.931 Average ROB Occupancy at Mispredict: 19.421
Branch type MPKI
BRANCH_DIRECT_JUMP: 9.53333e-05
BRANCH_INDIRECT: 0.0019
BRANCH_CONDITIONAL: 23.9283
BRANCH_DIRECT_CALL: 0.000200667
BRANCH_INDIRECT_CALL: 0.000178667
BRANCH_RETURN: 0.000319333

