
*** ChampSim Multicore Out-of-Order Simulator ***

Warmup Instructions: 50000000
Simulation Instructions: 1500000000
Number of CPUs: 1
Off-chip DRAM Size: 4 GiB Channels: 1 Width: 64-bit Data Rate: 3200 MT/s

VirtualMemory physical capacity: 8588881920 num_ppages: 2096895
VirtualMemory page size: 4096 log2_page_size: 12

CPU 0 runs /s/traces/champsim_traces/644.nab_s-12521B.champsimtrace.xz
CPU 0 Bimodal branch predictor
Basic BTB sets: 1024 ways: 8 indirect buffer size: 4096 RAS size: 64
Initializing LRU.
Initializing LRU.
Initializing LRU.
Initializing LRU.
Initializing rdLRU.
Initializing LRU.
Heartbeat CPU 0 instructions: 2000000 cycles: 587024 heartbeat IPC: 3.40702 cumulative IPC: 3.40702 (Simulation time: 0 hr 0 min 54 sec) 
Heartbeat CPU 0 instructions: 4000002 cycles: 1173934 heartbeat IPC: 3.40768 cumulative IPC: 3.40735 (Simulation time: 0 hr 1 min 44 sec) 
Heartbeat CPU 0 instructions: 6000000 cycles: 1760795 heartbeat IPC: 3.40796 cumulative IPC: 3.40755 (Simulation time: 0 hr 2 min 37 sec) 
Heartbeat CPU 0 instructions: 8000003 cycles: 2347602 heartbeat IPC: 3.40828 cumulative IPC: 3.40773 (Simulation time: 0 hr 3 min 27 sec) 
Heartbeat CPU 0 instructions: 10000002 cycles: 2934347 heartbeat IPC: 3.40863 cumulative IPC: 3.40791 (Simulation time: 0 hr 4 min 17 sec) 
Heartbeat CPU 0 instructions: 12000002 cycles: 3521091 heartbeat IPC: 3.40864 cumulative IPC: 3.40804 (Simulation time: 0 hr 5 min 9 sec) 
Heartbeat CPU 0 instructions: 14000003 cycles: 4107863 heartbeat IPC: 3.40848 cumulative IPC: 3.4081 (Simulation time: 0 hr 5 min 58 sec) 
Heartbeat CPU 0 instructions: 16000004 cycles: 4694731 heartbeat IPC: 3.40792 cumulative IPC: 3.40808 (Simulation time: 0 hr 6 min 45 sec) 
Heartbeat CPU 0 instructions: 18000001 cycles: 5281584 heartbeat IPC: 3.408 cumulative IPC: 3.40807 (Simulation time: 0 hr 7 min 32 sec) 
Heartbeat CPU 0 instructions: 20000000 cycles: 5868388 heartbeat IPC: 3.40829 cumulative IPC: 3.40809 (Simulation time: 0 hr 8 min 21 sec) 
Heartbeat CPU 0 instructions: 22000002 cycles: 6455168 heartbeat IPC: 3.40844 cumulative IPC: 3.40812 (Simulation time: 0 hr 9 min 7 sec) 
Heartbeat CPU 0 instructions: 24000004 cycles: 7042074 heartbeat IPC: 3.4077 cumulative IPC: 3.40809 (Simulation time: 0 hr 9 min 57 sec) 
Heartbeat CPU 0 instructions: 26000001 cycles: 7628990 heartbeat IPC: 3.40764 cumulative IPC: 3.40805 (Simulation time: 0 hr 10 min 48 sec) 
Heartbeat CPU 0 instructions: 28000000 cycles: 8215888 heartbeat IPC: 3.40775 cumulative IPC: 3.40803 (Simulation time: 0 hr 11 min 39 sec) 
Heartbeat CPU 0 instructions: 30000003 cycles: 8802626 heartbeat IPC: 3.40868 cumulative IPC: 3.40807 (Simulation time: 0 hr 12 min 30 sec) 
Heartbeat CPU 0 instructions: 32000004 cycles: 9389080 heartbeat IPC: 3.41033 cumulative IPC: 3.40822 (Simulation time: 0 hr 13 min 21 sec) 
Heartbeat CPU 0 instructions: 34000002 cycles: 9975578 heartbeat IPC: 3.41007 cumulative IPC: 3.40832 (Simulation time: 0 hr 14 min 12 sec) 
Heartbeat CPU 0 instructions: 36000003 cycles: 10562556 heartbeat IPC: 3.40728 cumulative IPC: 3.40827 (Simulation time: 0 hr 15 min 4 sec) 
Heartbeat CPU 0 instructions: 38000001 cycles: 11149508 heartbeat IPC: 3.40743 cumulative IPC: 3.40822 (Simulation time: 0 hr 15 min 53 sec) 
Heartbeat CPU 0 instructions: 40000002 cycles: 11736455 heartbeat IPC: 3.40746 cumulative IPC: 3.40818 (Simulation time: 0 hr 16 min 44 sec) 
Heartbeat CPU 0 instructions: 42000002 cycles: 12323347 heartbeat IPC: 3.40778 cumulative IPC: 3.40817 (Simulation time: 0 hr 17 min 46 sec) 
Heartbeat CPU 0 instructions: 44000000 cycles: 12910222 heartbeat IPC: 3.40788 cumulative IPC: 3.40815 (Simulation time: 0 hr 18 min 43 sec) 
Heartbeat CPU 0 instructions: 46000003 cycles: 13497130 heartbeat IPC: 3.40769 cumulative IPC: 3.40813 (Simulation time: 0 hr 19 min 46 sec) 
Heartbeat CPU 0 instructions: 48000003 cycles: 14084092 heartbeat IPC: 3.40738 cumulative IPC: 3.4081 (Simulation time: 0 hr 20 min 50 sec) 
Heartbeat CPU 0 instructions: 50000000 cycles: 14671041 heartbeat IPC: 3.40745 cumulative IPC: 3.40807 (Simulation time: 0 hr 21 min 49 sec) 

Warmup complete CPU 0 instructions: 50000005 cycles: 14671042 (Simulation time: 0 hr 21 min 49 sec) 

Heartbeat CPU 0 instructions: 52000003 cycles: 15700649 heartbeat IPC: 1.94249 cumulative IPC: 1.94249 (Simulation time: 0 hr 23 min 7 sec) 

Region of Interest Statistics
cpu0_DTLB TOTAL     ACCESS:     421480  HIT:     421336  MISS:        144
cpu0_DTLB LOAD      ACCESS:     402980  HIT:     402836  MISS:        144
cpu0_DTLB RFO       ACCESS:      18500  HIT:      18500  MISS:          0
cpu0_DTLB PREFETCH  ACCESS:          0  HIT:          0  MISS:          0
cpu0_DTLB WRITEBACK ACCESS:          0  HIT:          0  MISS:          0
cpu0_ITLB TOTAL     ACCESS:       1477  HIT:       1477  MISS:          0
cpu0_ITLB LOAD      ACCESS:       1477  HIT:       1477  MISS:          0
cpu0_ITLB RFO       ACCESS:          0  HIT:          0  MISS:          0
cpu0_ITLB PREFETCH  ACCESS:          0  HIT:          0  MISS:          0
cpu0_ITLB WRITEBACK ACCESS:          0  HIT:          0  MISS:          0
cpu0_STLB TOTAL     ACCESS:        144  HIT:        108  MISS:         36
cpu0_STLB LOAD      ACCESS:        144  HIT:        108  MISS:         36
cpu0_STLB RFO       ACCESS:          0  HIT:          0  MISS:          0
cpu0_STLB PREFETCH  ACCESS:          0  HIT:          0  MISS:          0
cpu0_STLB WRITEBACK ACCESS:          0  HIT:          0  MISS:          0
cpu0_L1D TOTAL     ACCESS:     535254  HIT:     516604  MISS:      18650
cpu0_L1D LOAD      ACCESS:     479923  HIT:     461323  MISS:      18600
cpu0_L1D RFO       ACCESS:      55295  HIT:      55263  MISS:         32
cpu0_L1D PREFETCH  ACCESS:          0  HIT:          0  MISS:          0
cpu0_L1D WRITEBACK ACCESS:          0  HIT:          0  MISS:          0
cpu0_L2C TOTAL     ACCESS:      24876  HIT:      23655  MISS:       1221
cpu0_L2C LOAD      ACCESS:      18600  HIT:      17379  MISS:       1221
cpu0_L2C RFO       ACCESS:         32  HIT:         32  MISS:          0
cpu0_L2C PREFETCH  ACCESS:          0  HIT:          0  MISS:          0
cpu0_L2C WRITEBACK ACCESS:       6226  HIT:       6226  MISS:          0
LLC TOTAL     ACCESS:       1254  HIT:         38  MISS:       1216
LLC LOAD      ACCESS:       1221  HIT:         11  MISS:       1210
LLC RFO       ACCESS:          0  HIT:          0  MISS:          0
LLC PREFETCH  ACCESS:          0  HIT:          0  MISS:          0
LLC WRITEBACK ACCESS:         33  HIT:         27  MISS:          6
Heartbeat CPU 0 instructions: 54000002 cycles: 16767836 heartbeat IPC: 1.87408 cumulative IPC: 1.90767 (Simulation time: 0 hr 24 min 28 sec) 

Region of Interest Statistics
cpu0_DTLB TOTAL     ACCESS:     847269  HIT:     846826  MISS:        443
cpu0_DTLB LOAD      ACCESS:     810127  HIT:     809686  MISS:        441
cpu0_DTLB RFO       ACCESS:      37142  HIT:      37140  MISS:          2
cpu0_DTLB PREFETCH  ACCESS:          0  HIT:          0  MISS:          0
cpu0_DTLB WRITEBACK ACCESS:          0  HIT:          0  MISS:          0
cpu0_ITLB TOTAL     ACCESS:       5641  HIT:       5641  MISS:          0
cpu0_ITLB LOAD      ACCESS:       5641  HIT:       5641  MISS:          0
cpu0_ITLB RFO       ACCESS:          0  HIT:          0  MISS:          0
cpu0_ITLB PREFETCH  ACCESS:          0  HIT:          0  MISS:          0
cpu0_ITLB WRITEBACK ACCESS:          0  HIT:          0  MISS:          0
cpu0_STLB TOTAL     ACCESS:        443  HIT:        335  MISS:        108
cpu0_STLB LOAD      ACCESS:        441  HIT:        333  MISS:        108
cpu0_STLB RFO       ACCESS:          2  HIT:          2  MISS:          0
cpu0_STLB PREFETCH  ACCESS:          0  HIT:          0  MISS:          0
cpu0_STLB WRITEBACK ACCESS:          0  HIT:          0  MISS:          0
cpu0_L1D TOTAL     ACCESS:    1070190  HIT:    1048409  MISS:      21781
cpu0_L1D LOAD      ACCESS:     959061  HIT:     937356  MISS:      21705
cpu0_L1D RFO       ACCESS:     111021  HIT:     110964  MISS:         57
cpu0_L1D PREFETCH  ACCESS:          0  HIT:          0  MISS:          0
cpu0_L1D WRITEBACK ACCESS:          0  HIT:          0  MISS:          0
cpu0_L2C TOTAL     ACCESS:      28686  HIT:      26199  MISS:       2487
cpu0_L2C LOAD      ACCESS:      21704  HIT:      19217  MISS:       2487
cpu0_L2C RFO       ACCESS:         57  HIT:         57  MISS:          0
cpu0_L2C PREFETCH  ACCESS:          0  HIT:          0  MISS:          0
cpu0_L2C WRITEBACK ACCESS:       6906  HIT:       6906  MISS:          0
LLC TOTAL     ACCESS:       2544  HIT:         63  MISS:       2481
LLC LOAD      ACCESS:       2487  HIT:         13  MISS:       2474
LLC RFO       ACCESS:          0  HIT:          0  MISS:          0
LLC PREFETCH  ACCESS:          0  HIT:          0  MISS:          0
LLC WRITEBACK ACCESS:         57  HIT:         50  MISS:          7
Heartbeat CPU 0 instructions: 56000001 cycles: 17847243 heartbeat IPC: 1.85287 cumulative IPC: 1.88905 (Simulation time: 0 hr 25 min 50 sec) 

Region of Interest Statistics
cpu0_DTLB TOTAL     ACCESS:    1275350  HIT:    1274671  MISS:        679
cpu0_DTLB LOAD      ACCESS:    1219458  HIT:    1218782  MISS:        676
cpu0_DTLB RFO       ACCESS:      55892  HIT:      55889  MISS:          3
cpu0_DTLB PREFETCH  ACCESS:          0  HIT:          0  MISS:          0
cpu0_DTLB WRITEBACK ACCESS:          0  HIT:          0  MISS:          0
cpu0_ITLB TOTAL     ACCESS:      10592  HIT:      10592  MISS:          0
cpu0_ITLB LOAD      ACCESS:      10592  HIT:      10592  MISS:          0
cpu0_ITLB RFO       ACCESS:          0  HIT:          0  MISS:          0
cpu0_ITLB PREFETCH  ACCESS:          0  HIT:          0  MISS:          0
cpu0_ITLB WRITEBACK ACCESS:          0  HIT:          0  MISS:          0
cpu0_STLB TOTAL     ACCESS:        679  HIT:        485  MISS:        194
cpu0_STLB LOAD      ACCESS:        676  HIT:        482  MISS:        194
cpu0_STLB RFO       ACCESS:          3  HIT:          3  MISS:          0
cpu0_STLB PREFETCH  ACCESS:          0  HIT:          0  MISS:          0
cpu0_STLB WRITEBACK ACCESS:          0  HIT:          0  MISS:          0
cpu0_L1D TOTAL     ACCESS:    1605001  HIT:    1581537  MISS:      23464
cpu0_L1D LOAD      ACCESS:    1437872  HIT:    1414488  MISS:      23384
cpu0_L1D RFO       ACCESS:     166935  HIT:     166875  MISS:         60
cpu0_L1D PREFETCH  ACCESS:          0  HIT:          0  MISS:          0
cpu0_L1D WRITEBACK ACCESS:          0  HIT:          0  MISS:          0
cpu0_L2C TOTAL     ACCESS:      30530  HIT:      26728  MISS:       3802
cpu0_L2C LOAD      ACCESS:      23383  HIT:      19581  MISS:       3802
cpu0_L2C RFO       ACCESS:         60  HIT:         60  MISS:          0
cpu0_L2C PREFETCH  ACCESS:          0  HIT:          0  MISS:          0
cpu0_L2C WRITEBACK ACCESS:       7067  HIT:       7067  MISS:          0
LLC TOTAL     ACCESS:       3900  HIT:        106  MISS:       3794
LLC LOAD      ACCESS:       3802  HIT:         22  MISS:       3780
LLC RFO       ACCESS:          0  HIT:          0  MISS:          0
LLC PREFETCH  ACCESS:          0  HIT:          0  MISS:          0
LLC WRITEBACK ACCESS:         98  HIT:         84  MISS:         14
Heartbeat CPU 0 instructions: 58000000 cycles: 18918524 heartbeat IPC: 1.86692 cumulative IPC: 1.88347 (Simulation time: 0 hr 27 min 7 sec) 

Region of Interest Statistics
cpu0_DTLB TOTAL     ACCESS:    1700757  HIT:    1699971  MISS:        786
cpu0_DTLB LOAD      ACCESS:    1626176  HIT:    1625394  MISS:        782
cpu0_DTLB RFO       ACCESS:      74581  HIT:      74577  MISS:          4
cpu0_DTLB PREFETCH  ACCESS:          0  HIT:          0  MISS:          0
cpu0_DTLB WRITEBACK ACCESS:          0  HIT:          0  MISS:          0
cpu0_ITLB TOTAL     ACCESS:      15115  HIT:      15115  MISS:          0
cpu0_ITLB LOAD      ACCESS:      15115  HIT:      15115  MISS:          0
cpu0_ITLB RFO       ACCESS:          0  HIT:          0  MISS:          0
cpu0_ITLB PREFETCH  ACCESS:          0  HIT:          0  MISS:          0
cpu0_ITLB WRITEBACK ACCESS:          0  HIT:          0  MISS:          0
cpu0_STLB TOTAL     ACCESS:        786  HIT:        513  MISS:        273
cpu0_STLB LOAD      ACCESS:        782  HIT:        509  MISS:        273
cpu0_STLB RFO       ACCESS:          4  HIT:          4  MISS:          0
cpu0_STLB PREFETCH  ACCESS:          0  HIT:          0  MISS:          0
cpu0_STLB WRITEBACK ACCESS:          0  HIT:          0  MISS:          0
cpu0_L1D TOTAL     ACCESS:    2139910  HIT:    2114405  MISS:      25505
cpu0_L1D LOAD      ACCESS:    1916863  HIT:    1891443  MISS:      25420
cpu0_L1D RFO       ACCESS:     222774  HIT:     222712  MISS:         62
cpu0_L1D PREFETCH  ACCESS:          0  HIT:          0  MISS:          0
cpu0_L1D WRITEBACK ACCESS:          0  HIT:          0  MISS:          0
cpu0_L2C TOTAL     ACCESS:      32796  HIT:      27689  MISS:       5107
cpu0_L2C LOAD      ACCESS:      25419  HIT:      20314  MISS:       5105
cpu0_L2C RFO       ACCESS:         62  HIT:         62  MISS:          0
cpu0_L2C PREFETCH  ACCESS:          0  HIT:          0  MISS:          0
cpu0_L2C WRITEBACK ACCESS:       7292  HIT:       7291  MISS:          1
LLC TOTAL     ACCESS:       5251  HIT:        169  MISS:       5082
LLC LOAD      ACCESS:       5105  HIT:         41  MISS:       5064
LLC RFO       ACCESS:          0  HIT:          0  MISS:          0
LLC PREFETCH  ACCESS:          0  HIT:          0  MISS:          0
LLC WRITEBACK ACCESS:        145  HIT:        127  MISS:         18
Heartbeat CPU 0 instructions: 60000000 cycles: 19977499 heartbeat IPC: 1.88862 cumulative IPC: 1.8845 (Simulation time: 0 hr 28 min 28 sec) 

Region of Interest Statistics
cpu0_DTLB TOTAL     ACCESS:    2127386  HIT:    2126498  MISS:        888
cpu0_DTLB LOAD      ACCESS:    2034190  HIT:    2033306  MISS:        884
cpu0_DTLB RFO       ACCESS:      93196  HIT:      93192  MISS:          4
cpu0_DTLB PREFETCH  ACCESS:          0  HIT:          0  MISS:          0
cpu0_DTLB WRITEBACK ACCESS:          0  HIT:          0  MISS:          0
cpu0_ITLB TOTAL     ACCESS:      18572  HIT:      18572  MISS:          0
cpu0_ITLB LOAD      ACCESS:      18572  HIT:      18572  MISS:          0
cpu0_ITLB RFO       ACCESS:          0  HIT:          0  MISS:          0
cpu0_ITLB PREFETCH  ACCESS:          0  HIT:          0  MISS:          0
cpu0_ITLB WRITEBACK ACCESS:          0  HIT:          0  MISS:          0
cpu0_STLB TOTAL     ACCESS:        888  HIT:        548  MISS:        340
cpu0_STLB LOAD      ACCESS:        884  HIT:        544  MISS:        340
cpu0_STLB RFO       ACCESS:          4  HIT:          4  MISS:          0
cpu0_STLB PREFETCH  ACCESS:          0  HIT:          0  MISS:          0
cpu0_STLB WRITEBACK ACCESS:          0  HIT:          0  MISS:          0
cpu0_L1D TOTAL     ACCESS:    2675123  HIT:    2646265  MISS:      28858
cpu0_L1D LOAD      ACCESS:    2396395  HIT:    2367626  MISS:      28769
cpu0_L1D RFO       ACCESS:     278388  HIT:     278323  MISS:         65
cpu0_L1D PREFETCH  ACCESS:          0  HIT:          0  MISS:          0
cpu0_L1D WRITEBACK ACCESS:          0  HIT:          0  MISS:          0
cpu0_L2C TOTAL     ACCESS:      36831  HIT:      30465  MISS:       6366
cpu0_L2C LOAD      ACCESS:      28767  HIT:      22404  MISS:       6363
cpu0_L2C RFO       ACCESS:         65  HIT:         65  MISS:          0
cpu0_L2C PREFETCH  ACCESS:          0  HIT:          0  MISS:          0
cpu0_L2C WRITEBACK ACCESS:       7975  HIT:       7973  MISS:          2
LLC TOTAL     ACCESS:       6566  HIT:        226  MISS:       6340
LLC LOAD      ACCESS:       6363  HIT:         55  MISS:       6308
LLC RFO       ACCESS:          0  HIT:          0  MISS:          0
LLC PREFETCH  ACCESS:          0  HIT:          0  MISS:          0
LLC WRITEBACK ACCESS:        202  HIT:        170  MISS:         32
Heartbeat CPU 0 instructions: 62000000 cycles: 21025874 heartbeat IPC: 1.90771 cumulative IPC: 1.88833 (Simulation time: 0 hr 29 min 45 sec) 

Region of Interest Statistics
cpu0_DTLB TOTAL     ACCESS:    2551480  HIT:    2550513  MISS:        967
cpu0_DTLB LOAD      ACCESS:    2439722  HIT:    2438760  MISS:        962
cpu0_DTLB RFO       ACCESS:     111758  HIT:     111753  MISS:          5
cpu0_DTLB PREFETCH  ACCESS:          0  HIT:          0  MISS:          0
cpu0_DTLB WRITEBACK ACCESS:          0  HIT:          0  MISS:          0
cpu0_ITLB TOTAL     ACCESS:      21158  HIT:      21158  MISS:          0
cpu0_ITLB LOAD      ACCESS:      21158  HIT:      21158  MISS:          0
cpu0_ITLB RFO       ACCESS:          0  HIT:          0  MISS:          0
cpu0_ITLB PREFETCH  ACCESS:          0  HIT:          0  MISS:          0
cpu0_ITLB WRITEBACK ACCESS:          0  HIT:          0  MISS:          0
cpu0_STLB TOTAL     ACCESS:        967  HIT:        571  MISS:        396
cpu0_STLB LOAD      ACCESS:        962  HIT:        566  MISS:        396
cpu0_STLB RFO       ACCESS:          5  HIT:          5  MISS:          0
cpu0_STLB PREFETCH  ACCESS:          0  HIT:          0  MISS:          0
cpu0_STLB WRITEBACK ACCESS:          0  HIT:          0  MISS:          0
cpu0_L1D TOTAL     ACCESS:    3210081  HIT:    3176509  MISS:      33572
cpu0_L1D LOAD      ACCESS:    2875798  HIT:    2842317  MISS:      33481
cpu0_L1D RFO       ACCESS:     333887  HIT:     333820  MISS:         67
cpu0_L1D PREFETCH  ACCESS:          0  HIT:          0  MISS:          0
cpu0_L1D WRITEBACK ACCESS:          0  HIT:          0  MISS:          0
cpu0_L2C TOTAL     ACCESS:      42776  HIT:      35161  MISS:       7615
cpu0_L2C LOAD      ACCESS:      33479  HIT:      25867  MISS:       7612
cpu0_L2C RFO       ACCESS:         67  HIT:         67  MISS:          0
cpu0_L2C PREFETCH  ACCESS:          0  HIT:          0  MISS:          0
cpu0_L2C WRITEBACK ACCESS:       9206  HIT:       9204  MISS:          2
LLC TOTAL     ACCESS:       7835  HIT:        258  MISS:       7577
LLC LOAD      ACCESS:       7612  HIT:         72  MISS:       7540
LLC RFO       ACCESS:          0  HIT:          0  MISS:          0
LLC PREFETCH  ACCESS:          0  HIT:          0  MISS:          0
LLC WRITEBACK ACCESS:        222  HIT:        185  MISS:         37
Heartbeat CPU 0 instructions: 64000000 cycles: 22083566 heartbeat IPC: 1.89091 cumulative IPC: 1.88869 (Simulation time: 0 hr 31 min 5 sec) 

Region of Interest Statistics
cpu0_DTLB TOTAL     ACCESS:    2976620  HIT:    2975512  MISS:       1108
cpu0_DTLB LOAD      ACCESS:    2846227  HIT:    2845124  MISS:       1103
cpu0_DTLB RFO       ACCESS:     130393  HIT:     130388  MISS:          5
cpu0_DTLB PREFETCH  ACCESS:          0  HIT:          0  MISS:          0
cpu0_DTLB WRITEBACK ACCESS:          0  HIT:          0  MISS:          0
cpu0_ITLB TOTAL     ACCESS:      24623  HIT:      24623  MISS:          0
cpu0_ITLB LOAD      ACCESS:      24623  HIT:      24623  MISS:          0
cpu0_ITLB RFO       ACCESS:          0  HIT:          0  MISS:          0
cpu0_ITLB PREFETCH  ACCESS:          0  HIT:          0  MISS:          0
cpu0_ITLB WRITEBACK ACCESS:          0  HIT:          0  MISS:          0
cpu0_STLB TOTAL     ACCESS:       1108  HIT:        646  MISS:        462
cpu0_STLB LOAD      ACCESS:       1103  HIT:        641  MISS:        462
cpu0_STLB RFO       ACCESS:          5  HIT:          5  MISS:          0
cpu0_STLB PREFETCH  ACCESS:          0  HIT:          0  MISS:          0
cpu0_STLB WRITEBACK ACCESS:          0  HIT:          0  MISS:          0
cpu0_L1D TOTAL     ACCESS:    3744830  HIT:    3706727  MISS:      38103
cpu0_L1D LOAD      ACCESS:    3354841  HIT:    3316841  MISS:      38000
cpu0_L1D RFO       ACCESS:     389527  HIT:     389451  MISS:         76
cpu0_L1D PREFETCH  ACCESS:          0  HIT:          0  MISS:          0
cpu0_L1D WRITEBACK ACCESS:          0  HIT:          0  MISS:          0
cpu0_L2C TOTAL     ACCESS:      48431  HIT:      39398  MISS:       9033
cpu0_L2C LOAD      ACCESS:      37998  HIT:      28975  MISS:       9023
cpu0_L2C RFO       ACCESS:         76  HIT:         76  MISS:          0
cpu0_L2C PREFETCH  ACCESS:          0  HIT:          0  MISS:          0
cpu0_L2C WRITEBACK ACCESS:      10330  HIT:      10321  MISS:          9
LLC TOTAL     ACCESS:       9278  HIT:        432  MISS:       8846
LLC LOAD      ACCESS:       9023  HIT:        220  MISS:       8803
LLC RFO       ACCESS:          0  HIT:          0  MISS:          0
LLC PREFETCH  ACCESS:          0  HIT:          0  MISS:          0
LLC WRITEBACK ACCESS:        254  HIT:        211  MISS:         43
Heartbeat CPU 0 instructions: 66000002 cycles: 23126382 heartbeat IPC: 1.91789 cumulative IPC: 1.89229 (Simulation time: 0 hr 32 min 30 sec) 

Region of Interest Statistics
cpu0_DTLB TOTAL     ACCESS:    3398451  HIT:    3397239  MISS:       1212
cpu0_DTLB LOAD      ACCESS:    3249524  HIT:    3248317  MISS:       1207
cpu0_DTLB RFO       ACCESS:     148927  HIT:     148922  MISS:          5
cpu0_DTLB PREFETCH  ACCESS:          0  HIT:          0  MISS:          0
cpu0_DTLB WRITEBACK ACCESS:          0  HIT:          0  MISS:          0
cpu0_ITLB TOTAL     ACCESS:      26619  HIT:      26619  MISS:          0
cpu0_ITLB LOAD      ACCESS:      26619  HIT:      26619  MISS:          0
cpu0_ITLB RFO       ACCESS:          0  HIT:          0  MISS:          0
cpu0_ITLB PREFETCH  ACCESS:          0  HIT:          0  MISS:          0
cpu0_ITLB WRITEBACK ACCESS:          0  HIT:          0  MISS:          0
cpu0_STLB TOTAL     ACCESS:       1212  HIT:        703  MISS:        509
cpu0_STLB LOAD      ACCESS:       1207  HIT:        698  MISS:        509
cpu0_STLB RFO       ACCESS:          5  HIT:          5  MISS:          0
cpu0_STLB PREFETCH  ACCESS:          0  HIT:          0  MISS:          0
cpu0_STLB WRITEBACK ACCESS:          0  HIT:          0  MISS:          0
cpu0_L1D TOTAL     ACCESS:    4279725  HIT:    4227774  MISS:      51951
cpu0_L1D LOAD      ACCESS:    3834321  HIT:    3782499  MISS:      51822
cpu0_L1D RFO       ACCESS:     444895  HIT:     444800  MISS:         95
cpu0_L1D PREFETCH  ACCESS:          0  HIT:          0  MISS:          0
cpu0_L1D WRITEBACK ACCESS:          0  HIT:          0  MISS:          0
cpu0_L2C TOTAL     ACCESS:      66694  HIT:      56335  MISS:      10359
cpu0_L2C LOAD      ACCESS:      51820  HIT:      41472  MISS:      10348
cpu0_L2C RFO       ACCESS:         95  HIT:         95  MISS:          0
cpu0_L2C PREFETCH  ACCESS:          0  HIT:          0  MISS:          0
cpu0_L2C WRITEBACK ACCESS:      14745  HIT:      14735  MISS:         10
LLC TOTAL     ACCESS:      10648  HIT:        565  MISS:      10083
LLC LOAD      ACCESS:      10348  HIT:        325  MISS:      10023
LLC RFO       ACCESS:          0  HIT:          0  MISS:          0
LLC PREFETCH  ACCESS:          0  HIT:          0  MISS:          0
LLC WRITEBACK ACCESS:        299  HIT:        239  MISS:         60
Heartbeat CPU 0 instructions: 68000003 cycles: 24169057 heartbeat IPC: 1.91814 cumulative IPC: 1.89513 (Simulation time: 0 hr 33 min 50 sec) 

Region of Interest Statistics
cpu0_DTLB TOTAL     ACCESS:    3821067  HIT:    3819754  MISS:       1313
cpu0_DTLB LOAD      ACCESS:    3653559  HIT:    3652252  MISS:       1307
cpu0_DTLB RFO       ACCESS:     167508  HIT:     167502  MISS:          6
cpu0_DTLB PREFETCH  ACCESS:          0  HIT:          0  MISS:          0
cpu0_DTLB WRITEBACK ACCESS:          0  HIT:          0  MISS:          0
cpu0_ITLB TOTAL     ACCESS:      28821  HIT:      28821  MISS:          0
cpu0_ITLB LOAD      ACCESS:      28821  HIT:      28821  MISS:          0
cpu0_ITLB RFO       ACCESS:          0  HIT:          0  MISS:          0
cpu0_ITLB PREFETCH  ACCESS:          0  HIT:          0  MISS:          0
cpu0_ITLB WRITEBACK ACCESS:          0  HIT:          0  MISS:          0
cpu0_STLB TOTAL     ACCESS:       1313  HIT:        754  MISS:        559
cpu0_STLB LOAD      ACCESS:       1307  HIT:        748  MISS:        559
cpu0_STLB RFO       ACCESS:          6  HIT:          6  MISS:          0
cpu0_STLB PREFETCH  ACCESS:          0  HIT:          0  MISS:          0
cpu0_STLB WRITEBACK ACCESS:          0  HIT:          0  MISS:          0
cpu0_L1D TOTAL     ACCESS:    4814569  HIT:    4750800  MISS:      63769
cpu0_L1D LOAD      ACCESS:    4313697  HIT:    4250081  MISS:      63616
cpu0_L1D RFO       ACCESS:     500313  HIT:     500207  MISS:        106
cpu0_L1D PREFETCH  ACCESS:          0  HIT:          0  MISS:          0
cpu0_L1D WRITEBACK ACCESS:          0  HIT:          0  MISS:          0
cpu0_L2C TOTAL     ACCESS:      81898  HIT:      70093  MISS:      11805
cpu0_L2C LOAD      ACCESS:      63614  HIT:      51821  MISS:      11793
cpu0_L2C RFO       ACCESS:        106  HIT:        106  MISS:          0
cpu0_L2C PREFETCH  ACCESS:          0  HIT:          0  MISS:          0
cpu0_L2C WRITEBACK ACCESS:      18131  HIT:      18121  MISS:         10
LLC TOTAL     ACCESS:      12113  HIT:        803  MISS:      11310
LLC LOAD      ACCESS:      11793  HIT:        546  MISS:      11247
LLC RFO       ACCESS:          0  HIT:          0  MISS:          0
LLC PREFETCH  ACCESS:          0  HIT:          0  MISS:          0
LLC WRITEBACK ACCESS:        318  HIT:        255  MISS:         63
Heartbeat CPU 0 instructions: 70000004 cycles: 25204198 heartbeat IPC: 1.9321 cumulative IPC: 1.89877 (Simulation time: 0 hr 35 min 10 sec) 

Region of Interest Statistics
cpu0_DTLB TOTAL     ACCESS:    4241444  HIT:    4239955  MISS:       1489
cpu0_DTLB LOAD      ACCESS:    4055383  HIT:    4053902  MISS:       1481
cpu0_DTLB RFO       ACCESS:     186061  HIT:     186053  MISS:          8
cpu0_DTLB PREFETCH  ACCESS:          0  HIT:          0  MISS:          0
cpu0_DTLB WRITEBACK ACCESS:          0  HIT:          0  MISS:          0
cpu0_ITLB TOTAL     ACCESS:      30642  HIT:      30642  MISS:          0
cpu0_ITLB LOAD      ACCESS:      30642  HIT:      30642  MISS:          0
cpu0_ITLB RFO       ACCESS:          0  HIT:          0  MISS:          0
cpu0_ITLB PREFETCH  ACCESS:          0  HIT:          0  MISS:          0
cpu0_ITLB WRITEBACK ACCESS:          0  HIT:          0  MISS:          0
cpu0_STLB TOTAL     ACCESS:       1489  HIT:        885  MISS:        604
cpu0_STLB LOAD      ACCESS:       1481  HIT:        877  MISS:        604
cpu0_STLB RFO       ACCESS:          8  HIT:          8  MISS:          0
cpu0_STLB PREFETCH  ACCESS:          0  HIT:          0  MISS:          0
cpu0_STLB WRITEBACK ACCESS:          0  HIT:          0  MISS:          0
cpu0_L1D TOTAL     ACCESS:    5349309  HIT:    5266244  MISS:      83065
cpu0_L1D LOAD      ACCESS:    4793070  HIT:    4710196  MISS:      82874
cpu0_L1D RFO       ACCESS:     555635  HIT:     555504  MISS:        131
cpu0_L1D PREFETCH  ACCESS:          0  HIT:          0  MISS:          0
cpu0_L1D WRITEBACK ACCESS:          0  HIT:          0  MISS:          0
cpu0_L2C TOTAL     ACCESS:     107648  HIT:      94585  MISS:      13063
cpu0_L2C LOAD      ACCESS:      82872  HIT:      69822  MISS:      13050
cpu0_L2C RFO       ACCESS:        131  HIT:        131  MISS:          0
cpu0_L2C PREFETCH  ACCESS:          0  HIT:          0  MISS:          0
cpu0_L2C WRITEBACK ACCESS:      24585  HIT:      24575  MISS:         10
LLC TOTAL     ACCESS:      13373  HIT:        854  MISS:      12519
LLC LOAD      ACCESS:      13050  HIT:        594  MISS:      12456
LLC RFO       ACCESS:          0  HIT:          0  MISS:          0
LLC PREFETCH  ACCESS:          0  HIT:          0  MISS:          0
LLC WRITEBACK ACCESS:        320  HIT:        257  MISS:         63
Heartbeat CPU 0 instructions: 72000004 cycles: 26242751 heartbeat IPC: 1.92576 cumulative IPC: 1.90119 (Simulation time: 0 hr 36 min 29 sec) 

Region of Interest Statistics
cpu0_DTLB TOTAL     ACCESS:    4662711  HIT:    4661055  MISS:       1656
cpu0_DTLB LOAD      ACCESS:    4458078  HIT:    4456431  MISS:       1647
cpu0_DTLB RFO       ACCESS:     204633  HIT:     204624  MISS:          9
cpu0_DTLB PREFETCH  ACCESS:          0  HIT:          0  MISS:          0
cpu0_DTLB WRITEBACK ACCESS:          0  HIT:          0  MISS:          0
cpu0_ITLB TOTAL     ACCESS:      32195  HIT:      32195  MISS:          0
cpu0_ITLB LOAD      ACCESS:      32195  HIT:      32195  MISS:          0
cpu0_ITLB RFO       ACCESS:          0  HIT:          0  MISS:          0
cpu0_ITLB PREFETCH  ACCESS:          0  HIT:          0  MISS:          0
cpu0_ITLB WRITEBACK ACCESS:          0  HIT:          0  MISS:          0
cpu0_STLB TOTAL     ACCESS:       1656  HIT:       1006  MISS:        650
cpu0_STLB LOAD      ACCESS:       1647  HIT:        997  MISS:        650
cpu0_STLB RFO       ACCESS:          9  HIT:          9  MISS:          0
cpu0_STLB PREFETCH  ACCESS:          0  HIT:          0  MISS:          0
cpu0_STLB WRITEBACK ACCESS:          0  HIT:          0  MISS:          0
cpu0_L1D TOTAL     ACCESS:    5883992  HIT:    5782299  MISS:     101693
cpu0_L1D LOAD      ACCESS:    5272391  HIT:    5170925  MISS:     101466
cpu0_L1D RFO       ACCESS:     610951  HIT:     610796  MISS:        155
cpu0_L1D PREFETCH  ACCESS:          0  HIT:          0  MISS:          0
cpu0_L1D WRITEBACK ACCESS:          0  HIT:          0  MISS:          0
cpu0_L2C TOTAL     ACCESS:     132357  HIT:     117961  MISS:      14396
cpu0_L2C LOAD      ACCESS:     101464  HIT:      87081  MISS:      14383
cpu0_L2C RFO       ACCESS:        155  HIT:        155  MISS:          0
cpu0_L2C PREFETCH  ACCESS:          0  HIT:          0  MISS:          0
cpu0_L2C WRITEBACK ACCESS:      30666  HIT:      30656  MISS:         10
LLC TOTAL     ACCESS:      14720  HIT:        971  MISS:      13749
LLC LOAD      ACCESS:      14383  HIT:        697  MISS:      13686
LLC RFO       ACCESS:          0  HIT:          0  MISS:          0
LLC PREFETCH  ACCESS:          0  HIT:          0  MISS:          0
LLC WRITEBACK ACCESS:        334  HIT:        271  MISS:         63
Heartbeat CPU 0 instructions: 74000000 cycles: 27275423 heartbeat IPC: 1.93672 cumulative IPC: 1.9041 (Simulation time: 0 hr 37 min 47 sec) 

Region of Interest Statistics
cpu0_DTLB TOTAL     ACCESS:    5085230  HIT:    5083442  MISS:       1788
cpu0_DTLB LOAD      ACCESS:    4862001  HIT:    4860224  MISS:       1777
cpu0_DTLB RFO       ACCESS:     223229  HIT:     223218  MISS:         11
cpu0_DTLB PREFETCH  ACCESS:          0  HIT:          0  MISS:          0
cpu0_DTLB WRITEBACK ACCESS:          0  HIT:          0  MISS:          0
cpu0_ITLB TOTAL     ACCESS:      33904  HIT:      33904  MISS:          0
cpu0_ITLB LOAD      ACCESS:      33904  HIT:      33904  MISS:          0
cpu0_ITLB RFO       ACCESS:          0  HIT:          0  MISS:          0
cpu0_ITLB PREFETCH  ACCESS:          0  HIT:          0  MISS:          0
cpu0_ITLB WRITEBACK ACCESS:          0  HIT:          0  MISS:          0
cpu0_STLB TOTAL     ACCESS:       1788  HIT:       1101  MISS:        687
cpu0_STLB LOAD      ACCESS:       1777  HIT:       1090  MISS:        687
cpu0_STLB RFO       ACCESS:         11  HIT:         11  MISS:          0
cpu0_STLB PREFETCH  ACCESS:          0  HIT:          0  MISS:          0
cpu0_STLB WRITEBACK ACCESS:          0  HIT:          0  MISS:          0
cpu0_L1D TOTAL     ACCESS:    6418567  HIT:    6297729  MISS:     120838
cpu0_L1D LOAD      ACCESS:    5751640  HIT:    5631076  MISS:     120564
cpu0_L1D RFO       ACCESS:     666240  HIT:     666055  MISS:        185
cpu0_L1D PREFETCH  ACCESS:          0  HIT:          0  MISS:          0
cpu0_L1D WRITEBACK ACCESS:          0  HIT:          0  MISS:          0
cpu0_L2C TOTAL     ACCESS:     157897  HIT:     142186  MISS:      15711
cpu0_L2C LOAD      ACCESS:     120562  HIT:     104864  MISS:      15698
cpu0_L2C RFO       ACCESS:        185  HIT:        185  MISS:          0
cpu0_L2C PREFETCH  ACCESS:          0  HIT:          0  MISS:          0
cpu0_L2C WRITEBACK ACCESS:      37061  HIT:      37051  MISS:         10
LLC TOTAL     ACCESS:      16074  HIT:       1093  MISS:      14981
LLC LOAD      ACCESS:      15698  HIT:        791  MISS:      14907
LLC RFO       ACCESS:          0  HIT:          0  MISS:          0
LLC PREFETCH  ACCESS:          0  HIT:          0  MISS:          0
LLC WRITEBACK ACCESS:        373  HIT:        299  MISS:         74
Heartbeat CPU 0 instructions: 76000001 cycles: 28310652 heartbeat IPC: 1.93194 cumulative IPC: 1.90621 (Simulation time: 0 hr 39 min 5 sec) 

Region of Interest Statistics
cpu0_DTLB TOTAL     ACCESS:    5508097  HIT:    5506173  MISS:       1924
cpu0_DTLB LOAD      ACCESS:    5266267  HIT:    5264356  MISS:       1911
cpu0_DTLB RFO       ACCESS:     241830  HIT:     241817  MISS:         13
cpu0_DTLB PREFETCH  ACCESS:          0  HIT:          0  MISS:          0
cpu0_DTLB WRITEBACK ACCESS:          0  HIT:          0  MISS:          0
cpu0_ITLB TOTAL     ACCESS:      35947  HIT:      35947  MISS:          0
cpu0_ITLB LOAD      ACCESS:      35947  HIT:      35947  MISS:          0
cpu0_ITLB RFO       ACCESS:          0  HIT:          0  MISS:          0
cpu0_ITLB PREFETCH  ACCESS:          0  HIT:          0  MISS:          0
cpu0_ITLB WRITEBACK ACCESS:          0  HIT:          0  MISS:          0
cpu0_STLB TOTAL     ACCESS:       1924  HIT:       1193  MISS:        731
cpu0_STLB LOAD      ACCESS:       1911  HIT:       1180  MISS:        731
cpu0_STLB RFO       ACCESS:         13  HIT:         13  MISS:          0
cpu0_STLB PREFETCH  ACCESS:          0  HIT:          0  MISS:          0
cpu0_STLB WRITEBACK ACCESS:          0  HIT:          0  MISS:          0
cpu0_L1D TOTAL     ACCESS:    6953192  HIT:    6819424  MISS:     133768
cpu0_L1D LOAD      ACCESS:    6230883  HIT:    6097446  MISS:     133437
cpu0_L1D RFO       ACCESS:     721578  HIT:     721355  MISS:        223
cpu0_L1D PREFETCH  ACCESS:          0  HIT:          0  MISS:          0
cpu0_L1D WRITEBACK ACCESS:          0  HIT:          0  MISS:          0
cpu0_L2C TOTAL     ACCESS:     175029  HIT:     158057  MISS:      16972
cpu0_L2C LOAD      ACCESS:     133434  HIT:     116475  MISS:      16959
cpu0_L2C RFO       ACCESS:        223  HIT:        223  MISS:          0
cpu0_L2C PREFETCH  ACCESS:          0  HIT:          0  MISS:          0
cpu0_L2C WRITEBACK ACCESS:      41264  HIT:      41254  MISS:         10
LLC TOTAL     ACCESS:      17383  HIT:       1177  MISS:      16206
LLC LOAD      ACCESS:      16959  HIT:        832  MISS:      16127
LLC RFO       ACCESS:          0  HIT:          0  MISS:          0
LLC PREFETCH  ACCESS:          0  HIT:          0  MISS:          0
LLC WRITEBACK ACCESS:        421  HIT:        342  MISS:         79
Heartbeat CPU 0 instructions: 78000001 cycles: 29346701 heartbeat IPC: 1.93041 cumulative IPC: 1.90792 (Simulation time: 0 hr 40 min 21 sec) 

Region of Interest Statistics
cpu0_DTLB TOTAL     ACCESS:    5931592  HIT:    5929491  MISS:       2101
cpu0_DTLB LOAD      ACCESS:    5671163  HIT:    5669076  MISS:       2087
cpu0_DTLB RFO       ACCESS:     260429  HIT:     260415  MISS:         14
cpu0_DTLB PREFETCH  ACCESS:          0  HIT:          0  MISS:          0
cpu0_DTLB WRITEBACK ACCESS:          0  HIT:          0  MISS:          0
cpu0_ITLB TOTAL     ACCESS:      37880  HIT:      37880  MISS:          0
cpu0_ITLB LOAD      ACCESS:      37880  HIT:      37880  MISS:          0
cpu0_ITLB RFO       ACCESS:          0  HIT:          0  MISS:          0
cpu0_ITLB PREFETCH  ACCESS:          0  HIT:          0  MISS:          0
cpu0_ITLB WRITEBACK ACCESS:          0  HIT:          0  MISS:          0
cpu0_STLB TOTAL     ACCESS:       2101  HIT:       1325  MISS:        776
cpu0_STLB LOAD      ACCESS:       2087  HIT:       1311  MISS:        776
cpu0_STLB RFO       ACCESS:         14  HIT:         14  MISS:          0
cpu0_STLB PREFETCH  ACCESS:          0  HIT:          0  MISS:          0
cpu0_STLB WRITEBACK ACCESS:          0  HIT:          0  MISS:          0
cpu0_L1D TOTAL     ACCESS:    7488123  HIT:    7336929  MISS:     151194
cpu0_L1D LOAD      ACCESS:    6710458  HIT:    6559635  MISS:     150823
cpu0_L1D RFO       ACCESS:     776889  HIT:     776638  MISS:        251
cpu0_L1D PREFETCH  ACCESS:          0  HIT:          0  MISS:          0
cpu0_L1D WRITEBACK ACCESS:          0  HIT:          0  MISS:          0
cpu0_L2C TOTAL     ACCESS:     198313  HIT:     180132  MISS:      18181
cpu0_L2C LOAD      ACCESS:     150820  HIT:     132652  MISS:      18168
cpu0_L2C RFO       ACCESS:        251  HIT:        251  MISS:          0
cpu0_L2C PREFETCH  ACCESS:          0  HIT:          0  MISS:          0
cpu0_L2C WRITEBACK ACCESS:      47122  HIT:      47112  MISS:         10
LLC TOTAL     ACCESS:      18611  HIT:       1199  MISS:      17412
LLC LOAD      ACCESS:      18168  HIT:        835  MISS:      17333
LLC RFO       ACCESS:          0  HIT:          0  MISS:          0
LLC PREFETCH  ACCESS:          0  HIT:          0  MISS:          0
LLC WRITEBACK ACCESS:        440  HIT:        361  MISS:         79
Heartbeat CPU 0 instructions: 80000004 cycles: 30382048 heartbeat IPC: 1.93172 cumulative IPC: 1.90949 (Simulation time: 0 hr 41 min 40 sec) 

Region of Interest Statistics
cpu0_DTLB TOTAL     ACCESS:    6355348  HIT:    6353071  MISS:       2277
cpu0_DTLB LOAD      ACCESS:    6076359  HIT:    6074097  MISS:       2262
cpu0_DTLB RFO       ACCESS:     278989  HIT:     278974  MISS:         15
cpu0_DTLB PREFETCH  ACCESS:          0  HIT:          0  MISS:          0
cpu0_DTLB WRITEBACK ACCESS:          0  HIT:          0  MISS:          0
cpu0_ITLB TOTAL     ACCESS:      39719  HIT:      39719  MISS:          0
cpu0_ITLB LOAD      ACCESS:      39719  HIT:      39719  MISS:          0
cpu0_ITLB RFO       ACCESS:          0  HIT:          0  MISS:          0
cpu0_ITLB PREFETCH  ACCESS:          0  HIT:          0  MISS:          0
cpu0_ITLB WRITEBACK ACCESS:          0  HIT:          0  MISS:          0
cpu0_STLB TOTAL     ACCESS:       2277  HIT:       1458  MISS:        819
cpu0_STLB LOAD      ACCESS:       2262  HIT:       1443  MISS:        819
cpu0_STLB RFO       ACCESS:         15  HIT:         15  MISS:          0
cpu0_STLB PREFETCH  ACCESS:          0  HIT:          0  MISS:          0
cpu0_STLB WRITEBACK ACCESS:          0  HIT:          0  MISS:          0
cpu0_L1D TOTAL     ACCESS:    8023062  HIT:    7850669  MISS:     172393
cpu0_L1D LOAD      ACCESS:    7190086  HIT:    7018109  MISS:     171977
cpu0_L1D RFO       ACCESS:     832157  HIT:     831872  MISS:        285
cpu0_L1D PREFETCH  ACCESS:          0  HIT:          0  MISS:          0
cpu0_L1D WRITEBACK ACCESS:          0  HIT:          0  MISS:          0
cpu0_L2C TOTAL     ACCESS:     226656  HIT:     207221  MISS:      19435
cpu0_L2C LOAD      ACCESS:     171973  HIT:     152551  MISS:      19422
cpu0_L2C RFO       ACCESS:        285  HIT:        285  MISS:          0
cpu0_L2C PREFETCH  ACCESS:          0  HIT:          0  MISS:          0
cpu0_L2C WRITEBACK ACCESS:      54267  HIT:      54257  MISS:         10
LLC TOTAL     ACCESS:      19870  HIT:       1251  MISS:      18619
LLC LOAD      ACCESS:      19422  HIT:        882  MISS:      18540
LLC RFO       ACCESS:          0  HIT:          0  MISS:          0
LLC PREFETCH  ACCESS:          0  HIT:          0  MISS:          0
LLC WRITEBACK ACCESS:        445  HIT:        366  MISS:         79
Heartbeat CPU 0 instructions: 82000004 cycles: 31416706 heartbeat IPC: 1.93301 cumulative IPC: 1.91094 (Simulation time: 0 hr 42 min 58 sec) 

Region of Interest Statistics
cpu0_DTLB TOTAL     ACCESS:    6776091  HIT:    6773640  MISS:       2451
cpu0_DTLB LOAD      ACCESS:    6478521  HIT:    6476086  MISS:       2435
cpu0_DTLB RFO       ACCESS:     297570  HIT:     297554  MISS:         16
cpu0_DTLB PREFETCH  ACCESS:          0  HIT:          0  MISS:          0
cpu0_DTLB WRITEBACK ACCESS:          0  HIT:          0  MISS:          0
cpu0_ITLB TOTAL     ACCESS:      41834  HIT:      41834  MISS:          0
cpu0_ITLB LOAD      ACCESS:      41834  HIT:      41834  MISS:          0
cpu0_ITLB RFO       ACCESS:          0  HIT:          0  MISS:          0
cpu0_ITLB PREFETCH  ACCESS:          0  HIT:          0  MISS:          0
cpu0_ITLB WRITEBACK ACCESS:          0  HIT:          0  MISS:          0
cpu0_STLB TOTAL     ACCESS:       2451  HIT:       1588  MISS:        863
cpu0_STLB LOAD      ACCESS:       2435  HIT:       1572  MISS:        863
cpu0_STLB RFO       ACCESS:         16  HIT:         16  MISS:          0
cpu0_STLB PREFETCH  ACCESS:          0  HIT:          0  MISS:          0
cpu0_STLB WRITEBACK ACCESS:          0  HIT:          0  MISS:          0
cpu0_L1D TOTAL     ACCESS:    8557796  HIT:    8367557  MISS:     190239
cpu0_L1D LOAD      ACCESS:    7669403  HIT:    7479597  MISS:     189806
cpu0_L1D RFO       ACCESS:     887530  HIT:     887232  MISS:        298
cpu0_L1D PREFETCH  ACCESS:          0  HIT:          0  MISS:          0
cpu0_L1D WRITEBACK ACCESS:          0  HIT:          0  MISS:          0
cpu0_L2C TOTAL     ACCESS:     250510  HIT:     229853  MISS:      20657
cpu0_L2C LOAD      ACCESS:     189802  HIT:     169158  MISS:      20644
cpu0_L2C RFO       ACCESS:        298  HIT:        298  MISS:          0
cpu0_L2C PREFETCH  ACCESS:          0  HIT:          0  MISS:          0
cpu0_L2C WRITEBACK ACCESS:      60275  HIT:      60265  MISS:         10
LLC TOTAL     ACCESS:      21122  HIT:       1288  MISS:      19834
LLC LOAD      ACCESS:      20644  HIT:        893  MISS:      19751
LLC RFO       ACCESS:          0  HIT:          0  MISS:          0
LLC PREFETCH  ACCESS:          0  HIT:          0  MISS:          0
LLC WRITEBACK ACCESS:        475  HIT:        392  MISS:         83
Heartbeat CPU 0 instructions: 84000000 cycles: 32460018 heartbeat IPC: 1.91697 cumulative IPC: 1.9113 (Simulation time: 0 hr 44 min 17 sec) 

Region of Interest Statistics
cpu0_DTLB TOTAL     ACCESS:    7198909  HIT:    7196300  MISS:       2609
cpu0_DTLB LOAD      ACCESS:    6882740  HIT:    6880148  MISS:       2592
cpu0_DTLB RFO       ACCESS:     316169  HIT:     316152  MISS:         17
cpu0_DTLB PREFETCH  ACCESS:          0  HIT:          0  MISS:          0
cpu0_DTLB WRITEBACK ACCESS:          0  HIT:          0  MISS:          0
cpu0_ITLB TOTAL     ACCESS:      44122  HIT:      44122  MISS:          0
cpu0_ITLB LOAD      ACCESS:      44122  HIT:      44122  MISS:          0
cpu0_ITLB RFO       ACCESS:          0  HIT:          0  MISS:          0
cpu0_ITLB PREFETCH  ACCESS:          0  HIT:          0  MISS:          0
cpu0_ITLB WRITEBACK ACCESS:          0  HIT:          0  MISS:          0
cpu0_STLB TOTAL     ACCESS:       2609  HIT:       1693  MISS:        916
cpu0_STLB LOAD      ACCESS:       2592  HIT:       1676  MISS:        916
cpu0_STLB RFO       ACCESS:         17  HIT:         17  MISS:          0
cpu0_STLB PREFETCH  ACCESS:          0  HIT:          0  MISS:          0
cpu0_STLB WRITEBACK ACCESS:          0  HIT:          0  MISS:          0
cpu0_L1D TOTAL     ACCESS:    9092858  HIT:    8891028  MISS:     201830
cpu0_L1D LOAD      ACCESS:    8148930  HIT:    7947545  MISS:     201385
cpu0_L1D RFO       ACCESS:     943012  HIT:     942710  MISS:        302
cpu0_L1D PREFETCH  ACCESS:          0  HIT:          0  MISS:          0
cpu0_L1D WRITEBACK ACCESS:          0  HIT:          0  MISS:          0
cpu0_L2C TOTAL     ACCESS:     265854  HIT:     243923  MISS:      21931
cpu0_L2C LOAD      ACCESS:     201381  HIT:     179465  MISS:      21916
cpu0_L2C RFO       ACCESS:        302  HIT:        302  MISS:          0
cpu0_L2C PREFETCH  ACCESS:          0  HIT:          0  MISS:          0
cpu0_L2C WRITEBACK ACCESS:      64028  HIT:      64018  MISS:         10
LLC TOTAL     ACCESS:      22403  HIT:       1338  MISS:      21065
LLC LOAD      ACCESS:      21916  HIT:        936  MISS:      20980
LLC RFO       ACCESS:          0  HIT:          0  MISS:          0
LLC PREFETCH  ACCESS:          0  HIT:          0  MISS:          0
LLC WRITEBACK ACCESS:        482  HIT:        397  MISS:         85
Heartbeat CPU 0 instructions: 86000002 cycles: 33529248 heartbeat IPC: 1.87051 cumulative IPC: 1.90898 (Simulation time: 0 hr 45 min 35 sec) 

Region of Interest Statistics
cpu0_DTLB TOTAL     ACCESS:    7626076  HIT:    7623373  MISS:       2703
cpu0_DTLB LOAD      ACCESS:    7291169  HIT:    7288484  MISS:       2685
cpu0_DTLB RFO       ACCESS:     334907  HIT:     334889  MISS:         18
cpu0_DTLB PREFETCH  ACCESS:          0  HIT:          0  MISS:          0
cpu0_DTLB WRITEBACK ACCESS:          0  HIT:          0  MISS:          0
cpu0_ITLB TOTAL     ACCESS:      48418  HIT:      48418  MISS:          0
cpu0_ITLB LOAD      ACCESS:      48418  HIT:      48418  MISS:          0
cpu0_ITLB RFO       ACCESS:          0  HIT:          0  MISS:          0
cpu0_ITLB PREFETCH  ACCESS:          0  HIT:          0  MISS:          0
cpu0_ITLB WRITEBACK ACCESS:          0  HIT:          0  MISS:          0
cpu0_STLB TOTAL     ACCESS:       2703  HIT:       1712  MISS:        991
cpu0_STLB LOAD      ACCESS:       2685  HIT:       1694  MISS:        991
cpu0_STLB RFO       ACCESS:         18  HIT:         18  MISS:          0
cpu0_STLB PREFETCH  ACCESS:          0  HIT:          0  MISS:          0
cpu0_STLB WRITEBACK ACCESS:          0  HIT:          0  MISS:          0
cpu0_L1D TOTAL     ACCESS:    9627958  HIT:    9424669  MISS:     203289
cpu0_L1D LOAD      ACCESS:    8628174  HIT:    8425332  MISS:     202842
cpu0_L1D RFO       ACCESS:     998793  HIT:     998489  MISS:        304
cpu0_L1D PREFETCH  ACCESS:          0  HIT:          0  MISS:          0
cpu0_L1D WRITEBACK ACCESS:          0  HIT:          0  MISS:          0
cpu0_L2C TOTAL     ACCESS:     267425  HIT:     244185  MISS:      23240
cpu0_L2C LOAD      ACCESS:     202838  HIT:     179613  MISS:      23225
cpu0_L2C RFO       ACCESS:        304  HIT:        304  MISS:          0
cpu0_L2C PREFETCH  ACCESS:          0  HIT:          0  MISS:          0
cpu0_L2C WRITEBACK ACCESS:      64140  HIT:      64130  MISS:         10
LLC TOTAL     ACCESS:      23757  HIT:       1421  MISS:      22336
LLC LOAD      ACCESS:      23225  HIT:        976  MISS:      22249
LLC RFO       ACCESS:          0  HIT:          0  MISS:          0
LLC PREFETCH  ACCESS:          0  HIT:          0  MISS:          0
LLC WRITEBACK ACCESS:        527  HIT:        440  MISS:         87
Heartbeat CPU 0 instructions: 88000002 cycles: 34608053 heartbeat IPC: 1.8539 cumulative IPC: 1.906 (Simulation time: 0 hr 46 min 49 sec) 

Region of Interest Statistics
cpu0_DTLB TOTAL     ACCESS:    8051164  HIT:    8048362  MISS:       2802
cpu0_DTLB LOAD      ACCESS:    7697501  HIT:    7694717  MISS:       2784
cpu0_DTLB RFO       ACCESS:     353663  HIT:     353645  MISS:         18
cpu0_DTLB PREFETCH  ACCESS:          0  HIT:          0  MISS:          0
cpu0_DTLB WRITEBACK ACCESS:          0  HIT:          0  MISS:          0
cpu0_ITLB TOTAL     ACCESS:      53593  HIT:      53593  MISS:          0
cpu0_ITLB LOAD      ACCESS:      53593  HIT:      53593  MISS:          0
cpu0_ITLB RFO       ACCESS:          0  HIT:          0  MISS:          0
cpu0_ITLB PREFETCH  ACCESS:          0  HIT:          0  MISS:          0
cpu0_ITLB WRITEBACK ACCESS:          0  HIT:          0  MISS:          0
cpu0_STLB TOTAL     ACCESS:       2802  HIT:       1724  MISS:       1078
cpu0_STLB LOAD      ACCESS:       2784  HIT:       1706  MISS:       1078
cpu0_STLB RFO       ACCESS:         18  HIT:         18  MISS:          0
cpu0_STLB PREFETCH  ACCESS:          0  HIT:          0  MISS:          0
cpu0_STLB WRITEBACK ACCESS:          0  HIT:          0  MISS:          0
cpu0_L1D TOTAL     ACCESS:   10162951  HIT:    9958254  MISS:     204697
cpu0_L1D LOAD      ACCESS:    9107132  HIT:    8902885  MISS:     204247
cpu0_L1D RFO       ACCESS:    1054741  HIT:    1054436  MISS:        305
cpu0_L1D PREFETCH  ACCESS:          0  HIT:          0  MISS:          0
cpu0_L1D WRITEBACK ACCESS:          0  HIT:          0  MISS:          0
cpu0_L2C TOTAL     ACCESS:     268898  HIT:     244318  MISS:      24580
cpu0_L2C LOAD      ACCESS:     204243  HIT:     179679  MISS:      24564
cpu0_L2C RFO       ACCESS:        305  HIT:        305  MISS:          0
cpu0_L2C PREFETCH  ACCESS:          0  HIT:          0  MISS:          0
cpu0_L2C WRITEBACK ACCESS:      64205  HIT:      64194  MISS:         11
LLC TOTAL     ACCESS:      25128  HIT:       1480  MISS:      23648
LLC LOAD      ACCESS:      24564  HIT:       1004  MISS:      23560
LLC RFO       ACCESS:          0  HIT:          0  MISS:          0
LLC PREFETCH  ACCESS:          0  HIT:          0  MISS:          0
LLC WRITEBACK ACCESS:        559  HIT:        471  MISS:         88
Heartbeat CPU 0 instructions: 90000000 cycles: 35708867 heartbeat IPC: 1.81684 cumulative IPC: 1.90134 (Simulation time: 0 hr 48 min 8 sec) 

Region of Interest Statistics
cpu0_DTLB TOTAL     ACCESS:    8476408  HIT:    8473484  MISS:       2924
cpu0_DTLB LOAD      ACCESS:    8103889  HIT:    8100984  MISS:       2905
cpu0_DTLB RFO       ACCESS:     372519  HIT:     372500  MISS:         19
cpu0_DTLB PREFETCH  ACCESS:          0  HIT:          0  MISS:          0
cpu0_DTLB WRITEBACK ACCESS:          0  HIT:          0  MISS:          0
cpu0_ITLB TOTAL     ACCESS:      59793  HIT:      59793  MISS:          0
cpu0_ITLB LOAD      ACCESS:      59793  HIT:      59793  MISS:          0
cpu0_ITLB RFO       ACCESS:          0  HIT:          0  MISS:          0
cpu0_ITLB PREFETCH  ACCESS:          0  HIT:          0  MISS:          0
cpu0_ITLB WRITEBACK ACCESS:          0  HIT:          0  MISS:          0
cpu0_STLB TOTAL     ACCESS:       2924  HIT:       1741  MISS:       1183
cpu0_STLB LOAD      ACCESS:       2905  HIT:       1722  MISS:       1183
cpu0_STLB RFO       ACCESS:         19  HIT:         19  MISS:          0
cpu0_STLB PREFETCH  ACCESS:          0  HIT:          0  MISS:          0
cpu0_STLB WRITEBACK ACCESS:          0  HIT:          0  MISS:          0
cpu0_L1D TOTAL     ACCESS:   10697805  HIT:   10491715  MISS:     206090
cpu0_L1D LOAD      ACCESS:    9585749  HIT:    9380110  MISS:     205639
cpu0_L1D RFO       ACCESS:    1110873  HIT:    1110568  MISS:        305
cpu0_L1D PREFETCH  ACCESS:          0  HIT:          0  MISS:          0
cpu0_L1D WRITEBACK ACCESS:          0  HIT:          0  MISS:          0
cpu0_L2C TOTAL     ACCESS:     270342  HIT:     244368  MISS:      25974
cpu0_L2C LOAD      ACCESS:     205635  HIT:     179686  MISS:      25949
cpu0_L2C RFO       ACCESS:        305  HIT:        305  MISS:          0
cpu0_L2C PREFETCH  ACCESS:          0  HIT:          0  MISS:          0
cpu0_L2C WRITEBACK ACCESS:      64256  HIT:      64236  MISS:         20
LLC TOTAL     ACCESS:      26583  HIT:       1601  MISS:      24982
LLC LOAD      ACCESS:      25949  HIT:       1056  MISS:      24893
LLC RFO       ACCESS:          0  HIT:          0  MISS:          0
LLC PREFETCH  ACCESS:          0  HIT:          0  MISS:          0
LLC WRITEBACK ACCESS:        629  HIT:        540  MISS:         89
Heartbeat CPU 0 instructions: 92000000 cycles: 36880054 heartbeat IPC: 1.70767 cumulative IPC: 1.89112 (Simulation time: 0 hr 49 min 21 sec) 

Region of Interest Statistics
cpu0_DTLB TOTAL     ACCESS:    8902608  HIT:    8899483  MISS:       3125
cpu0_DTLB LOAD      ACCESS:    8510851  HIT:    8507747  MISS:       3104
cpu0_DTLB RFO       ACCESS:     391757  HIT:     391736  MISS:         21
cpu0_DTLB PREFETCH  ACCESS:          0  HIT:          0  MISS:          0
cpu0_DTLB WRITEBACK ACCESS:          0  HIT:          0  MISS:          0
cpu0_ITLB TOTAL     ACCESS:      71331  HIT:      71331  MISS:          0
cpu0_ITLB LOAD      ACCESS:      71331  HIT:      71331  MISS:          0
cpu0_ITLB RFO       ACCESS:          0  HIT:          0  MISS:          0
cpu0_ITLB PREFETCH  ACCESS:          0  HIT:          0  MISS:          0
cpu0_ITLB WRITEBACK ACCESS:          0  HIT:          0  MISS:          0
cpu0_STLB TOTAL     ACCESS:       3125  HIT:       1757  MISS:       1368
cpu0_STLB LOAD      ACCESS:       3104  HIT:       1736  MISS:       1368
cpu0_STLB RFO       ACCESS:         21  HIT:         21  MISS:          0
cpu0_STLB PREFETCH  ACCESS:          0  HIT:          0  MISS:          0
cpu0_STLB WRITEBACK ACCESS:          0  HIT:          0  MISS:          0
cpu0_L1D TOTAL     ACCESS:   11232380  HIT:   11024597  MISS:     207783
cpu0_L1D LOAD      ACCESS:   10062989  HIT:    9855659  MISS:     207330
cpu0_L1D RFO       ACCESS:    1168023  HIT:    1167718  MISS:        305
cpu0_L1D PREFETCH  ACCESS:          0  HIT:          0  MISS:          0
cpu0_L1D WRITEBACK ACCESS:          0  HIT:          0  MISS:          0
cpu0_L2C TOTAL     ACCESS:     272124  HIT:     244607  MISS:      27517
cpu0_L2C LOAD      ACCESS:     207326  HIT:     179834  MISS:      27492
cpu0_L2C RFO       ACCESS:        305  HIT:        305  MISS:          0
cpu0_L2C PREFETCH  ACCESS:          0  HIT:          0  MISS:          0
cpu0_L2C WRITEBACK ACCESS:      64345  HIT:      64325  MISS:         20
LLC TOTAL     ACCESS:      28230  HIT:       1726  MISS:      26504
LLC LOAD      ACCESS:      27492  HIT:       1084  MISS:      26408
LLC RFO       ACCESS:          0  HIT:          0  MISS:          0
LLC PREFETCH  ACCESS:          0  HIT:          0  MISS:          0
LLC WRITEBACK ACCESS:        733  HIT:        637  MISS:         96
Heartbeat CPU 0 instructions: 94000002 cycles: 38001004 heartbeat IPC: 1.7842 cumulative IPC: 1.88599 (Simulation time: 0 hr 50 min 42 sec) 

Region of Interest Statistics
cpu0_DTLB TOTAL     ACCESS:    9328214  HIT:    9324907  MISS:       3307
cpu0_DTLB LOAD      ACCESS:    8917467  HIT:    8914182  MISS:       3285
cpu0_DTLB RFO       ACCESS:     410747  HIT:     410725  MISS:         22
cpu0_DTLB PREFETCH  ACCESS:          0  HIT:          0  MISS:          0
cpu0_DTLB WRITEBACK ACCESS:          0  HIT:          0  MISS:          0
cpu0_ITLB TOTAL     ACCESS:      79481  HIT:      79481  MISS:          0
cpu0_ITLB LOAD      ACCESS:      79481  HIT:      79481  MISS:          0
cpu0_ITLB RFO       ACCESS:          0  HIT:          0  MISS:          0
cpu0_ITLB PREFETCH  ACCESS:          0  HIT:          0  MISS:          0
cpu0_ITLB WRITEBACK ACCESS:          0  HIT:          0  MISS:          0
cpu0_STLB TOTAL     ACCESS:       3307  HIT:       1812  MISS:       1495
cpu0_STLB LOAD      ACCESS:       3285  HIT:       1790  MISS:       1495
cpu0_STLB RFO       ACCESS:         22  HIT:         22  MISS:          0
cpu0_STLB PREFETCH  ACCESS:          0  HIT:          0  MISS:          0
cpu0_STLB WRITEBACK ACCESS:          0  HIT:          0  MISS:          0
cpu0_L1D TOTAL     ACCESS:   11767046  HIT:   11556970  MISS:     210076
cpu0_L1D LOAD      ACCESS:   10541036  HIT:   10331418  MISS:     209618
cpu0_L1D RFO       ACCESS:    1224515  HIT:    1224206  MISS:        309
cpu0_L1D PREFETCH  ACCESS:          0  HIT:          0  MISS:          0
cpu0_L1D WRITEBACK ACCESS:          0  HIT:          0  MISS:          0
cpu0_L2C TOTAL     ACCESS:     274603  HIT:     245435  MISS:      29168
cpu0_L2C LOAD      ACCESS:     209614  HIT:     180476  MISS:      29138
cpu0_L2C RFO       ACCESS:        309  HIT:        309  MISS:          0
cpu0_L2C PREFETCH  ACCESS:          0  HIT:          0  MISS:          0
cpu0_L2C WRITEBACK ACCESS:      64531  HIT:      64506  MISS:         25
LLC TOTAL     ACCESS:      29966  HIT:       2047  MISS:      27919
LLC LOAD      ACCESS:      29138  HIT:       1328  MISS:      27810
LLC RFO       ACCESS:          0  HIT:          0  MISS:          0
LLC PREFETCH  ACCESS:          0  HIT:          0  MISS:          0
LLC WRITEBACK ACCESS:        823  HIT:        714  MISS:        109
Heartbeat CPU 0 instructions: 96000001 cycles: 39042314 heartbeat IPC: 1.92066 cumulative IPC: 1.88747 (Simulation time: 0 hr 52 min 2 sec) 

Region of Interest Statistics
cpu0_DTLB TOTAL     ACCESS:    9752901  HIT:    9749302  MISS:       3599
cpu0_DTLB LOAD      ACCESS:    9323560  HIT:    9319984  MISS:       3576
cpu0_DTLB RFO       ACCESS:     429341  HIT:     429318  MISS:         23
cpu0_DTLB PREFETCH  ACCESS:          0  HIT:          0  MISS:          0
cpu0_DTLB WRITEBACK ACCESS:          0  HIT:          0  MISS:          0
cpu0_ITLB TOTAL     ACCESS:      81983  HIT:      81983  MISS:          0
cpu0_ITLB LOAD      ACCESS:      81983  HIT:      81983  MISS:          0
cpu0_ITLB RFO       ACCESS:          0  HIT:          0  MISS:          0
cpu0_ITLB PREFETCH  ACCESS:          0  HIT:          0  MISS:          0
cpu0_ITLB WRITEBACK ACCESS:          0  HIT:          0  MISS:          0
cpu0_STLB TOTAL     ACCESS:       3599  HIT:       2057  MISS:       1542
cpu0_STLB LOAD      ACCESS:       3576  HIT:       2034  MISS:       1542
cpu0_STLB RFO       ACCESS:         23  HIT:         23  MISS:          0
cpu0_STLB PREFETCH  ACCESS:          0  HIT:          0  MISS:          0
cpu0_STLB WRITEBACK ACCESS:          0  HIT:          0  MISS:          0
cpu0_L1D TOTAL     ACCESS:   12301339  HIT:   12078165  MISS:     223174
cpu0_L1D LOAD      ACCESS:   11019964  HIT:   10797293  MISS:     222671
cpu0_L1D RFO       ACCESS:    1279833  HIT:    1279482  MISS:        351
cpu0_L1D PREFETCH  ACCESS:          0  HIT:          0  MISS:          0
cpu0_L1D WRITEBACK ACCESS:          0  HIT:          0  MISS:          0
cpu0_L2C TOTAL     ACCESS:     291716  HIT:     260979  MISS:      30737
cpu0_L2C LOAD      ACCESS:     222667  HIT:     191961  MISS:      30706
cpu0_L2C RFO       ACCESS:        351  HIT:        351  MISS:          0
cpu0_L2C PREFETCH  ACCESS:          0  HIT:          0  MISS:          0
cpu0_L2C WRITEBACK ACCESS:      68546  HIT:      68521  MISS:         25
LLC TOTAL     ACCESS:      31575  HIT:       2406  MISS:      29169
LLC LOAD      ACCESS:      30706  HIT:       1652  MISS:      29054
LLC RFO       ACCESS:          0  HIT:          0  MISS:          0
LLC PREFETCH  ACCESS:          0  HIT:          0  MISS:          0
LLC WRITEBACK ACCESS:        863  HIT:        748  MISS:        115
Heartbeat CPU 0 instructions: 98000003 cycles: 40084210 heartbeat IPC: 1.91958 cumulative IPC: 1.88878 (Simulation time: 0 hr 53 min 18 sec) 

Region of Interest Statistics
cpu0_DTLB TOTAL     ACCESS:   10173553  HIT:   10169680  MISS:       3873
cpu0_DTLB LOAD      ACCESS:    9725668  HIT:    9721819  MISS:       3849
cpu0_DTLB RFO       ACCESS:     447885  HIT:     447861  MISS:         24
cpu0_DTLB PREFETCH  ACCESS:          0  HIT:          0  MISS:          0
cpu0_DTLB WRITEBACK ACCESS:          0  HIT:          0  MISS:          0
cpu0_ITLB TOTAL     ACCESS:      83497  HIT:      83497  MISS:          0
cpu0_ITLB LOAD      ACCESS:      83497  HIT:      83497  MISS:          0
cpu0_ITLB RFO       ACCESS:          0  HIT:          0  MISS:          0
cpu0_ITLB PREFETCH  ACCESS:          0  HIT:          0  MISS:          0
cpu0_ITLB WRITEBACK ACCESS:          0  HIT:          0  MISS:          0
cpu0_STLB TOTAL     ACCESS:       3873  HIT:       2285  MISS:       1588
cpu0_STLB LOAD      ACCESS:       3849  HIT:       2261  MISS:       1588
cpu0_STLB RFO       ACCESS:         24  HIT:         24  MISS:          0
cpu0_STLB PREFETCH  ACCESS:          0  HIT:          0  MISS:          0
cpu0_STLB WRITEBACK ACCESS:          0  HIT:          0  MISS:          0
cpu0_L1D TOTAL     ACCESS:   12835776  HIT:   12595619  MISS:     240157
cpu0_L1D LOAD      ACCESS:   11499088  HIT:   11259483  MISS:     239605
cpu0_L1D RFO       ACCESS:    1335100  HIT:    1334708  MISS:        392
cpu0_L1D PREFETCH  ACCESS:          0  HIT:          0  MISS:          0
cpu0_L1D WRITEBACK ACCESS:          0  HIT:          0  MISS:          0
cpu0_L2C TOTAL     ACCESS:     314285  HIT:     282227  MISS:      32058
cpu0_L2C LOAD      ACCESS:     239600  HIT:     207574  MISS:      32026
cpu0_L2C RFO       ACCESS:        392  HIT:        392  MISS:          0
cpu0_L2C PREFETCH  ACCESS:          0  HIT:          0  MISS:          0
cpu0_L2C WRITEBACK ACCESS:      74133  HIT:      74108  MISS:         25
LLC TOTAL     ACCESS:      32906  HIT:       2469  MISS:      30437
LLC LOAD      ACCESS:      32026  HIT:       1705  MISS:      30321
LLC RFO       ACCESS:          0  HIT:          0  MISS:          0
LLC PREFETCH  ACCESS:          0  HIT:          0  MISS:          0
LLC WRITEBACK ACCESS:        873  HIT:        757  MISS:        116
Heartbeat CPU 0 instructions: 100000000 cycles: 41126405 heartbeat IPC: 1.91902 cumulative IPC: 1.88998 (Simulation time: 0 hr 54 min 30 sec) 

Region of Interest Statistics
cpu0_DTLB TOTAL     ACCESS:   10596701  HIT:   10592529  MISS:       4172
cpu0_DTLB LOAD      ACCESS:   10130258  HIT:   10126111  MISS:       4147
cpu0_DTLB RFO       ACCESS:     466443  HIT:     466418  MISS:         25
cpu0_DTLB PREFETCH  ACCESS:          0  HIT:          0  MISS:          0
cpu0_DTLB WRITEBACK ACCESS:          0  HIT:          0  MISS:          0
cpu0_ITLB TOTAL     ACCESS:      85600  HIT:      85600  MISS:          0
cpu0_ITLB LOAD      ACCESS:      85600  HIT:      85600  MISS:          0
cpu0_ITLB RFO       ACCESS:          0  HIT:          0  MISS:          0
cpu0_ITLB PREFETCH  ACCESS:          0  HIT:          0  MISS:          0
cpu0_ITLB WRITEBACK ACCESS:          0  HIT:          0  MISS:          0
cpu0_STLB TOTAL     ACCESS:       4172  HIT:       2537  MISS:       1635
cpu0_STLB LOAD      ACCESS:       4147  HIT:       2512  MISS:       1635
cpu0_STLB RFO       ACCESS:         25  HIT:         25  MISS:          0
cpu0_STLB PREFETCH  ACCESS:          0  HIT:          0  MISS:          0
cpu0_STLB WRITEBACK ACCESS:          0  HIT:          0  MISS:          0
cpu0_L1D TOTAL     ACCESS:   13370460  HIT:   13115151  MISS:     255309
cpu0_L1D LOAD      ACCESS:   11978427  HIT:   11723720  MISS:     254707
cpu0_L1D RFO       ACCESS:    1390398  HIT:    1389964  MISS:        434
cpu0_L1D PREFETCH  ACCESS:          0  HIT:          0  MISS:          0
cpu0_L1D WRITEBACK ACCESS:          0  HIT:          0  MISS:          0
cpu0_L2C TOTAL     ACCESS:     334327  HIT:     301058  MISS:      33269
cpu0_L2C LOAD      ACCESS:     254702  HIT:     221465  MISS:      33237
cpu0_L2C RFO       ACCESS:        434  HIT:        434  MISS:          0
cpu0_L2C PREFETCH  ACCESS:          0  HIT:          0  MISS:          0
cpu0_L2C WRITEBACK ACCESS:      79023  HIT:      78998  MISS:         25
LLC TOTAL     ACCESS:      34125  HIT:       2477  MISS:      31648
LLC LOAD      ACCESS:      33237  HIT:       1705  MISS:      31532
LLC RFO       ACCESS:          0  HIT:          0  MISS:          0
LLC PREFETCH  ACCESS:          0  HIT:          0  MISS:          0
LLC WRITEBACK ACCESS:        881  HIT:        765  MISS:        116
Heartbeat CPU 0 instructions: 102000000 cycles: 42162390 heartbeat IPC: 1.93053 cumulative IPC: 1.8915 (Simulation time: 0 hr 55 min 46 sec) 

Region of Interest Statistics
cpu0_DTLB TOTAL     ACCESS:   11016976  HIT:   11012544  MISS:       4432
cpu0_DTLB LOAD      ACCESS:   10531999  HIT:   10527593  MISS:       4406
cpu0_DTLB RFO       ACCESS:     484977  HIT:     484951  MISS:         26
cpu0_DTLB PREFETCH  ACCESS:          0  HIT:          0  MISS:          0
cpu0_DTLB WRITEBACK ACCESS:          0  HIT:          0  MISS:          0
cpu0_ITLB TOTAL     ACCESS:      87190  HIT:      87190  MISS:          0
cpu0_ITLB LOAD      ACCESS:      87190  HIT:      87190  MISS:          0
cpu0_ITLB RFO       ACCESS:          0  HIT:          0  MISS:          0
cpu0_ITLB PREFETCH  ACCESS:          0  HIT:          0  MISS:          0
cpu0_ITLB WRITEBACK ACCESS:          0  HIT:          0  MISS:          0
cpu0_STLB TOTAL     ACCESS:       4432  HIT:       2753  MISS:       1679
cpu0_STLB LOAD      ACCESS:       4406  HIT:       2727  MISS:       1679
cpu0_STLB RFO       ACCESS:         26  HIT:         26  MISS:          0
cpu0_STLB PREFETCH  ACCESS:          0  HIT:          0  MISS:          0
cpu0_STLB WRITEBACK ACCESS:          0  HIT:          0  MISS:          0
cpu0_L1D TOTAL     ACCESS:   13905177  HIT:   13632564  MISS:     272613
cpu0_L1D LOAD      ACCESS:   12457829  HIT:   12185865  MISS:     271964
cpu0_L1D RFO       ACCESS:    1445669  HIT:    1445201  MISS:        468
cpu0_L1D PREFETCH  ACCESS:          0  HIT:          0  MISS:          0
cpu0_L1D WRITEBACK ACCESS:          0  HIT:          0  MISS:          0
cpu0_L2C TOTAL     ACCESS:     357323  HIT:     322821  MISS:      34502
cpu0_L2C LOAD      ACCESS:     271959  HIT:     237491  MISS:      34468
cpu0_L2C RFO       ACCESS:        468  HIT:        468  MISS:          0
cpu0_L2C PREFETCH  ACCESS:          0  HIT:          0  MISS:          0
cpu0_L2C WRITEBACK ACCESS:      84715  HIT:      84690  MISS:         25
LLC TOTAL     ACCESS:      35376  HIT:       2498  MISS:      32878
LLC LOAD      ACCESS:      34468  HIT:       1706  MISS:      32762
LLC RFO       ACCESS:          0  HIT:          0  MISS:          0
LLC PREFETCH  ACCESS:          0  HIT:          0  MISS:          0
LLC WRITEBACK ACCESS:        899  HIT:        783  MISS:        116
Heartbeat CPU 0 instructions: 104000003 cycles: 43202099 heartbeat IPC: 1.92362 cumulative IPC: 1.89267 (Simulation time: 0 hr 57 min 3 sec) 

Region of Interest Statistics
cpu0_DTLB TOTAL     ACCESS:   11437106  HIT:   11432411  MISS:       4695
cpu0_DTLB LOAD      ACCESS:   10933593  HIT:   10928925  MISS:       4668
cpu0_DTLB RFO       ACCESS:     503513  HIT:     503486  MISS:         27
cpu0_DTLB PREFETCH  ACCESS:          0  HIT:          0  MISS:          0
cpu0_DTLB WRITEBACK ACCESS:          0  HIT:          0  MISS:          0
cpu0_ITLB TOTAL     ACCESS:      89091  HIT:      89091  MISS:          0
cpu0_ITLB LOAD      ACCESS:      89091  HIT:      89091  MISS:          0
cpu0_ITLB RFO       ACCESS:          0  HIT:          0  MISS:          0
cpu0_ITLB PREFETCH  ACCESS:          0  HIT:          0  MISS:          0
cpu0_ITLB WRITEBACK ACCESS:          0  HIT:          0  MISS:          0
cpu0_STLB TOTAL     ACCESS:       4695  HIT:       2971  MISS:       1724
cpu0_STLB LOAD      ACCESS:       4668  HIT:       2944  MISS:       1724
cpu0_STLB RFO       ACCESS:         27  HIT:         27  MISS:          0
cpu0_STLB PREFETCH  ACCESS:          0  HIT:          0  MISS:          0
cpu0_STLB WRITEBACK ACCESS:          0  HIT:          0  MISS:          0
cpu0_L1D TOTAL     ACCESS:   14439885  HIT:   14149543  MISS:     290342
cpu0_L1D LOAD      ACCESS:   12937198  HIT:   12647552  MISS:     289646
cpu0_L1D RFO       ACCESS:    1500963  HIT:    1500454  MISS:        509
cpu0_L1D PREFETCH  ACCESS:          0  HIT:          0  MISS:          0
cpu0_L1D WRITEBACK ACCESS:          0  HIT:          0  MISS:          0
cpu0_L2C TOTAL     ACCESS:     380804  HIT:     345056  MISS:      35748
cpu0_L2C LOAD      ACCESS:     289641  HIT:     253927  MISS:      35714
cpu0_L2C RFO       ACCESS:        509  HIT:        509  MISS:          0
cpu0_L2C PREFETCH  ACCESS:          0  HIT:          0  MISS:          0
cpu0_L2C WRITEBACK ACCESS:      90467  HIT:      90442  MISS:         25
LLC TOTAL     ACCESS:      36642  HIT:       2518  MISS:      34124
LLC LOAD      ACCESS:      35714  HIT:       1707  MISS:      34007
LLC RFO       ACCESS:          0  HIT:          0  MISS:          0
LLC PREFETCH  ACCESS:          0  HIT:          0  MISS:          0
LLC WRITEBACK ACCESS:        919  HIT:        802  MISS:        117
Heartbeat CPU 0 instructions: 106000003 cycles: 44240349 heartbeat IPC: 1.92632 cumulative IPC: 1.89386 (Simulation time: 0 hr 58 min 19 sec) 

Region of Interest Statistics
cpu0_DTLB TOTAL     ACCESS:   11857509  HIT:   11852591  MISS:       4918
cpu0_DTLB LOAD      ACCESS:   11335454  HIT:   11330565  MISS:       4889
cpu0_DTLB RFO       ACCESS:     522055  HIT:     522026  MISS:         29
cpu0_DTLB PREFETCH  ACCESS:          0  HIT:          0  MISS:          0
cpu0_DTLB WRITEBACK ACCESS:          0  HIT:          0  MISS:          0
cpu0_ITLB TOTAL     ACCESS:      90698  HIT:      90698  MISS:          0
cpu0_ITLB LOAD      ACCESS:      90698  HIT:      90698  MISS:          0
cpu0_ITLB RFO       ACCESS:          0  HIT:          0  MISS:          0
cpu0_ITLB PREFETCH  ACCESS:          0  HIT:          0  MISS:          0
cpu0_ITLB WRITEBACK ACCESS:          0  HIT:          0  MISS:          0
cpu0_STLB TOTAL     ACCESS:       4918  HIT:       3149  MISS:       1769
cpu0_STLB LOAD      ACCESS:       4889  HIT:       3120  MISS:       1769
cpu0_STLB RFO       ACCESS:         29  HIT:         29  MISS:          0
cpu0_STLB PREFETCH  ACCESS:          0  HIT:          0  MISS:          0
cpu0_STLB WRITEBACK ACCESS:          0  HIT:          0  MISS:          0
cpu0_L1D TOTAL     ACCESS:   14974836  HIT:   14667013  MISS:     307823
cpu0_L1D LOAD      ACCESS:   13416823  HIT:   13109735  MISS:     307088
cpu0_L1D RFO       ACCESS:    1556244  HIT:    1555704  MISS:        540
cpu0_L1D PREFETCH  ACCESS:          0  HIT:          0  MISS:          0
cpu0_L1D WRITEBACK ACCESS:          0  HIT:          0  MISS:          0
cpu0_L2C TOTAL     ACCESS:     403839  HIT:     366855  MISS:      36984
cpu0_L2C LOAD      ACCESS:     307082  HIT:     270132  MISS:      36950
cpu0_L2C RFO       ACCESS:        540  HIT:        540  MISS:          0
cpu0_L2C PREFETCH  ACCESS:          0  HIT:          0  MISS:          0
cpu0_L2C WRITEBACK ACCESS:      96022  HIT:      95997  MISS:         25
LLC TOTAL     ACCESS:      37906  HIT:       2548  MISS:      35358
LLC LOAD      ACCESS:      36950  HIT:       1710  MISS:      35240
LLC RFO       ACCESS:          0  HIT:          0  MISS:          0
LLC PREFETCH  ACCESS:          0  HIT:          0  MISS:          0
LLC WRITEBACK ACCESS:        947  HIT:        829  MISS:        118
Heartbeat CPU 0 instructions: 108000000 cycles: 45280914 heartbeat IPC: 1.92203 cumulative IPC: 1.89481 (Simulation time: 0 hr 59 min 38 sec) 

Region of Interest Statistics
cpu0_DTLB TOTAL     ACCESS:   12277439  HIT:   12272319  MISS:       5120
cpu0_DTLB LOAD      ACCESS:   11736848  HIT:   11731758  MISS:       5090
cpu0_DTLB RFO       ACCESS:     540591  HIT:     540561  MISS:         30
cpu0_DTLB PREFETCH  ACCESS:          0  HIT:          0  MISS:          0
cpu0_DTLB WRITEBACK ACCESS:          0  HIT:          0  MISS:          0
cpu0_ITLB TOTAL     ACCESS:      92265  HIT:      92265  MISS:          0
cpu0_ITLB LOAD      ACCESS:      92265  HIT:      92265  MISS:          0
cpu0_ITLB RFO       ACCESS:          0  HIT:          0  MISS:          0
cpu0_ITLB PREFETCH  ACCESS:          0  HIT:          0  MISS:          0
cpu0_ITLB WRITEBACK ACCESS:          0  HIT:          0  MISS:          0
cpu0_STLB TOTAL     ACCESS:       5120  HIT:       3310  MISS:       1810
cpu0_STLB LOAD      ACCESS:       5090  HIT:       3280  MISS:       1810
cpu0_STLB RFO       ACCESS:         30  HIT:         30  MISS:          0
cpu0_STLB PREFETCH  ACCESS:          0  HIT:          0  MISS:          0
cpu0_STLB WRITEBACK ACCESS:          0  HIT:          0  MISS:          0
cpu0_L1D TOTAL     ACCESS:   15509456  HIT:   15182371  MISS:     327085
cpu0_L1D LOAD      ACCESS:   13896147  HIT:   13569840  MISS:     326307
cpu0_L1D RFO       ACCESS:    1611499  HIT:    1610926  MISS:        573
cpu0_L1D PREFETCH  ACCESS:          0  HIT:          0  MISS:          0
cpu0_L1D WRITEBACK ACCESS:          0  HIT:          0  MISS:          0
cpu0_L2C TOTAL     ACCESS:     429343  HIT:     391052  MISS:      38291
cpu0_L2C LOAD      ACCESS:     326299  HIT:     288042  MISS:      38257
cpu0_L2C RFO       ACCESS:        573  HIT:        573  MISS:          0
cpu0_L2C PREFETCH  ACCESS:          0  HIT:          0  MISS:          0
cpu0_L2C WRITEBACK ACCESS:     102266  HIT:     102241  MISS:         25
LLC TOTAL     ACCESS:      39222  HIT:       2558  MISS:      36664
LLC LOAD      ACCESS:      38257  HIT:       1711  MISS:      36546
LLC RFO       ACCESS:          0  HIT:          0  MISS:          0
LLC PREFETCH  ACCESS:          0  HIT:          0  MISS:          0
LLC WRITEBACK ACCESS:        956  HIT:        838  MISS:        118
Heartbeat CPU 0 instructions: 110000000 cycles: 46319097 heartbeat IPC: 1.92644 cumulative IPC: 1.89585 (Simulation time: 1 hr 0 min 58 sec) 

Region of Interest Statistics
cpu0_DTLB TOTAL     ACCESS:   12699004  HIT:   12693749  MISS:       5255
cpu0_DTLB LOAD      ACCESS:   12139884  HIT:   12134660  MISS:       5224
cpu0_DTLB RFO       ACCESS:     559120  HIT:     559089  MISS:         31
cpu0_DTLB PREFETCH  ACCESS:          0  HIT:          0  MISS:          0
cpu0_DTLB WRITEBACK ACCESS:          0  HIT:          0  MISS:          0
cpu0_ITLB TOTAL     ACCESS:      93734  HIT:      93734  MISS:          0
cpu0_ITLB LOAD      ACCESS:      93734  HIT:      93734  MISS:          0
cpu0_ITLB RFO       ACCESS:          0  HIT:          0  MISS:          0
cpu0_ITLB PREFETCH  ACCESS:          0  HIT:          0  MISS:          0
cpu0_ITLB WRITEBACK ACCESS:          0  HIT:          0  MISS:          0
cpu0_STLB TOTAL     ACCESS:       5255  HIT:       3408  MISS:       1847
cpu0_STLB LOAD      ACCESS:       5224  HIT:       3377  MISS:       1847
cpu0_STLB RFO       ACCESS:         31  HIT:         31  MISS:          0
cpu0_STLB PREFETCH  ACCESS:          0  HIT:          0  MISS:          0
cpu0_STLB WRITEBACK ACCESS:          0  HIT:          0  MISS:          0
cpu0_L1D TOTAL     ACCESS:   16044129  HIT:   15698114  MISS:     346015
cpu0_L1D LOAD      ACCESS:   14375518  HIT:   14030326  MISS:     345192
cpu0_L1D RFO       ACCESS:    1666764  HIT:    1666158  MISS:        606
cpu0_L1D PREFETCH  ACCESS:          0  HIT:          0  MISS:          0
cpu0_L1D WRITEBACK ACCESS:          0  HIT:          0  MISS:          0
cpu0_L2C TOTAL     ACCESS:     454435  HIT:     414829  MISS:      39606
cpu0_L2C LOAD      ACCESS:     345184  HIT:     305612  MISS:      39572
cpu0_L2C RFO       ACCESS:        606  HIT:        606  MISS:          0
cpu0_L2C PREFETCH  ACCESS:          0  HIT:          0  MISS:          0
cpu0_L2C WRITEBACK ACCESS:     108428  HIT:     108403  MISS:         25
LLC TOTAL     ACCESS:      40543  HIT:       2570  MISS:      37973
LLC LOAD      ACCESS:      39572  HIT:       1717  MISS:      37855
LLC RFO       ACCESS:          0  HIT:          0  MISS:          0
LLC PREFETCH  ACCESS:          0  HIT:          0  MISS:          0
LLC WRITEBACK ACCESS:        962  HIT:        844  MISS:        118
Heartbeat CPU 0 instructions: 112000003 cycles: 47343094 heartbeat IPC: 1.95313 cumulative IPC: 1.89765 (Simulation time: 1 hr 2 min 13 sec) 

Region of Interest Statistics
cpu0_DTLB TOTAL     ACCESS:   13119426  HIT:   13114051  MISS:       5375
cpu0_DTLB LOAD      ACCESS:   12541787  HIT:   12536445  MISS:       5342
cpu0_DTLB RFO       ACCESS:     577639  HIT:     577606  MISS:         33
cpu0_DTLB PREFETCH  ACCESS:          0  HIT:          0  MISS:          0
cpu0_DTLB WRITEBACK ACCESS:          0  HIT:          0  MISS:          0
cpu0_ITLB TOTAL     ACCESS:      95450  HIT:      95450  MISS:          0
cpu0_ITLB LOAD      ACCESS:      95450  HIT:      95450  MISS:          0
cpu0_ITLB RFO       ACCESS:          0  HIT:          0  MISS:          0
cpu0_ITLB PREFETCH  ACCESS:          0  HIT:          0  MISS:          0
cpu0_ITLB WRITEBACK ACCESS:          0  HIT:          0  MISS:          0
cpu0_STLB TOTAL     ACCESS:       5375  HIT:       3500  MISS:       1875
cpu0_STLB LOAD      ACCESS:       5342  HIT:       3467  MISS:       1875
cpu0_STLB RFO       ACCESS:         33  HIT:         33  MISS:          0
cpu0_STLB PREFETCH  ACCESS:          0  HIT:          0  MISS:          0
cpu0_STLB WRITEBACK ACCESS:          0  HIT:          0  MISS:          0
cpu0_L1D TOTAL     ACCESS:   16578922  HIT:   16213718  MISS:     365204
cpu0_L1D LOAD      ACCESS:   14854991  HIT:   14490650  MISS:     364341
cpu0_L1D RFO       ACCESS:    1722056  HIT:    1721420  MISS:        636
cpu0_L1D PREFETCH  ACCESS:          0  HIT:          0  MISS:          0
cpu0_L1D WRITEBACK ACCESS:          0  HIT:          0  MISS:          0
cpu0_L2C TOTAL     ACCESS:     479941  HIT:     439132  MISS:      40809
cpu0_L2C LOAD      ACCESS:     364333  HIT:     323558  MISS:      40775
cpu0_L2C RFO       ACCESS:        636  HIT:        636  MISS:          0
cpu0_L2C PREFETCH  ACCESS:          0  HIT:          0  MISS:          0
cpu0_L2C WRITEBACK ACCESS:     114745  HIT:     114720  MISS:         25
LLC TOTAL     ACCESS:      41762  HIT:       2590  MISS:      39172
LLC LOAD      ACCESS:      40775  HIT:       1722  MISS:      39053
LLC RFO       ACCESS:          0  HIT:          0  MISS:          0
LLC PREFETCH  ACCESS:          0  HIT:          0  MISS:          0
LLC WRITEBACK ACCESS:        978  HIT:        859  MISS:        119
Heartbeat CPU 0 instructions: 114000001 cycles: 48363160 heartbeat IPC: 1.96066 cumulative IPC: 1.89955 (Simulation time: 1 hr 3 min 31 sec) 

Region of Interest Statistics
cpu0_DTLB TOTAL     ACCESS:   13541590  HIT:   13536124  MISS:       5466
cpu0_DTLB LOAD      ACCESS:   12945431  HIT:   12939999  MISS:       5432
cpu0_DTLB RFO       ACCESS:     596159  HIT:     596125  MISS:         34
cpu0_DTLB PREFETCH  ACCESS:          0  HIT:          0  MISS:          0
cpu0_DTLB WRITEBACK ACCESS:          0  HIT:          0  MISS:          0
cpu0_ITLB TOTAL     ACCESS:      96968  HIT:      96968  MISS:          0
cpu0_ITLB LOAD      ACCESS:      96968  HIT:      96968  MISS:          0
cpu0_ITLB RFO       ACCESS:          0  HIT:          0  MISS:          0
cpu0_ITLB PREFETCH  ACCESS:          0  HIT:          0  MISS:          0
cpu0_ITLB WRITEBACK ACCESS:          0  HIT:          0  MISS:          0
cpu0_STLB TOTAL     ACCESS:       5466  HIT:       3569  MISS:       1897
cpu0_STLB LOAD      ACCESS:       5432  HIT:       3535  MISS:       1897
cpu0_STLB RFO       ACCESS:         34  HIT:         34  MISS:          0
cpu0_STLB PREFETCH  ACCESS:          0  HIT:          0  MISS:          0
cpu0_STLB WRITEBACK ACCESS:          0  HIT:          0  MISS:          0
cpu0_L1D TOTAL     ACCESS:   17113880  HIT:   16726928  MISS:     386952
cpu0_L1D LOAD      ACCESS:   15334648  HIT:   14948601  MISS:     386047
cpu0_L1D RFO       ACCESS:    1777335  HIT:    1776677  MISS:        658
cpu0_L1D PREFETCH  ACCESS:          0  HIT:          0  MISS:          0
cpu0_L1D WRITEBACK ACCESS:          0  HIT:          0  MISS:          0
cpu0_L2C TOTAL     ACCESS:     509078  HIT:     467048  MISS:      42030
cpu0_L2C LOAD      ACCESS:     386039  HIT:     344043  MISS:      41996
cpu0_L2C RFO       ACCESS:        658  HIT:        658  MISS:          0
cpu0_L2C PREFETCH  ACCESS:          0  HIT:          0  MISS:          0
cpu0_L2C WRITEBACK ACCESS:     122134  HIT:     122109  MISS:         25
LLC TOTAL     ACCESS:      42998  HIT:       2614  MISS:      40384
LLC LOAD      ACCESS:      41996  HIT:       1731  MISS:      40265
LLC RFO       ACCESS:          0  HIT:          0  MISS:          0
LLC PREFETCH  ACCESS:          0  HIT:          0  MISS:          0
LLC WRITEBACK ACCESS:        993  HIT:        874  MISS:        119
Heartbeat CPU 0 instructions: 116000000 cycles: 49381778 heartbeat IPC: 1.96344 cumulative IPC: 1.90143 (Simulation time: 1 hr 4 min 50 sec) 

Region of Interest Statistics
cpu0_DTLB TOTAL     ACCESS:   13964022  HIT:   13958476  MISS:       5546
cpu0_DTLB LOAD      ACCESS:   13349331  HIT:   13343820  MISS:       5511
cpu0_DTLB RFO       ACCESS:     614691  HIT:     614656  MISS:         35
cpu0_DTLB PREFETCH  ACCESS:          0  HIT:          0  MISS:          0
[...]
cpu0_DTLB LOAD      ACCESS:  287336997  HIT:  286772857  MISS:     564140
cpu0_DTLB RFO       ACCESS:   18987305  HIT:   18977215  MISS:      10090
cpu0_DTLB PREFETCH  ACCESS:          0  HIT:          0  MISS:          0
cpu0_DTLB WRITEBACK ACCESS:          0  HIT:          0  MISS:          0
cpu0_DTLB TRANSLATION ACCESS:          0  HIT:          0  MISS:          0
cpu0_DTLB PREFETCH  REQUESTED:          0  ISSUED:          0  USEFUL:          0  USELESS:          0
cpu0_DTLB AVERAGE MISS LATENCY: 23.3703 cycles
cpu0_ITLB TOTAL     ACCESS:    7763779  HIT:    7763755  MISS:         24
cpu0_ITLB LOAD      ACCESS:    7763779  HIT:    7763755  MISS:         24
cpu0_ITLB RFO       ACCESS:          0  HIT:          0  MISS:          0
cpu0_ITLB PREFETCH  ACCESS:          0  HIT:          0  MISS:          0
cpu0_ITLB WRITEBACK ACCESS:          0  HIT:          0  MISS:          0
cpu0_ITLB TRANSLATION ACCESS:          0  HIT:          0  MISS:          0
cpu0_ITLB PREFETCH  REQUESTED:          0  ISSUED:          0  USEFUL:          0  USELESS:          0
cpu0_ITLB AVERAGE MISS LATENCY: 330.625 cycles
cpu0_L1I TOTAL     ACCESS:   18926043  HIT:   18925565  MISS:        478
cpu0_L1I LOAD      ACCESS:   18926043  HIT:   18925565  MISS:        478
cpu0_L1I RFO       ACCESS:          0  HIT:          0  MISS:          0
cpu0_L1I PREFETCH  ACCESS:          0  HIT:          0  MISS:          0
cpu0_L1I WRITEBACK ACCESS:          0  HIT:          0  MISS:          0
cpu0_L1I TRANSLATION ACCESS:          0  HIT:          0  MISS:          0
cpu0_L1I PREFETCH  REQUESTED:          0  ISSUED:          0  USEFUL:          0  USELESS:          0
cpu0_L1I AVERAGE MISS LATENCY: 228.586 cycles
cpu0_STLB TOTAL     ACCESS:     574254  HIT:     542013  MISS:      32241
cpu0_STLB LOAD      ACCESS:     564164  HIT:     533486  MISS:      30678
cpu0_STLB RFO       ACCESS:      10090  HIT:       8527  MISS:       1563
cpu0_STLB PREFETCH  ACCESS:          0  HIT:          0  MISS:          0
cpu0_STLB WRITEBACK ACCESS:          0  HIT:          0  MISS:          0
cpu0_STLB TRANSLATION ACCESS:          0  HIT:          0  MISS:          0
cpu0_STLB PREFETCH  REQUESTED:          0  ISSUED:          0  USEFUL:          0  USELESS:          0
cpu0_STLB AVERAGE MISS LATENCY: 255.674 cycles
cpu0_L1D TOTAL     ACCESS:  394533213  HIT:  382118037  MISS:   12415176
cpu0_L1D LOAD      ACCESS:  339960612  HIT:  327670707  MISS:   12289905
cpu0_L1D RFO       ACCESS:   54541509  HIT:   54426573  MISS:     114936
cpu0_L1D PREFETCH  ACCESS:          0  HIT:          0  MISS:          0
cpu0_L1D WRITEBACK ACCESS:          0  HIT:          0  MISS:          0
cpu0_L1D TRANSLATION ACCESS:      31092  HIT:      20757  MISS:      10335
cpu0_L1D PREFETCH  REQUESTED:          0  ISSUED:          0  USEFUL:          0  USELESS:          0
cpu0_L1D AVERAGE MISS LATENCY: 53.2646 cycles
cpu0_L2C TOTAL     ACCESS:   16558102  HIT:   14668443  MISS:    1889659
cpu0_L2C LOAD      ACCESS:   12290330  HIT:   10506203  MISS:    1784127
cpu0_L2C RFO       ACCESS:     114936  HIT:      10333  MISS:     104603
cpu0_L2C PREFETCH  ACCESS:          0  HIT:          0  MISS:          0
cpu0_L2C WRITEBACK ACCESS:    4142501  HIT:    4141828  MISS:        673
cpu0_L2C TRANSLATION ACCESS:      10335  HIT:      10079  MISS:        256
cpu0_L2C PREFETCH  REQUESTED:          0  ISSUED:          0  USEFUL:          0  USELESS:          0
cpu0_L2C AVERAGE MISS LATENCY: 277.624 cycles
LLC TOTAL     ACCESS:    2305323  HIT:     344757  MISS:    1960566
LLC LOAD      ACCESS:    1784126  HIT:     130065  MISS:    1654061
LLC RFO       ACCESS:     104603  HIT:        132  MISS:     104471
LLC PREFETCH  ACCESS:          0  HIT:          0  MISS:          0
LLC WRITEBACK ACCESS:     416338  HIT:     214395  MISS:     201943
LLC TRANSLATION ACCESS:        256  HIT:        165  MISS:         91
LLC PREFETCH  REQUESTED:          0  ISSUED:          0  USEFUL:          0  USELESS:          0
LLC AVERAGE MISS LATENCY: 247.35 cycles
~~~~~~~~~~Reuse Distance Profiler output~~~~~~~~~~
0	17960288	1351328
1	7867824	2947968
2	11220000	1835184
3	3058496	2477024
4	3659648	3104624
5	13449040	12660432
6	15408768	13461392
7	6390528	4444880
8	7883520	7497920
9	5721984	4859504
10	13295248	12399328
11	4909488	4630224
12	3721440	3469184
13	2494512	2273024
14	3884592	3340384
15	2636800	2337008
16	2499984	2343104
17	2821904	2565952
18	3198592	2972048
19	4807488	4608944
20	3360576	2863056
21	12023216	11373888
22	10235280	10051808
23	11459344	10736592
24	11138192	5007152
25	3311824	3118096
26	7301008	7103952
27	15931824	15774560
28	84184016	84034032
29	32302064	32138304
30	18460752	18303808
31	2334416	2204128
32	2549504	2433968
33	1653200	1439776
34	2147680	1791376
35	1368832	912560
36	1723952	1500032
37	916256	760224
38	1106080	977472
39	683056	537040
40	639024	519776
41	274032	167152
42	207456	123744
43	192576	118336
44	176384	113824
45	155584	108256
46	162768	122000
47	180864	135648
48	168400	119856
49	163744	107376
50	276288	209120
51	247040	181392
52	265216	202384
53	186528	126112
54	223936	161072
55	391184	322240
56	727264	656944
57	1536224	1471280
58	1397808	1334896
59	1400208	1339888
60	472080	399840
61	306384	234896
62	340464	222432
63	254000	148032
64	418384	203200
66	354400	175584
68	339024	206336
70	271792	185344
72	280304	163344
74	282592	168864
76	277008	200928
78	331008	256928
80	377920	298016
82	330976	272896
84	509088	470784
86	1294896	1263136
88	733680	702560
90	441664	408704
92	358976	327456
94	272384	245568
96	249344	219888
98	266592	224416
100	295536	246992
102	332272	290016
104	354416	329264
106	456032	440480
108	628560	616528
110	659456	651312
112	442048	431696
114	437024	419264
116	608928	592560
118	196064	188480
120	106256	103472
122	68272	66080
124	45264	42752
126	45728	43440
128	65328	62064
132	48912	46688
136	77376	74992
140	154224	152880
144	405008	403600
148	74720	73248
152	28176	25728
156	25872	23488
160	26272	23984
164	43920	41936
168	132160	129936
172	402688	400224
176	211632	209440
180	32144	30160
184	21152	19296
188	23376	22112
192	23040	22304
196	68272	67808
200	231680	231440
204	244288	243952
208	56864	56384
212	32304	31984
216	36096	35920
220	36496	36320
224	62528	62352
228	207984	207776
232	363088	362976
236	55408	55232
240	14880	14480
244	12320	12096
248	11648	11360
252	15024	14784
256	221632	221296
264	72208	71888
272	16960	16848
280	55040	54960
288	239360	239344
296	30800	30800
304	19184	19120
312	153328	153312
320	167504	167408
328	29280	29088
336	19328	19328
344	263280	263248
352	53392	53328
360	13376	13312
368	34960	34880
376	107936	107920
384	16736	16720
392	9232	9216
400	141040	140944
408	100208	100208
416	15136	15104
424	33792	33776
432	214704	214704
440	42896	42896
448	14944	14928
456	27808	27808
464	230832	230832
472	14624	14608
480	13728	13728
488	132176	132160
496	63760	63760
504	11968	11952
512	127712	127696
528	32032	32016
544	366416	366384
560	28992	28960
576	119328	119328
592	24960	24944
608	78752	78736
624	53808	53760
640	94416	94384
656	30512	30480
672	13792	13792
688	62352	62288
704	10192	10192
720	19632	19584
736	10784	10768
752	24512	24512
768	16272	16272
784	17328	17328
800	12096	12064
816	11104	11104
832	15056	15056
848	9968	9968
864	23648	23648
880	9584	9536
896	12928	12928
912	6208	6160
928	11904	11888
944	9328	9312
960	10528	10528
976	11456	11440
992	7600	7600
1008	7600	7552
1024	13600	13600
1056	16176	16064
1088	21504	21504
1120	12944	12864
1152	15264	15232
1184	18192	18192
1216	13408	13408
1248	12768	12736
1280	14336	14336
1312	12880	12880
1344	7872	7840
1376	10992	10944
1408	11632	11632
1440	7984	7920
1472	8560	8432
1504	12512	12512
1536	11536	11520
1568	9152	9104
1600	10144	10144
1632	11312	11296
1664	8960	8960
1696	9584	9568
1728	10128	10096
1760	8144	8048
1792	9808	9792
1824	10592	10544
1856	10752	10672
1888	8528	8480
1920	9056	9040
1952	8496	8496
1984	7680	7664
2016	8128	8128
2048	16624	16512
2112	15744	15632
2176	16992	16992
2240	19488	19392
2304	17472	17408
2368	18256	18208
2432	16576	16464
2496	16128	16016
2560	15344	15248
2624	15648	15600
2688	15648	15568
2752	13920	13840
2816	16704	16688
2880	16528	16432
2944	14864	14752
3008	13152	13104
3072	14864	14816
3136	12704	12672
3200	12848	12832
3264	13664	13584
3328	15280	15216
3392	13904	13872
3456	14640	14576
3520	14704	14672
3584	14144	14096
3648	13088	12976
3712	14896	14800
3776	14928	14736
3840	14576	14448
3904	15600	15504
3968	15808	15712
4032	14128	14016
4096	33648	33504
4224	32256	32048
4352	29168	29040
4480	30512	30400
4608	31280	31104
4736	35296	35200
4864	32896	32784
4992	32768	32576
5120	32384	32096
5248	31824	31696
5376	34320	34160
5504	30560	30464
5632	29264	29088
5760	28304	28224
5888	27328	27232
6016	26912	26784
6144	26096	26016
6272	25776	25712
6400	27440	27296
6528	26448	26352
6656	24336	24160
6784	25920	25856
6912	27584	27504
7040	28992	28880
7168	29904	29840
7296	28672	28544
7424	25760	25712
7552	28480	28400
7680	28320	28256
7808	25872	25808
7936	27424	27328
8064	27072	26976
8192	60304	60160
8448	59072	58864
8704	58592	58400
8960	62976	62768
9216	67808	67568
9472	74128	73872
9728	72544	72288
9984	65584	65440
10240	63632	63488
10496	60960	60752
10752	65728	65536
11008	67824	67616
11264	65920	65696
11520	58400	58272
11776	60240	60080
12032	61920	61808
12288	68928	68784
12544	73312	73136
12800	66528	66352
13056	70704	70592
13312	72752	72560
13568	77504	77296
13824	77488	77248
14080	77840	77616
14336	83568	83328
14592	82688	82496
14848	74416	74288
15104	81264	81168
15360	86192	86016
15616	87344	87184
15872	98064	97760
16128	90528	90416
16384	176896	176560
16896	167904	167440
17408	160848	160608
17920	161904	161696
18432	160544	160304
18944	168544	168224
19456	203824	203472
19968	188544	188192
20480	179920	179744
20992	178832	178528
21504	167904	167600
22016	157552	157392
22528	160016	159776
23040	150800	150672
23552	134720	134512
24064	122704	122544
24576	115216	114960
25088	111664	111536
25600	103840	103760
26112	107808	107664
26624	108336	108112
27136	111808	111632
27648	110368	110272
28160	100288	100112
28672	106224	106128
29184	80400	80352
29696	84928	84832
30208	85712	85712
30720	83280	83264
31232	96304	96240
31744	100912	100784
32256	99376	99312
32768	196576	196432
33792	197648	197536
34816	217024	216896
35840	200752	200560
36864	211328	211248
37888	206784	206512
38912	217312	217120
39936	208736	208560
40960	211952	211824
41984	204576	204448
43008	206352	206160
44032	195840	195664
45056	203440	203312
46080	182608	182528
47104	197328	197216
48128	192848	192704
49152	201984	201888
50176	192368	192288
51200	180304	180144
52224	165792	165728
53248	133520	133440
54272	134880	134832
55296	148352	148256
56320	148832	148736
57344	122928	122848
58368	102944	102896
59392	95968	95952
60416	69376	69376
61440	78432	78400
62464	87568	87536
63488	109360	109312
64512	118128	118080
65536	254112	254000
67584	264384	264224
69632	193200	193120
71680	110336	110304
73728	110080	110048
75776	133120	133104
77824	129680	129600
79872	135424	135408
81920	112640	112592
83968	62416	62416
86016	20624	20624
88064	10880	10880
90112	7584	7584
92160	8496	8480
94208	9104	9088
96256	8560	8528
98304	8080	8080
100352	8032	8032
102400	7856	7840
104448	7472	7472
106496	7408	7376
108544	7200	7184
110592	6752	6736
112640	7232	7200
114688	5696	5696
116736	6816	6816
118784	5952	5920
120832	6336	6336
122880	6048	6048
124928	5440	5424
126976	6816	6816
129024	6928	6928
131072	12992	12992
135168	15104	15088
139264	13424	13408
143360	8480	8480
147456	10480	10480
151552	12320	12304
155648	10096	10080
159744	10656	10640
163840	11216	11216
167936	8544	8512
172032	6416	6416
176128	6656	6608
180224	7136	7136
184320	6480	6448
188416	4928	4928
192512	5264	5248
196608	6128	6128
200704	5216	5216
204800	5936	5936
208896	5200	5184
212992	4352	4336
217088	4192	4192
221184	4176	4176
225280	4160	4160
229376	3888	3888
233472	3840	3808
237568	3888	3872
241664	3776	3776
245760	4608	4608
249856	4624	4624
253952	4064	4048
258048	3760	3760
262144	7216	7152
270336	7104	7104
278528	10000	9984
286720	9920	9904
294912	8656	8640
303104	8480	8432
311296	7584	7584
319488	9136	9120
327680	7936	7936
335872	7696	7648
344064	8096	8080
352256	4688	4688
360448	3824	3792
368640	4928	4912
376832	4192	4144
385024	4784	4784
393216	7344	7344
401408	20608	20592
409600	16432	16400
417792	14192	14160
425984	2096	2096
434176	1808	1792
442368	2016	1984
450560	2160	2144
458752	1984	1984
466944	1952	1920
475136	1920	1920
483328	1728	1712
491520	1440	1424
499712	2176	2160
507904	1680	1664
516096	1904	1904
524288	2912	2896
540672	3184	3104
557056	3056	3008
573440	4672	2720
589824	19408	2800
606208	8160	2688
622592	2800	2736
638976	2800	2784
655360	2272	2256
671744	2336	2304
688128	1984	1968
704512	2256	2240
720896	2080	2064
737280	1840	1792
753664	1936	1920
770048	2128	2080
786432	1792	1776
802816	1504	1472
819200	1728	1712
835584	2176	2128
851968	1408	1392
868352	1344	1328
884736	1600	1584
901120	1616	1600
917504	1216	1184
933888	1424	1392
950272	1184	1136
966656	1424	1424
983040	1104	1088
999424	1552	1552
1015808	1184	1152
1032192	1280	1264
1048576	2592	2560
1081344	2160	2144
1114112	2624	2560
1146880	2160	2128
1179648	2048	1984
1212416	2512	2448
1245184	2096	2064
1277952	1936	1904
1310720	1872	1824
1343488	1824	1792
1376256	1936	1936
1409024	1872	1840
1441792	1760	1696
1474560	1504	1472
1507328	1568	1536
1540096	1808	1776
1572864	1424	1392
1605632	1696	1680
1638400	1872	1840
1671168	1696	1648
1703936	1360	1312
1736704	1584	1552
1769472	1264	1216
1802240	1056	1024
1835008	1536	1504
1867776	1616	1600
1900544	1360	1264
1933312	1456	1440
1966080	1280	1248
1998848	1136	1120
2031616	1200	1184
2064384	1488	1456
2097152	2592	2512
2162688	2576	2528
2228224	2592	2496
2293760	2256	2128
2359296	2560	2480
2424832	2352	2256
2490368	2640	2608
2555904	2976	2896
2621440	2416	2368
2686976	2208	2096
2752512	1888	1824
2818048	2432	2336
2883584	2304	2224
2949120	1936	1840
3014656	2128	2032
3080192	2208	2144
3145728	1808	1744
3211264	2016	1968
3276800	2192	2064
3342336	1856	1728
3407872	1968	1888
3473408	1552	1472
3538944	1680	1632
3604480	1728	1664
3670016	2016	1936
3735552	1680	1616
3801088	1872	1840
3866624	1664	1632
3932160	1808	1712
3997696	1968	1936
4063232	1712	1584
4128768	2128	2048
4194304	3872	3712
4325376	3504	3312
4456448	3296	3168
4587520	3600	3408
4718592	5456	5344
4849664	6176	5952
4980736	6304	6176
5111808	5920	5712
5242880	6240	6048
5373952	5904	5760
5505024	5952	5824
5636096	6240	6080
5767168	6896	6736
5898240	7008	6800
6029312	5792	5584
6160384	6096	5936
6291456	5456	5328
6422528	5568	5424
6553600	5104	5104
6684672	4992	4992
6815744	4672	4672
6946816	4992	4992
7077888	5664	5664
7208960	5088	5088
7340032	5040	5040
7471104	5264	5264
7602176	5104	5104
7733248	2816	2816
7864320	3008	3008
7995392	2736	2736
8126464	2992	2992
8257536	2624	2624
8388608	4800	4800
8650752	5184	5184
8912896	4944	4944
9175040	4976	4976
9437184	5280	5280
9699328	4720	4720
9961472	5424	5424
10223616	4832	4832
10485760	5200	5200
10747904	3712	3712
11010048	3264	3264
11272192	3936	3936
11534336	5168	5168
11796480	4480	4480
12058624	4416	4416
12320768	4688	4688
12582912	5216	5216
12845056	3504	3504
13107200	2864	2864
13369344	2304	2304
13631488	496	496
13893632	480	480
14155776	768	768
14417920	464	464
14680064	768	768
14942208	608	608
15204352	560	560
15466496	848	848
15728640	528	528
15990784	544	544
16252928	624	624
16515072	272	272
16777216	624	624
17301504	880	880
17825792	720	720
18350080	656	656
18874368	880	880
19398656	528	528
19922944	528	528
20447232	576	576
20971520	1232	1216
21495808	928	928
22020096	528	528
22544384	832	832
23068672	848	848
23592960	640	640
24117248	656	656
24641536	784	784
25165824	720	720
25690112	528	528
26214400	368	368
26738688	416	416
27262976	672	672
27787264	528	528
28311552	352	352
28835840	368	368
29360128	352	352
29884416	224	224
30408704	352	352
30932992	368	368
31457280	208	208
31981568	176	176
32505856	176	176
33030144	288	288
33554432	384	384
34603008	624	624
35651584	624	624
36700160	592	592
37748736	800	800
38797312	992	992
39845888	720	720
40894464	512	512
41943040	656	656
42991616	400	400
44040192	240	240
45088768	896	896
46137344	624	608
47185920	272	240
48234496	400	400
49283072	592	576
50331648	672	656
51380224	624	624
52428800	656	624
53477376	464	464
54525952	384	368
55574528	416	416
56623104	400	400
57671680	288	288
58720256	320	320
59768832	256	256
60817408	256	256
61865984	224	208
62914560	224	208
63963136	256	240
65011712	256	240
66060288	352	336
67108864	960	896
69206016	656	656
71303168	736	736
73400320	944	928
75497472	816	768
77594624	704	672
79691776	1216	1184
81788928	688	672
83886080	976	976
85983232	816	816
88080384	720	720
90177536	832	816
92274688	448	448
94371840	736	688
96468992	256	256
98566144	560	544
100663296	736	720
102760448	624	608
104857600	336	320
106954752	432	432
109051904	448	448
111149056	384	384
113246208	544	512
115343360	320	320
117440512	464	464
119537664	640	624
121634816	368	352
123731968	272	240
125829120	192	192
127926272	320	288
130023424	320	304
132120576	304	304
134217728	496	464
138412032	352	320
142606336	912	864
146800640	944	912
150994944	608	576
155189248	864	816
159383552	368	336
163577856	800	800
167772160	912	912
171966464	1280	1280
176160768	1296	1296
180355072	1696	1696
184549376	1456	1456
188743680	1232	1232
192937984	208	208
197132288	480	480
201326592	496	496
205520896	224	224
209715200	112	112
213909504	80	80
218103808	224	224
222298112	80	80
226492416	160	160
230686720	208	208
234881024	80	80
239075328	16	16
243269632	0	0
247463936	0	0
251658240	0	0
255852544	0	0
260046848	0	0
264241152	0	0
268435456	0	0
276824064	0	0
285212672	0	0
293601280	0	0
301989888	0	0
310378496	0	0
318767104	0	0
327155712	0	0
335544320	0	0
343932928	0	0
352321536	0	0
360710144	0	0
369098752	0	0
377487360	0	0
385875968	0	0
394264576	0	0
402653184	0	0
411041792	0	0
419430400	0	0
427819008	0	0
436207616	0	0
444596224	0	0
452984832	0	0
461373440	0	0
469762048	0	0
478150656	0	0
486539264	0	0
494927872	0	0
503316480	0	0
511705088	0	0
520093696	0	0
528482304	0	0
536870912	0	0
553648128	0	0
570425344	0	0
587202560	0	0
603979776	0	0
620756992	0	0
637534208	0	0
654311424	0	0
671088640	0	0
687865856	0	0
704643072	0	0
721420288	0	0
738197504	0	0
754974720	0	0
771751936	0	0
788529152	0	0
805306368	0	0
822083584	0	0
838860800	0	0
855638016	0	0
872415232	0	0
889192448	0	0
905969664	0	0
922746880	0	0
939524096	0	0
956301312	0	0
973078528	0	0
989855744	0	0
1006632960	0	0
1023410176	0	0
1040187392	0	0
1056964608	0	0
1073741824	0	0
1107296256	0	0
1140850688	0	0
1174405120	0	0
1207959552	0	0
1241513984	0	0
1275068416	0	0
1308622848	0	0
1342177280	0	0
1375731712	0	0
1409286144	0	0
1442840576	0	0
1476395008	0	0
1509949440	0	0
1543503872	0	0
1577058304	0	0
1610612736	0	0
1644167168	0	0
1677721600	0	0
1711276032	0	0
1744830464	0	0
1778384896	0	0
1811939328	0	0
1845493760	0	0
1879048192	0	0
1912602624	0	0
1946157056	0	0
1979711488	0	0
2013265920	0	0
2046820352	0	0
2080374784	0	0
2113929216	0	0
2147483648	0	0
2214592512	0	0
2281701376	0	0
2348810240	0	0
2415919104	0	0
2483027968	0	0
2550136832	0	0
2617245696	0	0
2684354560	0	0
2751463424	0	0
2818572288	0	0
2885681152	0	0
2952790016	0	0
3019898880	0	0
3087007744	0	0
3154116608	0	0
3221225472	0	0
3288334336	0	0
3355443200	0	0
3422552064	0	0
3489660928	0	0
3556769792	0	0
3623878656	0	0
3690987520	0	0
3758096384	0	0
3825205248	0	0
3892314112	0	0
3959422976	0	0
4026531840	0	0
4093640704	0	0
4160749568	0	0
4227858432	0	0
~~~~~~~~~~Reuse Distance Profiler output end~~~~~~~~~~

Sampler size:74404

DRAM Statistics
 CHANNEL 0
 RQ ROW_BUFFER_HIT:     635809  ROW_BUFFER_MISS:    1122632
 DBUS AVG_CONGESTED_CYCLE:    3.95255
 WQ ROW_BUFFER_HIT:      34113  ROW_BUFFER_MISS:     316235  FULL:        460


CPU 0 Branch Prediction Accuracy: 99.6101% MPKI: 0.368872 Average ROB Occupancy at Mispredict: 154.937
Branch type MPKI
BRANCH_DIRECT_JUMP: 6.13333e-05
BRANCH_INDIRECT: 0.0929827
BRANCH_CONDITIONAL: 0.275796
BRANCH_DIRECT_CALL: 1.6e-05
BRANCH_INDIRECT_CALL: 0
BRANCH_RETURN: 1.6e-05

