
*** ChampSim Multicore Out-of-Order Simulator ***

Warmup Instructions: 50000000
Simulation Instructions: 1500000000
Number of CPUs: 1
Off-chip DRAM Size: 4 GiB Channels: 1 Width: 64-bit Data Rate: 3200 MT/s

VirtualMemory physical capacity: 8588881920 num_ppages: 2096895
VirtualMemory page size: 4096 log2_page_size: 12

CPU 0 runs /s/traces/champsim_traces/644.nab_s-12521B.champsimtrace.xz
CPU 0 Bimodal branch predictor
Basic BTB sets: 1024 ways: 8 indirect buffer size: 4096 RAS size: 64
Initializing LRU.
Initializing LRU.
Initializing LRU.
Initializing LRU.
Initializing rdLRU.
Initializing LRU.
Heartbeat CPU 0 instructions: 2000000 cycles: 587024 heartbeat IPC: 3.40702 cumulative IPC: 3.40702 (Simulation time: 0 hr 0 min 55 sec) 
Heartbeat CPU 0 instructions: 4000002 cycles: 1173934 heartbeat IPC: 3.40768 cumulative IPC: 3.40735 (Simulation time: 0 hr 1 min 47 sec) 
Heartbeat CPU 0 instructions: 6000000 cycles: 1760795 heartbeat IPC: 3.40796 cumulative IPC: 3.40755 (Simulation time: 0 hr 2 min 40 sec) 
Heartbeat CPU 0 instructions: 8000003 cycles: 2347602 heartbeat IPC: 3.40828 cumulative IPC: 3.40773 (Simulation time: 0 hr 3 min 31 sec) 
Heartbeat CPU 0 instructions: 10000002 cycles: 2934347 heartbeat IPC: 3.40863 cumulative IPC: 3.40791 (Simulation time: 0 hr 4 min 27 sec) 
Heartbeat CPU 0 instructions: 12000002 cycles: 3521091 heartbeat IPC: 3.40864 cumulative IPC: 3.40804 (Simulation time: 0 hr 5 min 20 sec) 
Heartbeat CPU 0 instructions: 14000003 cycles: 4107863 heartbeat IPC: 3.40848 cumulative IPC: 3.4081 (Simulation time: 0 hr 6 min 15 sec) 
Heartbeat CPU 0 instructions: 16000004 cycles: 4694731 heartbeat IPC: 3.40792 cumulative IPC: 3.40808 (Simulation time: 0 hr 7 min 9 sec) 
Heartbeat CPU 0 instructions: 18000001 cycles: 5281584 heartbeat IPC: 3.408 cumulative IPC: 3.40807 (Simulation time: 0 hr 7 min 56 sec) 
Heartbeat CPU 0 instructions: 20000000 cycles: 5868388 heartbeat IPC: 3.40829 cumulative IPC: 3.40809 (Simulation time: 0 hr 8 min 46 sec) 
Heartbeat CPU 0 instructions: 22000002 cycles: 6455168 heartbeat IPC: 3.40844 cumulative IPC: 3.40812 (Simulation time: 0 hr 9 min 29 sec) 
Heartbeat CPU 0 instructions: 24000004 cycles: 7042074 heartbeat IPC: 3.4077 cumulative IPC: 3.40809 (Simulation time: 0 hr 10 min 13 sec) 
Heartbeat CPU 0 instructions: 26000001 cycles: 7628990 heartbeat IPC: 3.40764 cumulative IPC: 3.40805 (Simulation time: 0 hr 11 min 11 sec) 
Heartbeat CPU 0 instructions: 28000000 cycles: 8215888 heartbeat IPC: 3.40775 cumulative IPC: 3.40803 (Simulation time: 0 hr 12 min 12 sec) 
Heartbeat CPU 0 instructions: 30000003 cycles: 8802625 heartbeat IPC: 3.40869 cumulative IPC: 3.40807 (Simulation time: 0 hr 13 min 15 sec) 
Heartbeat CPU 0 instructions: 32000004 cycles: 9389079 heartbeat IPC: 3.41033 cumulative IPC: 3.40822 (Simulation time: 0 hr 14 min 18 sec) 
Heartbeat CPU 0 instructions: 34000002 cycles: 9975577 heartbeat IPC: 3.41007 cumulative IPC: 3.40832 (Simulation time: 0 hr 15 min 19 sec) 
Heartbeat CPU 0 instructions: 36000003 cycles: 10562555 heartbeat IPC: 3.40728 cumulative IPC: 3.40827 (Simulation time: 0 hr 16 min 20 sec) 
Heartbeat CPU 0 instructions: 38000001 cycles: 11149507 heartbeat IPC: 3.40743 cumulative IPC: 3.40822 (Simulation time: 0 hr 17 min 20 sec) 
Heartbeat CPU 0 instructions: 40000002 cycles: 11736454 heartbeat IPC: 3.40746 cumulative IPC: 3.40818 (Simulation time: 0 hr 18 min 19 sec) 
Heartbeat CPU 0 instructions: 42000002 cycles: 12323346 heartbeat IPC: 3.40778 cumulative IPC: 3.40817 (Simulation time: 0 hr 19 min 16 sec) 
Heartbeat CPU 0 instructions: 44000000 cycles: 12910221 heartbeat IPC: 3.40788 cumulative IPC: 3.40815 (Simulation time: 0 hr 20 min 14 sec) 
Heartbeat CPU 0 instructions: 46000003 cycles: 13497129 heartbeat IPC: 3.40769 cumulative IPC: 3.40813 (Simulation time: 0 hr 21 min 9 sec) 
Heartbeat CPU 0 instructions: 48000003 cycles: 14084091 heartbeat IPC: 3.40738 cumulative IPC: 3.4081 (Simulation time: 0 hr 22 min 5 sec) 
Heartbeat CPU 0 instructions: 50000000 cycles: 14671040 heartbeat IPC: 3.40745 cumulative IPC: 3.40807 (Simulation time: 0 hr 23 min 1 sec) 

Warmup complete CPU 0 instructions: 50000005 cycles: 14671041 (Simulation time: 0 hr 23 min 1 sec) 

Heartbeat CPU 0 instructions: 52000003 cycles: 15698804 heartbeat IPC: 1.94597 cumulative IPC: 1.94597 (Simulation time: 0 hr 24 min 9 sec) 

Region of Interest Statistics
cpu0_DTLB TOTAL     ACCESS:     421473  HIT:     421329  MISS:        144
cpu0_DTLB LOAD      ACCESS:     402973  HIT:     402829  MISS:        144
cpu0_DTLB RFO       ACCESS:      18500  HIT:      18500  MISS:          0
cpu0_DTLB PREFETCH  ACCESS:          0  HIT:          0  MISS:          0
cpu0_DTLB WRITEBACK ACCESS:          0  HIT:          0  MISS:          0
cpu0_ITLB TOTAL     ACCESS:       1477  HIT:       1477  MISS:          0
cpu0_ITLB LOAD      ACCESS:       1477  HIT:       1477  MISS:          0
cpu0_ITLB RFO       ACCESS:          0  HIT:          0  MISS:          0
cpu0_ITLB PREFETCH  ACCESS:          0  HIT:          0  MISS:          0
cpu0_ITLB WRITEBACK ACCESS:          0  HIT:          0  MISS:          0
cpu0_STLB TOTAL     ACCESS:        144  HIT:        108  MISS:         36
cpu0_STLB LOAD      ACCESS:        144  HIT:        108  MISS:         36
cpu0_STLB RFO       ACCESS:          0  HIT:          0  MISS:          0
cpu0_STLB PREFETCH  ACCESS:          0  HIT:          0  MISS:          0
cpu0_STLB WRITEBACK ACCESS:          0  HIT:          0  MISS:          0
cpu0_L1D TOTAL     ACCESS:     535260  HIT:     516610  MISS:      18650
cpu0_L1D LOAD      ACCESS:     479929  HIT:     461329  MISS:      18600
cpu0_L1D RFO       ACCESS:      55295  HIT:      55263  MISS:         32
cpu0_L1D PREFETCH  ACCESS:          0  HIT:          0  MISS:          0
cpu0_L1D WRITEBACK ACCESS:          0  HIT:          0  MISS:          0
cpu0_L2C TOTAL     ACCESS:      24876  HIT:      23655  MISS:       1221
cpu0_L2C LOAD      ACCESS:      18600  HIT:      17379  MISS:       1221
cpu0_L2C RFO       ACCESS:         32  HIT:         32  MISS:          0
cpu0_L2C PREFETCH  ACCESS:          0  HIT:          0  MISS:          0
cpu0_L2C WRITEBACK ACCESS:       6226  HIT:       6226  MISS:          0
LLC TOTAL     ACCESS:       1254  HIT:         56  MISS:       1198
LLC LOAD      ACCESS:       1221  HIT:         23  MISS:       1198
LLC RFO       ACCESS:          0  HIT:          0  MISS:          0
LLC PREFETCH  ACCESS:          0  HIT:          0  MISS:          0
LLC WRITEBACK ACCESS:         33  HIT:         33  MISS:          0
Heartbeat CPU 0 instructions: 54000002 cycles: 16765991 heartbeat IPC: 1.87408 cumulative IPC: 1.90935 (Simulation time: 0 hr 25 min 22 sec) 

Region of Interest Statistics
cpu0_DTLB TOTAL     ACCESS:     847262  HIT:     846819  MISS:        443
cpu0_DTLB LOAD      ACCESS:     810120  HIT:     809679  MISS:        441
cpu0_DTLB RFO       ACCESS:      37142  HIT:      37140  MISS:          2
cpu0_DTLB PREFETCH  ACCESS:          0  HIT:          0  MISS:          0
cpu0_DTLB WRITEBACK ACCESS:          0  HIT:          0  MISS:          0
cpu0_ITLB TOTAL     ACCESS:       5641  HIT:       5641  MISS:          0
cpu0_ITLB LOAD      ACCESS:       5641  HIT:       5641  MISS:          0
cpu0_ITLB RFO       ACCESS:          0  HIT:          0  MISS:          0
cpu0_ITLB PREFETCH  ACCESS:          0  HIT:          0  MISS:          0
cpu0_ITLB WRITEBACK ACCESS:          0  HIT:          0  MISS:          0
cpu0_STLB TOTAL     ACCESS:        443  HIT:        335  MISS:        108
cpu0_STLB LOAD      ACCESS:        441  HIT:        333  MISS:        108
cpu0_STLB RFO       ACCESS:          2  HIT:          2  MISS:          0
cpu0_STLB PREFETCH  ACCESS:          0  HIT:          0  MISS:          0
cpu0_STLB WRITEBACK ACCESS:          0  HIT:          0  MISS:          0
cpu0_L1D TOTAL     ACCESS:    1070196  HIT:    1048415  MISS:      21781
cpu0_L1D LOAD      ACCESS:     959067  HIT:     937362  MISS:      21705
cpu0_L1D RFO       ACCESS:     111021  HIT:     110964  MISS:         57
cpu0_L1D PREFETCH  ACCESS:          0  HIT:          0  MISS:          0
cpu0_L1D WRITEBACK ACCESS:          0  HIT:          0  MISS:          0
cpu0_L2C TOTAL     ACCESS:      28686  HIT:      26199  MISS:       2487
cpu0_L2C LOAD      ACCESS:      21704  HIT:      19217  MISS:       2487
cpu0_L2C RFO       ACCESS:         57  HIT:         57  MISS:          0
cpu0_L2C PREFETCH  ACCESS:          0  HIT:          0  MISS:          0
cpu0_L2C WRITEBACK ACCESS:       6906  HIT:       6906  MISS:          0
LLC TOTAL     ACCESS:       2544  HIT:         82  MISS:       2462
LLC LOAD      ACCESS:       2487  HIT:         25  MISS:       2462
LLC RFO       ACCESS:          0  HIT:          0  MISS:          0
LLC PREFETCH  ACCESS:          0  HIT:          0  MISS:          0
LLC WRITEBACK ACCESS:         57  HIT:         57  MISS:          0
Heartbeat CPU 0 instructions: 56000001 cycles: 17844408 heartbeat IPC: 1.85457 cumulative IPC: 1.89074 (Simulation time: 0 hr 26 min 32 sec) 

Region of Interest Statistics
cpu0_DTLB TOTAL     ACCESS:    1275332  HIT:    1274653  MISS:        679
cpu0_DTLB LOAD      ACCESS:    1219440  HIT:    1218764  MISS:        676
cpu0_DTLB RFO       ACCESS:      55892  HIT:      55889  MISS:          3
cpu0_DTLB PREFETCH  ACCESS:          0  HIT:          0  MISS:          0
cpu0_DTLB WRITEBACK ACCESS:          0  HIT:          0  MISS:          0
cpu0_ITLB TOTAL     ACCESS:      10592  HIT:      10592  MISS:          0
cpu0_ITLB LOAD      ACCESS:      10592  HIT:      10592  MISS:          0
cpu0_ITLB RFO       ACCESS:          0  HIT:          0  MISS:          0
cpu0_ITLB PREFETCH  ACCESS:          0  HIT:          0  MISS:          0
cpu0_ITLB WRITEBACK ACCESS:          0  HIT:          0  MISS:          0
cpu0_STLB TOTAL     ACCESS:        679  HIT:        485  MISS:        194
cpu0_STLB LOAD      ACCESS:        676  HIT:        482  MISS:        194
cpu0_STLB RFO       ACCESS:          3  HIT:          3  MISS:          0
cpu0_STLB PREFETCH  ACCESS:          0  HIT:          0  MISS:          0
cpu0_STLB WRITEBACK ACCESS:          0  HIT:          0  MISS:          0
cpu0_L1D TOTAL     ACCESS:    1605004  HIT:    1581540  MISS:      23464
cpu0_L1D LOAD      ACCESS:    1437875  HIT:    1414491  MISS:      23384
cpu0_L1D RFO       ACCESS:     166935  HIT:     166875  MISS:         60
cpu0_L1D PREFETCH  ACCESS:          0  HIT:          0  MISS:          0
cpu0_L1D WRITEBACK ACCESS:          0  HIT:          0  MISS:          0
cpu0_L2C TOTAL     ACCESS:      30530  HIT:      26728  MISS:       3802
cpu0_L2C LOAD      ACCESS:      23383  HIT:      19581  MISS:       3802
cpu0_L2C RFO       ACCESS:         60  HIT:         60  MISS:          0
cpu0_L2C PREFETCH  ACCESS:          0  HIT:          0  MISS:          0
cpu0_L2C WRITEBACK ACCESS:       7067  HIT:       7067  MISS:          0
LLC TOTAL     ACCESS:       3900  HIT:        138  MISS:       3762
LLC LOAD      ACCESS:       3802  HIT:         40  MISS:       3762
LLC RFO       ACCESS:          0  HIT:          0  MISS:          0
LLC PREFETCH  ACCESS:          0  HIT:          0  MISS:          0
LLC WRITEBACK ACCESS:         98  HIT:         98  MISS:          0
Heartbeat CPU 0 instructions: 58000000 cycles: 18915589 heartbeat IPC: 1.8671 cumulative IPC: 1.88477 (Simulation time: 0 hr 27 min 44 sec) 

Region of Interest Statistics
cpu0_DTLB TOTAL     ACCESS:    1700739  HIT:    1699953  MISS:        786
cpu0_DTLB LOAD      ACCESS:    1626158  HIT:    1625376  MISS:        782
cpu0_DTLB RFO       ACCESS:      74581  HIT:      74577  MISS:          4
cpu0_DTLB PREFETCH  ACCESS:          0  HIT:          0  MISS:          0
cpu0_DTLB WRITEBACK ACCESS:          0  HIT:          0  MISS:          0
cpu0_ITLB TOTAL     ACCESS:      15115  HIT:      15115  MISS:          0
cpu0_ITLB LOAD      ACCESS:      15115  HIT:      15115  MISS:          0
cpu0_ITLB RFO       ACCESS:          0  HIT:          0  MISS:          0
cpu0_ITLB PREFETCH  ACCESS:          0  HIT:          0  MISS:          0
cpu0_ITLB WRITEBACK ACCESS:          0  HIT:          0  MISS:          0
cpu0_STLB TOTAL     ACCESS:        786  HIT:        513  MISS:        273
cpu0_STLB LOAD      ACCESS:        782  HIT:        509  MISS:        273
cpu0_STLB RFO       ACCESS:          4  HIT:          4  MISS:          0
cpu0_STLB PREFETCH  ACCESS:          0  HIT:          0  MISS:          0
cpu0_STLB WRITEBACK ACCESS:          0  HIT:          0  MISS:          0
cpu0_L1D TOTAL     ACCESS:    2139913  HIT:    2114408  MISS:      25505
cpu0_L1D LOAD      ACCESS:    1916866  HIT:    1891446  MISS:      25420
cpu0_L1D RFO       ACCESS:     222774  HIT:     222712  MISS:         62
cpu0_L1D PREFETCH  ACCESS:          0  HIT:          0  MISS:          0
cpu0_L1D WRITEBACK ACCESS:          0  HIT:          0  MISS:          0
cpu0_L2C TOTAL     ACCESS:      32796  HIT:      27689  MISS:       5107
cpu0_L2C LOAD      ACCESS:      25419  HIT:      20314  MISS:       5105
cpu0_L2C RFO       ACCESS:         62  HIT:         62  MISS:          0
cpu0_L2C PREFETCH  ACCESS:          0  HIT:          0  MISS:          0
cpu0_L2C WRITEBACK ACCESS:       7292  HIT:       7291  MISS:          1
LLC TOTAL     ACCESS:       5251  HIT:        205  MISS:       5046
LLC LOAD      ACCESS:       5105  HIT:         59  MISS:       5046
LLC RFO       ACCESS:          0  HIT:          0  MISS:          0
LLC PREFETCH  ACCESS:          0  HIT:          0  MISS:          0
LLC WRITEBACK ACCESS:        145  HIT:        145  MISS:          0
Heartbeat CPU 0 instructions: 60000000 cycles: 19974221 heartbeat IPC: 1.88923 cumulative IPC: 1.88566 (Simulation time: 0 hr 28 min 58 sec) 

Region of Interest Statistics
cpu0_DTLB TOTAL     ACCESS:    2127362  HIT:    2126474  MISS:        888
cpu0_DTLB LOAD      ACCESS:    2034166  HIT:    2033282  MISS:        884
cpu0_DTLB RFO       ACCESS:      93196  HIT:      93192  MISS:          4
cpu0_DTLB PREFETCH  ACCESS:          0  HIT:          0  MISS:          0
cpu0_DTLB WRITEBACK ACCESS:          0  HIT:          0  MISS:          0
cpu0_ITLB TOTAL     ACCESS:      18572  HIT:      18572  MISS:          0
cpu0_ITLB LOAD      ACCESS:      18572  HIT:      18572  MISS:          0
cpu0_ITLB RFO       ACCESS:          0  HIT:          0  MISS:          0
cpu0_ITLB PREFETCH  ACCESS:          0  HIT:          0  MISS:          0
cpu0_ITLB WRITEBACK ACCESS:          0  HIT:          0  MISS:          0
cpu0_STLB TOTAL     ACCESS:        888  HIT:        548  MISS:        340
cpu0_STLB LOAD      ACCESS:        884  HIT:        544  MISS:        340
cpu0_STLB RFO       ACCESS:          4  HIT:          4  MISS:          0
cpu0_STLB PREFETCH  ACCESS:          0  HIT:          0  MISS:          0
cpu0_STLB WRITEBACK ACCESS:          0  HIT:          0  MISS:          0
cpu0_L1D TOTAL     ACCESS:    2675125  HIT:    2646267  MISS:      28858
cpu0_L1D LOAD      ACCESS:    2396397  HIT:    2367628  MISS:      28769
cpu0_L1D RFO       ACCESS:     278388  HIT:     278323  MISS:         65
cpu0_L1D PREFETCH  ACCESS:          0  HIT:          0  MISS:          0
cpu0_L1D WRITEBACK ACCESS:          0  HIT:          0  MISS:          0
cpu0_L2C TOTAL     ACCESS:      36831  HIT:      30465  MISS:       6366
cpu0_L2C LOAD      ACCESS:      28767  HIT:      22404  MISS:       6363
cpu0_L2C RFO       ACCESS:         65  HIT:         65  MISS:          0
cpu0_L2C PREFETCH  ACCESS:          0  HIT:          0  MISS:          0
cpu0_L2C WRITEBACK ACCESS:       7975  HIT:       7973  MISS:          2
LLC TOTAL     ACCESS:       6566  HIT:        278  MISS:       6288
LLC LOAD      ACCESS:       6363  HIT:         75  MISS:       6288
LLC RFO       ACCESS:          0  HIT:          0  MISS:          0
LLC PREFETCH  ACCESS:          0  HIT:          0  MISS:          0
LLC WRITEBACK ACCESS:        202  HIT:        202  MISS:          0
Heartbeat CPU 0 instructions: 62000000 cycles: 21022269 heartbeat IPC: 1.90831 cumulative IPC: 1.8894 (Simulation time: 0 hr 30 min 9 sec) 

Region of Interest Statistics
cpu0_DTLB TOTAL     ACCESS:    2551455  HIT:    2550488  MISS:        967
cpu0_DTLB LOAD      ACCESS:    2439697  HIT:    2438735  MISS:        962
cpu0_DTLB RFO       ACCESS:     111758  HIT:     111753  MISS:          5
cpu0_DTLB PREFETCH  ACCESS:          0  HIT:          0  MISS:          0
cpu0_DTLB WRITEBACK ACCESS:          0  HIT:          0  MISS:          0
cpu0_ITLB TOTAL     ACCESS:      21161  HIT:      21161  MISS:          0
cpu0_ITLB LOAD      ACCESS:      21161  HIT:      21161  MISS:          0
cpu0_ITLB RFO       ACCESS:          0  HIT:          0  MISS:          0
cpu0_ITLB PREFETCH  ACCESS:          0  HIT:          0  MISS:          0
cpu0_ITLB WRITEBACK ACCESS:          0  HIT:          0  MISS:          0
cpu0_STLB TOTAL     ACCESS:        967  HIT:        571  MISS:        396
cpu0_STLB LOAD      ACCESS:        962  HIT:        566  MISS:        396
cpu0_STLB RFO       ACCESS:          5  HIT:          5  MISS:          0
cpu0_STLB PREFETCH  ACCESS:          0  HIT:          0  MISS:          0
cpu0_STLB WRITEBACK ACCESS:          0  HIT:          0  MISS:          0
cpu0_L1D TOTAL     ACCESS:    3210079  HIT:    3176507  MISS:      33572
cpu0_L1D LOAD      ACCESS:    2875796  HIT:    2842315  MISS:      33481
cpu0_L1D RFO       ACCESS:     333887  HIT:     333820  MISS:         67
cpu0_L1D PREFETCH  ACCESS:          0  HIT:          0  MISS:          0
cpu0_L1D WRITEBACK ACCESS:          0  HIT:          0  MISS:          0
cpu0_L2C TOTAL     ACCESS:      42776  HIT:      35161  MISS:       7615
cpu0_L2C LOAD      ACCESS:      33479  HIT:      25867  MISS:       7612
cpu0_L2C RFO       ACCESS:         67  HIT:         67  MISS:          0
cpu0_L2C PREFETCH  ACCESS:          0  HIT:          0  MISS:          0
cpu0_L2C WRITEBACK ACCESS:       9206  HIT:       9204  MISS:          2
LLC TOTAL     ACCESS:       7835  HIT:        319  MISS:       7516
LLC LOAD      ACCESS:       7612  HIT:         96  MISS:       7516
LLC RFO       ACCESS:          0  HIT:          0  MISS:          0
LLC PREFETCH  ACCESS:          0  HIT:          0  MISS:          0
LLC WRITEBACK ACCESS:        222  HIT:        222  MISS:          0
Heartbeat CPU 0 instructions: 64000000 cycles: 22079001 heartbeat IPC: 1.89263 cumulative IPC: 1.88986 (Simulation time: 0 hr 31 min 18 sec) 

Region of Interest Statistics
cpu0_DTLB TOTAL     ACCESS:    2976589  HIT:    2975481  MISS:       1108
cpu0_DTLB LOAD      ACCESS:    2846197  HIT:    2845094  MISS:       1103
cpu0_DTLB RFO       ACCESS:     130392  HIT:     130387  MISS:          5
cpu0_DTLB PREFETCH  ACCESS:          0  HIT:          0  MISS:          0
cpu0_DTLB WRITEBACK ACCESS:          0  HIT:          0  MISS:          0
cpu0_ITLB TOTAL     ACCESS:      24626  HIT:      24626  MISS:          0
cpu0_ITLB LOAD      ACCESS:      24626  HIT:      24626  MISS:          0
cpu0_ITLB RFO       ACCESS:          0  HIT:          0  MISS:          0
cpu0_ITLB PREFETCH  ACCESS:          0  HIT:          0  MISS:          0
cpu0_ITLB WRITEBACK ACCESS:          0  HIT:          0  MISS:          0
cpu0_STLB TOTAL     ACCESS:       1108  HIT:        646  MISS:        462
cpu0_STLB LOAD      ACCESS:       1103  HIT:        641  MISS:        462
cpu0_STLB RFO       ACCESS:          5  HIT:          5  MISS:          0
cpu0_STLB PREFETCH  ACCESS:          0  HIT:          0  MISS:          0
cpu0_STLB WRITEBACK ACCESS:          0  HIT:          0  MISS:          0
cpu0_L1D TOTAL     ACCESS:    3744827  HIT:    3706724  MISS:      38103
cpu0_L1D LOAD      ACCESS:    3354838  HIT:    3316838  MISS:      38000
cpu0_L1D RFO       ACCESS:     389527  HIT:     389451  MISS:         76
cpu0_L1D PREFETCH  ACCESS:          0  HIT:          0  MISS:          0
cpu0_L1D WRITEBACK ACCESS:          0  HIT:          0  MISS:          0
cpu0_L2C TOTAL     ACCESS:      48431  HIT:      39398  MISS:       9033
cpu0_L2C LOAD      ACCESS:      37998  HIT:      28975  MISS:       9023
cpu0_L2C RFO       ACCESS:         76  HIT:         76  MISS:          0
cpu0_L2C PREFETCH  ACCESS:          0  HIT:          0  MISS:          0
cpu0_L2C WRITEBACK ACCESS:      10330  HIT:      10321  MISS:          9
LLC TOTAL     ACCESS:       9278  HIT:        504  MISS:       8774
LLC LOAD      ACCESS:       9023  HIT:        249  MISS:       8774
LLC RFO       ACCESS:          0  HIT:          0  MISS:          0
LLC PREFETCH  ACCESS:          0  HIT:          0  MISS:          0
LLC WRITEBACK ACCESS:        254  HIT:        254  MISS:          0
Heartbeat CPU 0 instructions: 66000002 cycles: 23120397 heartbeat IPC: 1.9205 cumulative IPC: 1.89364 (Simulation time: 0 hr 32 min 30 sec) 

Region of Interest Statistics
cpu0_DTLB TOTAL     ACCESS:    3398416  HIT:    3397204  MISS:       1212
cpu0_DTLB LOAD      ACCESS:    3249490  HIT:    3248283  MISS:       1207
cpu0_DTLB RFO       ACCESS:     148926  HIT:     148921  MISS:          5
cpu0_DTLB PREFETCH  ACCESS:          0  HIT:          0  MISS:          0
cpu0_DTLB WRITEBACK ACCESS:          0  HIT:          0  MISS:          0
cpu0_ITLB TOTAL     ACCESS:      26622  HIT:      26622  MISS:          0
cpu0_ITLB LOAD      ACCESS:      26622  HIT:      26622  MISS:          0
cpu0_ITLB RFO       ACCESS:          0  HIT:          0  MISS:          0
cpu0_ITLB PREFETCH  ACCESS:          0  HIT:          0  MISS:          0
cpu0_ITLB WRITEBACK ACCESS:          0  HIT:          0  MISS:          0
cpu0_STLB TOTAL     ACCESS:       1212  HIT:        703  MISS:        509
cpu0_STLB LOAD      ACCESS:       1207  HIT:        698  MISS:        509
cpu0_STLB RFO       ACCESS:          5  HIT:          5  MISS:          0
cpu0_STLB PREFETCH  ACCESS:          0  HIT:          0  MISS:          0
cpu0_STLB WRITEBACK ACCESS:          0  HIT:          0  MISS:          0
cpu0_L1D TOTAL     ACCESS:    4279730  HIT:    4227779  MISS:      51951
cpu0_L1D LOAD      ACCESS:    3834326  HIT:    3782504  MISS:      51822
cpu0_L1D RFO       ACCESS:     444895  HIT:     444800  MISS:         95
cpu0_L1D PREFETCH  ACCESS:          0  HIT:          0  MISS:          0
cpu0_L1D WRITEBACK ACCESS:          0  HIT:          0  MISS:          0
cpu0_L2C TOTAL     ACCESS:      66694  HIT:      56335  MISS:      10359
cpu0_L2C LOAD      ACCESS:      51820  HIT:      41472  MISS:      10348
cpu0_L2C RFO       ACCESS:         95  HIT:         95  MISS:          0
cpu0_L2C PREFETCH  ACCESS:          0  HIT:          0  MISS:          0
cpu0_L2C WRITEBACK ACCESS:      14745  HIT:      14735  MISS:         10
LLC TOTAL     ACCESS:      10648  HIT:        658  MISS:       9990
LLC LOAD      ACCESS:      10348  HIT:        358  MISS:       9990
LLC RFO       ACCESS:          0  HIT:          0  MISS:          0
LLC PREFETCH  ACCESS:          0  HIT:          0  MISS:          0
LLC WRITEBACK ACCESS:        299  HIT:        299  MISS:          0
Heartbeat CPU 0 instructions: 68000003 cycles: 24161772 heartbeat IPC: 1.92054 cumulative IPC: 1.89659 (Simulation time: 0 hr 33 min 42 sec) 

Region of Interest Statistics
cpu0_DTLB TOTAL     ACCESS:    3821019  HIT:    3819706  MISS:       1313
cpu0_DTLB LOAD      ACCESS:    3653514  HIT:    3652207  MISS:       1307
cpu0_DTLB RFO       ACCESS:     167505  HIT:     167499  MISS:          6
cpu0_DTLB PREFETCH  ACCESS:          0  HIT:          0  MISS:          0
cpu0_DTLB WRITEBACK ACCESS:          0  HIT:          0  MISS:          0
cpu0_ITLB TOTAL     ACCESS:      28824  HIT:      28824  MISS:          0
cpu0_ITLB LOAD      ACCESS:      28824  HIT:      28824  MISS:          0
cpu0_ITLB RFO       ACCESS:          0  HIT:          0  MISS:          0
cpu0_ITLB PREFETCH  ACCESS:          0  HIT:          0  MISS:          0
cpu0_ITLB WRITEBACK ACCESS:          0  HIT:          0  MISS:          0
cpu0_STLB TOTAL     ACCESS:       1313  HIT:        754  MISS:        559
cpu0_STLB LOAD      ACCESS:       1307  HIT:        748  MISS:        559
cpu0_STLB RFO       ACCESS:          6  HIT:          6  MISS:          0
cpu0_STLB PREFETCH  ACCESS:          0  HIT:          0  MISS:          0
cpu0_STLB WRITEBACK ACCESS:          0  HIT:          0  MISS:          0
cpu0_L1D TOTAL     ACCESS:    4814576  HIT:    4750807  MISS:      63769
cpu0_L1D LOAD      ACCESS:    4313704  HIT:    4250088  MISS:      63616
cpu0_L1D RFO       ACCESS:     500313  HIT:     500207  MISS:        106
cpu0_L1D PREFETCH  ACCESS:          0  HIT:          0  MISS:          0
cpu0_L1D WRITEBACK ACCESS:          0  HIT:          0  MISS:          0
cpu0_L2C TOTAL     ACCESS:      81898  HIT:      70093  MISS:      11805
cpu0_L2C LOAD      ACCESS:      63614  HIT:      51821  MISS:      11793
cpu0_L2C RFO       ACCESS:        106  HIT:        106  MISS:          0
cpu0_L2C PREFETCH  ACCESS:          0  HIT:          0  MISS:          0
cpu0_L2C WRITEBACK ACCESS:      18131  HIT:      18121  MISS:         10
LLC TOTAL     ACCESS:      12113  HIT:        909  MISS:      11204
LLC LOAD      ACCESS:      11793  HIT:        589  MISS:      11204
LLC RFO       ACCESS:          0  HIT:          0  MISS:          0
LLC PREFETCH  ACCESS:          0  HIT:          0  MISS:          0
LLC WRITEBACK ACCESS:        318  HIT:        318  MISS:          0
Heartbeat CPU 0 instructions: 70000004 cycles: 25196813 heartbeat IPC: 1.93229 cumulative IPC: 1.9001 (Simulation time: 0 hr 34 min 53 sec) 

Region of Interest Statistics
cpu0_DTLB TOTAL     ACCESS:    4241398  HIT:    4239909  MISS:       1489
cpu0_DTLB LOAD      ACCESS:    4055340  HIT:    4053859  MISS:       1481
cpu0_DTLB RFO       ACCESS:     186058  HIT:     186050  MISS:          8
cpu0_DTLB PREFETCH  ACCESS:          0  HIT:          0  MISS:          0
cpu0_DTLB WRITEBACK ACCESS:          0  HIT:          0  MISS:          0
cpu0_ITLB TOTAL     ACCESS:      30645  HIT:      30645  MISS:          0
cpu0_ITLB LOAD      ACCESS:      30645  HIT:      30645  MISS:          0
cpu0_ITLB RFO       ACCESS:          0  HIT:          0  MISS:          0
cpu0_ITLB PREFETCH  ACCESS:          0  HIT:          0  MISS:          0
cpu0_ITLB WRITEBACK ACCESS:          0  HIT:          0  MISS:          0
cpu0_STLB TOTAL     ACCESS:       1489  HIT:        885  MISS:        604
cpu0_STLB LOAD      ACCESS:       1481  HIT:        877  MISS:        604
cpu0_STLB RFO       ACCESS:          8  HIT:          8  MISS:          0
cpu0_STLB PREFETCH  ACCESS:          0  HIT:          0  MISS:          0
cpu0_STLB WRITEBACK ACCESS:          0  HIT:          0  MISS:          0
cpu0_L1D TOTAL     ACCESS:    5349319  HIT:    5266254  MISS:      83065
cpu0_L1D LOAD      ACCESS:    4793080  HIT:    4710206  MISS:      82874
cpu0_L1D RFO       ACCESS:     555635  HIT:     555504  MISS:        131
cpu0_L1D PREFETCH  ACCESS:          0  HIT:          0  MISS:          0
cpu0_L1D WRITEBACK ACCESS:          0  HIT:          0  MISS:          0
cpu0_L2C TOTAL     ACCESS:     107648  HIT:      94585  MISS:      13063
cpu0_L2C LOAD      ACCESS:      82872  HIT:      69822  MISS:      13050
cpu0_L2C RFO       ACCESS:        131  HIT:        131  MISS:          0
cpu0_L2C PREFETCH  ACCESS:          0  HIT:          0  MISS:          0
cpu0_L2C WRITEBACK ACCESS:      24585  HIT:      24575  MISS:         10
LLC TOTAL     ACCESS:      13373  HIT:        961  MISS:      12412
LLC LOAD      ACCESS:      13050  HIT:        638  MISS:      12412
LLC RFO       ACCESS:          0  HIT:          0  MISS:          0
LLC PREFETCH  ACCESS:          0  HIT:          0  MISS:          0
LLC WRITEBACK ACCESS:        320  HIT:        320  MISS:          0
Heartbeat CPU 0 instructions: 72000004 cycles: 26233601 heartbeat IPC: 1.92903 cumulative IPC: 1.90269 (Simulation time: 0 hr 36 min 1 sec) 

Region of Interest Statistics
cpu0_DTLB TOTAL     ACCESS:    4662659  HIT:    4661003  MISS:       1656
cpu0_DTLB LOAD      ACCESS:    4458029  HIT:    4456382  MISS:       1647
cpu0_DTLB RFO       ACCESS:     204630  HIT:     204621  MISS:          9
cpu0_DTLB PREFETCH  ACCESS:          0  HIT:          0  MISS:          0
cpu0_DTLB WRITEBACK ACCESS:          0  HIT:          0  MISS:          0
cpu0_ITLB TOTAL     ACCESS:      32198  HIT:      32198  MISS:          0
cpu0_ITLB LOAD      ACCESS:      32198  HIT:      32198  MISS:          0
cpu0_ITLB RFO       ACCESS:          0  HIT:          0  MISS:          0
cpu0_ITLB PREFETCH  ACCESS:          0  HIT:          0  MISS:          0
cpu0_ITLB WRITEBACK ACCESS:          0  HIT:          0  MISS:          0
cpu0_STLB TOTAL     ACCESS:       1656  HIT:       1006  MISS:        650
cpu0_STLB LOAD      ACCESS:       1647  HIT:        997  MISS:        650
cpu0_STLB RFO       ACCESS:          9  HIT:          9  MISS:          0
cpu0_STLB PREFETCH  ACCESS:          0  HIT:          0  MISS:          0
cpu0_STLB WRITEBACK ACCESS:          0  HIT:          0  MISS:          0
cpu0_L1D TOTAL     ACCESS:    5884015  HIT:    5782322  MISS:     101693
cpu0_L1D LOAD      ACCESS:    5272414  HIT:    5170948  MISS:     101466
cpu0_L1D RFO       ACCESS:     610951  HIT:     610796  MISS:        155
cpu0_L1D PREFETCH  ACCESS:          0  HIT:          0  MISS:          0
cpu0_L1D WRITEBACK ACCESS:          0  HIT:          0  MISS:          0
cpu0_L2C TOTAL     ACCESS:     132357  HIT:     117961  MISS:      14396
cpu0_L2C LOAD      ACCESS:     101464  HIT:      87081  MISS:      14383
cpu0_L2C RFO       ACCESS:        155  HIT:        155  MISS:          0
cpu0_L2C PREFETCH  ACCESS:          0  HIT:          0  MISS:          0
cpu0_L2C WRITEBACK ACCESS:      30666  HIT:      30656  MISS:         10
LLC TOTAL     ACCESS:      14720  HIT:       1088  MISS:      13632
LLC LOAD      ACCESS:      14383  HIT:        751  MISS:      13632
LLC RFO       ACCESS:          0  HIT:          0  MISS:          0
LLC PREFETCH  ACCESS:          0  HIT:          0  MISS:          0
LLC WRITEBACK ACCESS:        334  HIT:        334  MISS:          0
Heartbeat CPU 0 instructions: 74000000 cycles: 27266273 heartbeat IPC: 1.93672 cumulative IPC: 1.90548 (Simulation time: 0 hr 37 min 7 sec) 

Region of Interest Statistics
cpu0_DTLB TOTAL     ACCESS:    5085178  HIT:    5083390  MISS:       1788
cpu0_DTLB LOAD      ACCESS:    4861952  HIT:    4860175  MISS:       1777
cpu0_DTLB RFO       ACCESS:     223226  HIT:     223215  MISS:         11
cpu0_DTLB PREFETCH  ACCESS:          0  HIT:          0  MISS:          0
cpu0_DTLB WRITEBACK ACCESS:          0  HIT:          0  MISS:          0
cpu0_ITLB TOTAL     ACCESS:      33907  HIT:      33907  MISS:          0
cpu0_ITLB LOAD      ACCESS:      33907  HIT:      33907  MISS:          0
cpu0_ITLB RFO       ACCESS:          0  HIT:          0  MISS:          0
cpu0_ITLB PREFETCH  ACCESS:          0  HIT:          0  MISS:          0
cpu0_ITLB WRITEBACK ACCESS:          0  HIT:          0  MISS:          0
cpu0_STLB TOTAL     ACCESS:       1788  HIT:       1101  MISS:        687
cpu0_STLB LOAD      ACCESS:       1777  HIT:       1090  MISS:        687
cpu0_STLB RFO       ACCESS:         11  HIT:         11  MISS:          0
cpu0_STLB PREFETCH  ACCESS:          0  HIT:          0  MISS:          0
cpu0_STLB WRITEBACK ACCESS:          0  HIT:          0  MISS:          0
cpu0_L1D TOTAL     ACCESS:    6418590  HIT:    6297752  MISS:     120838
cpu0_L1D LOAD      ACCESS:    5751663  HIT:    5631099  MISS:     120564
cpu0_L1D RFO       ACCESS:     666240  HIT:     666055  MISS:        185
cpu0_L1D PREFETCH  ACCESS:          0  HIT:          0  MISS:          0
cpu0_L1D WRITEBACK ACCESS:          0  HIT:          0  MISS:          0
cpu0_L2C TOTAL     ACCESS:     157897  HIT:     142186  MISS:      15711
cpu0_L2C LOAD      ACCESS:     120562  HIT:     104864  MISS:      15698
cpu0_L2C RFO       ACCESS:        185  HIT:        185  MISS:          0
cpu0_L2C PREFETCH  ACCESS:          0  HIT:          0  MISS:          0
cpu0_L2C WRITEBACK ACCESS:      37061  HIT:      37051  MISS:         10
LLC TOTAL     ACCESS:      16074  HIT:       1221  MISS:      14853
LLC LOAD      ACCESS:      15698  HIT:        845  MISS:      14853
LLC RFO       ACCESS:          0  HIT:          0  MISS:          0
LLC PREFETCH  ACCESS:          0  HIT:          0  MISS:          0
LLC WRITEBACK ACCESS:        373  HIT:        373  MISS:          0
Heartbeat CPU 0 instructions: 76000001 cycles: 28301397 heartbeat IPC: 1.93214 cumulative IPC: 1.90751 (Simulation time: 0 hr 38 min 11 sec) 

Region of Interest Statistics
cpu0_DTLB TOTAL     ACCESS:    5508039  HIT:    5506115  MISS:       1924
cpu0_DTLB LOAD      ACCESS:    5266212  HIT:    5264301  MISS:       1911
cpu0_DTLB RFO       ACCESS:     241827  HIT:     241814  MISS:         13
cpu0_DTLB PREFETCH  ACCESS:          0  HIT:          0  MISS:          0
cpu0_DTLB WRITEBACK ACCESS:          0  HIT:          0  MISS:          0
cpu0_ITLB TOTAL     ACCESS:      35950  HIT:      35950  MISS:          0
cpu0_ITLB LOAD      ACCESS:      35950  HIT:      35950  MISS:          0
cpu0_ITLB RFO       ACCESS:          0  HIT:          0  MISS:          0
cpu0_ITLB PREFETCH  ACCESS:          0  HIT:          0  MISS:          0
cpu0_ITLB WRITEBACK ACCESS:          0  HIT:          0  MISS:          0
cpu0_STLB TOTAL     ACCESS:       1924  HIT:       1193  MISS:        731
cpu0_STLB LOAD      ACCESS:       1911  HIT:       1180  MISS:        731
cpu0_STLB RFO       ACCESS:         13  HIT:         13  MISS:          0
cpu0_STLB PREFETCH  ACCESS:          0  HIT:          0  MISS:          0
cpu0_STLB WRITEBACK ACCESS:          0  HIT:          0  MISS:          0
cpu0_L1D TOTAL     ACCESS:    6953223  HIT:    6819455  MISS:     133768
cpu0_L1D LOAD      ACCESS:    6230914  HIT:    6097477  MISS:     133437
cpu0_L1D RFO       ACCESS:     721578  HIT:     721355  MISS:        223
cpu0_L1D PREFETCH  ACCESS:          0  HIT:          0  MISS:          0
cpu0_L1D WRITEBACK ACCESS:          0  HIT:          0  MISS:          0
cpu0_L2C TOTAL     ACCESS:     175029  HIT:     158057  MISS:      16972
cpu0_L2C LOAD      ACCESS:     133434  HIT:     116475  MISS:      16959
cpu0_L2C RFO       ACCESS:        223  HIT:        223  MISS:          0
cpu0_L2C PREFETCH  ACCESS:          0  HIT:          0  MISS:          0
cpu0_L2C WRITEBACK ACCESS:      41264  HIT:      41254  MISS:         10
LLC TOTAL     ACCESS:      17383  HIT:       1311  MISS:      16072
LLC LOAD      ACCESS:      16959  HIT:        887  MISS:      16072
LLC RFO       ACCESS:          0  HIT:          0  MISS:          0
LLC PREFETCH  ACCESS:          0  HIT:          0  MISS:          0
LLC WRITEBACK ACCESS:        421  HIT:        421  MISS:          0
Heartbeat CPU 0 instructions: 78000001 cycles: 29337346 heartbeat IPC: 1.9306 cumulative IPC: 1.90914 (Simulation time: 0 hr 39 min 8 sec) 

Region of Interest Statistics
cpu0_DTLB TOTAL     ACCESS:    5931534  HIT:    5929433  MISS:       2101
cpu0_DTLB LOAD      ACCESS:    5671108  HIT:    5669021  MISS:       2087
cpu0_DTLB RFO       ACCESS:     260426  HIT:     260412  MISS:         14
cpu0_DTLB PREFETCH  ACCESS:          0  HIT:          0  MISS:          0
cpu0_DTLB WRITEBACK ACCESS:          0  HIT:          0  MISS:          0
cpu0_ITLB TOTAL     ACCESS:      37883  HIT:      37883  MISS:          0
cpu0_ITLB LOAD      ACCESS:      37883  HIT:      37883  MISS:          0
cpu0_ITLB RFO       ACCESS:          0  HIT:          0  MISS:          0
cpu0_ITLB PREFETCH  ACCESS:          0  HIT:          0  MISS:          0
cpu0_ITLB WRITEBACK ACCESS:          0  HIT:          0  MISS:          0
cpu0_STLB TOTAL     ACCESS:       2101  HIT:       1325  MISS:        776
cpu0_STLB LOAD      ACCESS:       2087  HIT:       1311  MISS:        776
cpu0_STLB RFO       ACCESS:         14  HIT:         14  MISS:          0
cpu0_STLB PREFETCH  ACCESS:          0  HIT:          0  MISS:          0
cpu0_STLB WRITEBACK ACCESS:          0  HIT:          0  MISS:          0
cpu0_L1D TOTAL     ACCESS:    7488154  HIT:    7336960  MISS:     151194
cpu0_L1D LOAD      ACCESS:    6710489  HIT:    6559666  MISS:     150823
cpu0_L1D RFO       ACCESS:     776889  HIT:     776638  MISS:        251
cpu0_L1D PREFETCH  ACCESS:          0  HIT:          0  MISS:          0
cpu0_L1D WRITEBACK ACCESS:          0  HIT:          0  MISS:          0
cpu0_L2C TOTAL     ACCESS:     198313  HIT:     180132  MISS:      18181
cpu0_L2C LOAD      ACCESS:     150820  HIT:     132652  MISS:      18168
cpu0_L2C RFO       ACCESS:        251  HIT:        251  MISS:          0
cpu0_L2C PREFETCH  ACCESS:          0  HIT:          0  MISS:          0
cpu0_L2C WRITEBACK ACCESS:      47122  HIT:      47112  MISS:         10
LLC TOTAL     ACCESS:      18611  HIT:       1333  MISS:      17278
LLC LOAD      ACCESS:      18168  HIT:        890  MISS:      17278
LLC RFO       ACCESS:          0  HIT:          0  MISS:          0
LLC PREFETCH  ACCESS:          0  HIT:          0  MISS:          0
LLC WRITEBACK ACCESS:        440  HIT:        440  MISS:          0
Heartbeat CPU 0 instructions: 80000004 cycles: 30372593 heartbeat IPC: 1.93191 cumulative IPC: 1.91064 (Simulation time: 0 hr 40 min 14 sec) 

Region of Interest Statistics
cpu0_DTLB TOTAL     ACCESS:    6355290  HIT:    6353013  MISS:       2277
cpu0_DTLB LOAD      ACCESS:    6076304  HIT:    6074042  MISS:       2262
cpu0_DTLB RFO       ACCESS:     278986  HIT:     278971  MISS:         15
cpu0_DTLB PREFETCH  ACCESS:          0  HIT:          0  MISS:          0
cpu0_DTLB WRITEBACK ACCESS:          0  HIT:          0  MISS:          0
cpu0_ITLB TOTAL     ACCESS:      39722  HIT:      39722  MISS:          0
cpu0_ITLB LOAD      ACCESS:      39722  HIT:      39722  MISS:          0
cpu0_ITLB RFO       ACCESS:          0  HIT:          0  MISS:          0
cpu0_ITLB PREFETCH  ACCESS:          0  HIT:          0  MISS:          0
cpu0_ITLB WRITEBACK ACCESS:          0  HIT:          0  MISS:          0
cpu0_STLB TOTAL     ACCESS:       2277  HIT:       1458  MISS:        819
cpu0_STLB LOAD      ACCESS:       2262  HIT:       1443  MISS:        819
cpu0_STLB RFO       ACCESS:         15  HIT:         15  MISS:          0
cpu0_STLB PREFETCH  ACCESS:          0  HIT:          0  MISS:          0
cpu0_STLB WRITEBACK ACCESS:          0  HIT:          0  MISS:          0
cpu0_L1D TOTAL     ACCESS:    8023093  HIT:    7850700  MISS:     172393
cpu0_L1D LOAD      ACCESS:    7190117  HIT:    7018140  MISS:     171977
cpu0_L1D RFO       ACCESS:     832157  HIT:     831872  MISS:        285
cpu0_L1D PREFETCH  ACCESS:          0  HIT:          0  MISS:          0
cpu0_L1D WRITEBACK ACCESS:          0  HIT:          0  MISS:          0
cpu0_L2C TOTAL     ACCESS:     226656  HIT:     207221  MISS:      19435
cpu0_L2C LOAD      ACCESS:     171973  HIT:     152551  MISS:      19422
cpu0_L2C RFO       ACCESS:        285  HIT:        285  MISS:          0
cpu0_L2C PREFETCH  ACCESS:          0  HIT:          0  MISS:          0
cpu0_L2C WRITEBACK ACCESS:      54267  HIT:      54257  MISS:         10
LLC TOTAL     ACCESS:      19870  HIT:       1385  MISS:      18485
LLC LOAD      ACCESS:      19422  HIT:        937  MISS:      18485
LLC RFO       ACCESS:          0  HIT:          0  MISS:          0
LLC PREFETCH  ACCESS:          0  HIT:          0  MISS:          0
LLC WRITEBACK ACCESS:        445  HIT:        445  MISS:          0
Heartbeat CPU 0 instructions: 82000004 cycles: 31407081 heartbeat IPC: 1.93332 cumulative IPC: 1.91204 (Simulation time: 0 hr 41 min 21 sec) 

Region of Interest Statistics
cpu0_DTLB TOTAL     ACCESS:    6776032  HIT:    6773581  MISS:       2451
cpu0_DTLB LOAD      ACCESS:    6478465  HIT:    6476030  MISS:       2435
cpu0_DTLB RFO       ACCESS:     297567  HIT:     297551  MISS:         16
cpu0_DTLB PREFETCH  ACCESS:          0  HIT:          0  MISS:          0
cpu0_DTLB WRITEBACK ACCESS:          0  HIT:          0  MISS:          0
cpu0_ITLB TOTAL     ACCESS:      41837  HIT:      41837  MISS:          0
cpu0_ITLB LOAD      ACCESS:      41837  HIT:      41837  MISS:          0
cpu0_ITLB RFO       ACCESS:          0  HIT:          0  MISS:          0
cpu0_ITLB PREFETCH  ACCESS:          0  HIT:          0  MISS:          0
cpu0_ITLB WRITEBACK ACCESS:          0  HIT:          0  MISS:          0
cpu0_STLB TOTAL     ACCESS:       2451  HIT:       1588  MISS:        863
cpu0_STLB LOAD      ACCESS:       2435  HIT:       1572  MISS:        863
cpu0_STLB RFO       ACCESS:         16  HIT:         16  MISS:          0
cpu0_STLB PREFETCH  ACCESS:          0  HIT:          0  MISS:          0
cpu0_STLB WRITEBACK ACCESS:          0  HIT:          0  MISS:          0
cpu0_L1D TOTAL     ACCESS:    8557822  HIT:    8367583  MISS:     190239
cpu0_L1D LOAD      ACCESS:    7669429  HIT:    7479623  MISS:     189806
cpu0_L1D RFO       ACCESS:     887530  HIT:     887232  MISS:        298
cpu0_L1D PREFETCH  ACCESS:          0  HIT:          0  MISS:          0
cpu0_L1D WRITEBACK ACCESS:          0  HIT:          0  MISS:          0
cpu0_L2C TOTAL     ACCESS:     250510  HIT:     229853  MISS:      20657
cpu0_L2C LOAD      ACCESS:     189802  HIT:     169158  MISS:      20644
cpu0_L2C RFO       ACCESS:        298  HIT:        298  MISS:          0
cpu0_L2C PREFETCH  ACCESS:          0  HIT:          0  MISS:          0
cpu0_L2C WRITEBACK ACCESS:      60275  HIT:      60265  MISS:         10
LLC TOTAL     ACCESS:      21122  HIT:       1427  MISS:      19695
LLC LOAD      ACCESS:      20644  HIT:        949  MISS:      19695
LLC RFO       ACCESS:          0  HIT:          0  MISS:          0
LLC PREFETCH  ACCESS:          0  HIT:          0  MISS:          0
LLC WRITEBACK ACCESS:        475  HIT:        475  MISS:          0
Heartbeat CPU 0 instructions: 84000000 cycles: 32450288 heartbeat IPC: 1.91716 cumulative IPC: 1.91234 (Simulation time: 0 hr 42 min 26 sec) 

Region of Interest Statistics
cpu0_DTLB TOTAL     ACCESS:    7198844  HIT:    7196235  MISS:       2609
cpu0_DTLB LOAD      ACCESS:    6882678  HIT:    6880086  MISS:       2592
cpu0_DTLB RFO       ACCESS:     316166  HIT:     316149  MISS:         17
cpu0_DTLB PREFETCH  ACCESS:          0  HIT:          0  MISS:          0
cpu0_DTLB WRITEBACK ACCESS:          0  HIT:          0  MISS:          0
cpu0_ITLB TOTAL     ACCESS:      44125  HIT:      44125  MISS:          0
cpu0_ITLB LOAD      ACCESS:      44125  HIT:      44125  MISS:          0
cpu0_ITLB RFO       ACCESS:          0  HIT:          0  MISS:          0
cpu0_ITLB PREFETCH  ACCESS:          0  HIT:          0  MISS:          0
cpu0_ITLB WRITEBACK ACCESS:          0  HIT:          0  MISS:          0
cpu0_STLB TOTAL     ACCESS:       2609  HIT:       1693  MISS:        916
cpu0_STLB LOAD      ACCESS:       2592  HIT:       1676  MISS:        916
cpu0_STLB RFO       ACCESS:         17  HIT:         17  MISS:          0
cpu0_STLB PREFETCH  ACCESS:          0  HIT:          0  MISS:          0
cpu0_STLB WRITEBACK ACCESS:          0  HIT:          0  MISS:          0
cpu0_L1D TOTAL     ACCESS:    9092879  HIT:    8891049  MISS:     201830
cpu0_L1D LOAD      ACCESS:    8148951  HIT:    7947566  MISS:     201385
cpu0_L1D RFO       ACCESS:     943012  HIT:     942710  MISS:        302
cpu0_L1D PREFETCH  ACCESS:          0  HIT:          0  MISS:          0
cpu0_L1D WRITEBACK ACCESS:          0  HIT:          0  MISS:          0
cpu0_L2C TOTAL     ACCESS:     265854  HIT:     243923  MISS:      21931
cpu0_L2C LOAD      ACCESS:     201381  HIT:     179465  MISS:      21916
cpu0_L2C RFO       ACCESS:        302  HIT:        302  MISS:          0
cpu0_L2C PREFETCH  ACCESS:          0  HIT:          0  MISS:          0
cpu0_L2C WRITEBACK ACCESS:      64028  HIT:      64018  MISS:         10
LLC TOTAL     ACCESS:      22403  HIT:       1481  MISS:      20922
LLC LOAD      ACCESS:      21916  HIT:        994  MISS:      20922
LLC RFO       ACCESS:          0  HIT:          0  MISS:          0
LLC PREFETCH  ACCESS:          0  HIT:          0  MISS:          0
LLC WRITEBACK ACCESS:        482  HIT:        482  MISS:          0
Heartbeat CPU 0 instructions: 86000002 cycles: 33519518 heartbeat IPC: 1.87051 cumulative IPC: 1.90997 (Simulation time: 0 hr 43 min 26 sec) 

Region of Interest Statistics
cpu0_DTLB TOTAL     ACCESS:    7626011  HIT:    7623308  MISS:       2703
cpu0_DTLB LOAD      ACCESS:    7291107  HIT:    7288422  MISS:       2685
cpu0_DTLB RFO       ACCESS:     334904  HIT:     334886  MISS:         18
cpu0_DTLB PREFETCH  ACCESS:          0  HIT:          0  MISS:          0
cpu0_DTLB WRITEBACK ACCESS:          0  HIT:          0  MISS:          0
cpu0_ITLB TOTAL     ACCESS:      48421  HIT:      48421  MISS:          0
cpu0_ITLB LOAD      ACCESS:      48421  HIT:      48421  MISS:          0
cpu0_ITLB RFO       ACCESS:          0  HIT:          0  MISS:          0
cpu0_ITLB PREFETCH  ACCESS:          0  HIT:          0  MISS:          0
cpu0_ITLB WRITEBACK ACCESS:          0  HIT:          0  MISS:          0
cpu0_STLB TOTAL     ACCESS:       2703  HIT:       1712  MISS:        991
cpu0_STLB LOAD      ACCESS:       2685  HIT:       1694  MISS:        991
cpu0_STLB RFO       ACCESS:         18  HIT:         18  MISS:          0
cpu0_STLB PREFETCH  ACCESS:          0  HIT:          0  MISS:          0
cpu0_STLB WRITEBACK ACCESS:          0  HIT:          0  MISS:          0
cpu0_L1D TOTAL     ACCESS:    9627979  HIT:    9424690  MISS:     203289
cpu0_L1D LOAD      ACCESS:    8628195  HIT:    8425353  MISS:     202842
cpu0_L1D RFO       ACCESS:     998793  HIT:     998489  MISS:        304
cpu0_L1D PREFETCH  ACCESS:          0  HIT:          0  MISS:          0
cpu0_L1D WRITEBACK ACCESS:          0  HIT:          0  MISS:          0
cpu0_L2C TOTAL     ACCESS:     267425  HIT:     244185  MISS:      23240
cpu0_L2C LOAD      ACCESS:     202838  HIT:     179613  MISS:      23225
cpu0_L2C RFO       ACCESS:        304  HIT:        304  MISS:          0
cpu0_L2C PREFETCH  ACCESS:          0  HIT:          0  MISS:          0
cpu0_L2C WRITEBACK ACCESS:      64140  HIT:      64130  MISS:         10
LLC TOTAL     ACCESS:      23757  HIT:       1566  MISS:      22191
LLC LOAD      ACCESS:      23225  HIT:       1034  MISS:      22191
LLC RFO       ACCESS:          0  HIT:          0  MISS:          0
LLC PREFETCH  ACCESS:          0  HIT:          0  MISS:          0
LLC WRITEBACK ACCESS:        527  HIT:        527  MISS:          0
Heartbeat CPU 0 instructions: 88000002 cycles: 34598053 heartbeat IPC: 1.85437 cumulative IPC: 1.90696 (Simulation time: 0 hr 44 min 31 sec) 

Region of Interest Statistics
cpu0_DTLB TOTAL     ACCESS:    8051097  HIT:    8048295  MISS:       2802
cpu0_DTLB LOAD      ACCESS:    7697437  HIT:    7694653  MISS:       2784
cpu0_DTLB RFO       ACCESS:     353660  HIT:     353642  MISS:         18
cpu0_DTLB PREFETCH  ACCESS:          0  HIT:          0  MISS:          0
cpu0_DTLB WRITEBACK ACCESS:          0  HIT:          0  MISS:          0
cpu0_ITLB TOTAL     ACCESS:      53596  HIT:      53596  MISS:          0
cpu0_ITLB LOAD      ACCESS:      53596  HIT:      53596  MISS:          0
cpu0_ITLB RFO       ACCESS:          0  HIT:          0  MISS:          0
cpu0_ITLB PREFETCH  ACCESS:          0  HIT:          0  MISS:          0
cpu0_ITLB WRITEBACK ACCESS:          0  HIT:          0  MISS:          0
cpu0_STLB TOTAL     ACCESS:       2802  HIT:       1724  MISS:       1078
cpu0_STLB LOAD      ACCESS:       2784  HIT:       1706  MISS:       1078
cpu0_STLB RFO       ACCESS:         18  HIT:         18  MISS:          0
cpu0_STLB PREFETCH  ACCESS:          0  HIT:          0  MISS:          0
cpu0_STLB WRITEBACK ACCESS:          0  HIT:          0  MISS:          0
cpu0_L1D TOTAL     ACCESS:   10162963  HIT:    9958266  MISS:     204697
cpu0_L1D LOAD      ACCESS:    9107144  HIT:    8902897  MISS:     204247
cpu0_L1D RFO       ACCESS:    1054741  HIT:    1054436  MISS:        305
cpu0_L1D PREFETCH  ACCESS:          0  HIT:          0  MISS:          0
cpu0_L1D WRITEBACK ACCESS:          0  HIT:          0  MISS:          0
cpu0_L2C TOTAL     ACCESS:     268898  HIT:     244318  MISS:      24580
cpu0_L2C LOAD      ACCESS:     204243  HIT:     179679  MISS:      24564
cpu0_L2C RFO       ACCESS:        305  HIT:        305  MISS:          0
cpu0_L2C PREFETCH  ACCESS:          0  HIT:          0  MISS:          0
cpu0_L2C WRITEBACK ACCESS:      64205  HIT:      64194  MISS:         11
LLC TOTAL     ACCESS:      25128  HIT:       1628  MISS:      23500
LLC LOAD      ACCESS:      24564  HIT:       1064  MISS:      23500
LLC RFO       ACCESS:          0  HIT:          0  MISS:          0
LLC PREFETCH  ACCESS:          0  HIT:          0  MISS:          0
LLC WRITEBACK ACCESS:        559  HIT:        559  MISS:          0
Heartbeat CPU 0 instructions: 90000000 cycles: 35698567 heartbeat IPC: 1.81733 cumulative IPC: 1.90227 (Simulation time: 0 hr 45 min 42 sec) 

Region of Interest Statistics
cpu0_DTLB TOTAL     ACCESS:    8476341  HIT:    8473417  MISS:       2924
cpu0_DTLB LOAD      ACCESS:    8103825  HIT:    8100920  MISS:       2905
cpu0_DTLB RFO       ACCESS:     372516  HIT:     372497  MISS:         19
cpu0_DTLB PREFETCH  ACCESS:          0  HIT:          0  MISS:          0
cpu0_DTLB WRITEBACK ACCESS:          0  HIT:          0  MISS:          0
cpu0_ITLB TOTAL     ACCESS:      59796  HIT:      59796  MISS:          0
cpu0_ITLB LOAD      ACCESS:      59796  HIT:      59796  MISS:          0
cpu0_ITLB RFO       ACCESS:          0  HIT:          0  MISS:          0
cpu0_ITLB PREFETCH  ACCESS:          0  HIT:          0  MISS:          0
cpu0_ITLB WRITEBACK ACCESS:          0  HIT:          0  MISS:          0
cpu0_STLB TOTAL     ACCESS:       2924  HIT:       1741  MISS:       1183
cpu0_STLB LOAD      ACCESS:       2905  HIT:       1722  MISS:       1183
cpu0_STLB RFO       ACCESS:         19  HIT:         19  MISS:          0
cpu0_STLB PREFETCH  ACCESS:          0  HIT:          0  MISS:          0
cpu0_STLB WRITEBACK ACCESS:          0  HIT:          0  MISS:          0
cpu0_L1D TOTAL     ACCESS:   10697817  HIT:   10491727  MISS:     206090
cpu0_L1D LOAD      ACCESS:    9585761  HIT:    9380122  MISS:     205639
cpu0_L1D RFO       ACCESS:    1110873  HIT:    1110568  MISS:        305
cpu0_L1D PREFETCH  ACCESS:          0  HIT:          0  MISS:          0
cpu0_L1D WRITEBACK ACCESS:          0  HIT:          0  MISS:          0
cpu0_L2C TOTAL     ACCESS:     270342  HIT:     244368  MISS:      25974
cpu0_L2C LOAD      ACCESS:     205635  HIT:     179686  MISS:      25949
cpu0_L2C RFO       ACCESS:        305  HIT:        305  MISS:          0
cpu0_L2C PREFETCH  ACCESS:          0  HIT:          0  MISS:          0
cpu0_L2C WRITEBACK ACCESS:      64256  HIT:      64236  MISS:         20
LLC TOTAL     ACCESS:      26583  HIT:       1750  MISS:      24833
LLC LOAD      ACCESS:      25949  HIT:       1116  MISS:      24833
LLC RFO       ACCESS:          0  HIT:          0  MISS:          0
LLC PREFETCH  ACCESS:          0  HIT:          0  MISS:          0
LLC WRITEBACK ACCESS:        629  HIT:        629  MISS:          0
Heartbeat CPU 0 instructions: 92000000 cycles: 36869754 heartbeat IPC: 1.70767 cumulative IPC: 1.892 (Simulation time: 0 hr 46 min 46 sec) 

Region of Interest Statistics
cpu0_DTLB TOTAL     ACCESS:    8902541  HIT:    8899416  MISS:       3125
cpu0_DTLB LOAD      ACCESS:    8510787  HIT:    8507683  MISS:       3104
cpu0_DTLB RFO       ACCESS:     391754  HIT:     391733  MISS:         21
cpu0_DTLB PREFETCH  ACCESS:          0  HIT:          0  MISS:          0
cpu0_DTLB WRITEBACK ACCESS:          0  HIT:          0  MISS:          0
cpu0_ITLB TOTAL     ACCESS:      71334  HIT:      71334  MISS:          0
cpu0_ITLB LOAD      ACCESS:      71334  HIT:      71334  MISS:          0
cpu0_ITLB RFO       ACCESS:          0  HIT:          0  MISS:          0
cpu0_ITLB PREFETCH  ACCESS:          0  HIT:          0  MISS:          0
cpu0_ITLB WRITEBACK ACCESS:          0  HIT:          0  MISS:          0
cpu0_STLB TOTAL     ACCESS:       3125  HIT:       1757  MISS:       1368
cpu0_STLB LOAD      ACCESS:       3104  HIT:       1736  MISS:       1368
cpu0_STLB RFO       ACCESS:         21  HIT:         21  MISS:          0
cpu0_STLB PREFETCH  ACCESS:          0  HIT:          0  MISS:          0
cpu0_STLB WRITEBACK ACCESS:          0  HIT:          0  MISS:          0
cpu0_L1D TOTAL     ACCESS:   11232392  HIT:   11024609  MISS:     207783
cpu0_L1D LOAD      ACCESS:   10063001  HIT:    9855671  MISS:     207330
cpu0_L1D RFO       ACCESS:    1168023  HIT:    1167718  MISS:        305
cpu0_L1D PREFETCH  ACCESS:          0  HIT:          0  MISS:          0
cpu0_L1D WRITEBACK ACCESS:          0  HIT:          0  MISS:          0
cpu0_L2C TOTAL     ACCESS:     272124  HIT:     244607  MISS:      27517
cpu0_L2C LOAD      ACCESS:     207326  HIT:     179834  MISS:      27492
cpu0_L2C RFO       ACCESS:        305  HIT:        305  MISS:          0
cpu0_L2C PREFETCH  ACCESS:          0  HIT:          0  MISS:          0
cpu0_L2C WRITEBACK ACCESS:      64345  HIT:      64325  MISS:         20
LLC TOTAL     ACCESS:      28230  HIT:       1882  MISS:      26348
LLC LOAD      ACCESS:      27492  HIT:       1144  MISS:      26348
LLC RFO       ACCESS:          0  HIT:          0  MISS:          0
LLC PREFETCH  ACCESS:          0  HIT:          0  MISS:          0
LLC WRITEBACK ACCESS:        733  HIT:        733  MISS:          0
Heartbeat CPU 0 instructions: 94000002 cycles: 37990439 heartbeat IPC: 1.78462 cumulative IPC: 1.88684 (Simulation time: 0 hr 47 min 52 sec) 

Region of Interest Statistics
cpu0_DTLB TOTAL     ACCESS:    9328147  HIT:    9324840  MISS:       3307
cpu0_DTLB LOAD      ACCESS:    8917403  HIT:    8914118  MISS:       3285
cpu0_DTLB RFO       ACCESS:     410744  HIT:     410722  MISS:         22
cpu0_DTLB PREFETCH  ACCESS:          0  HIT:          0  MISS:          0
cpu0_DTLB WRITEBACK ACCESS:          0  HIT:          0  MISS:          0
cpu0_ITLB TOTAL     ACCESS:      79484  HIT:      79484  MISS:          0
cpu0_ITLB LOAD      ACCESS:      79484  HIT:      79484  MISS:          0
cpu0_ITLB RFO       ACCESS:          0  HIT:          0  MISS:          0
cpu0_ITLB PREFETCH  ACCESS:          0  HIT:          0  MISS:          0
cpu0_ITLB WRITEBACK ACCESS:          0  HIT:          0  MISS:          0
cpu0_STLB TOTAL     ACCESS:       3307  HIT:       1812  MISS:       1495
cpu0_STLB LOAD      ACCESS:       3285  HIT:       1790  MISS:       1495
cpu0_STLB RFO       ACCESS:         22  HIT:         22  MISS:          0
cpu0_STLB PREFETCH  ACCESS:          0  HIT:          0  MISS:          0
cpu0_STLB WRITEBACK ACCESS:          0  HIT:          0  MISS:          0
cpu0_L1D TOTAL     ACCESS:   11767058  HIT:   11556982  MISS:     210076
cpu0_L1D LOAD      ACCESS:   10541048  HIT:   10331430  MISS:     209618
cpu0_L1D RFO       ACCESS:    1224515  HIT:    1224206  MISS:        309
cpu0_L1D PREFETCH  ACCESS:          0  HIT:          0  MISS:          0
cpu0_L1D WRITEBACK ACCESS:          0  HIT:          0  MISS:          0
cpu0_L2C TOTAL     ACCESS:     274603  HIT:     245435  MISS:      29168
cpu0_L2C LOAD      ACCESS:     209614  HIT:     180476  MISS:      29138
cpu0_L2C RFO       ACCESS:        309  HIT:        309  MISS:          0
cpu0_L2C PREFETCH  ACCESS:          0  HIT:          0  MISS:          0
cpu0_L2C WRITEBACK ACCESS:      64531  HIT:      64506  MISS:         25
LLC TOTAL     ACCESS:      29966  HIT:       2217  MISS:      27749
LLC LOAD      ACCESS:      29138  HIT:       1389  MISS:      27749
LLC RFO       ACCESS:          0  HIT:          0  MISS:          0
LLC PREFETCH  ACCESS:          0  HIT:          0  MISS:          0
LLC WRITEBACK ACCESS:        823  HIT:        823  MISS:          0
Heartbeat CPU 0 instructions: 96000001 cycles: 39031369 heartbeat IPC: 1.92136 cumulative IPC: 1.88832 (Simulation time: 0 hr 48 min 58 sec) 

Region of Interest Statistics
cpu0_DTLB TOTAL     ACCESS:    9752831  HIT:    9749232  MISS:       3599
cpu0_DTLB LOAD      ACCESS:    9323492  HIT:    9319916  MISS:       3576
cpu0_DTLB RFO       ACCESS:     429339  HIT:     429316  MISS:         23
cpu0_DTLB PREFETCH  ACCESS:          0  HIT:          0  MISS:          0
cpu0_DTLB WRITEBACK ACCESS:          0  HIT:          0  MISS:          0
cpu0_ITLB TOTAL     ACCESS:      81986  HIT:      81986  MISS:          0
cpu0_ITLB LOAD      ACCESS:      81986  HIT:      81986  MISS:          0
cpu0_ITLB RFO       ACCESS:          0  HIT:          0  MISS:          0
cpu0_ITLB PREFETCH  ACCESS:          0  HIT:          0  MISS:          0
cpu0_ITLB WRITEBACK ACCESS:          0  HIT:          0  MISS:          0
cpu0_STLB TOTAL     ACCESS:       3599  HIT:       2057  MISS:       1542
cpu0_STLB LOAD      ACCESS:       3576  HIT:       2034  MISS:       1542
cpu0_STLB RFO       ACCESS:         23  HIT:         23  MISS:          0
cpu0_STLB PREFETCH  ACCESS:          0  HIT:          0  MISS:          0
cpu0_STLB WRITEBACK ACCESS:          0  HIT:          0  MISS:          0
cpu0_L1D TOTAL     ACCESS:   12301361  HIT:   12078186  MISS:     223175
cpu0_L1D LOAD      ACCESS:   11019986  HIT:   10797314  MISS:     222672
cpu0_L1D RFO       ACCESS:    1279833  HIT:    1279482  MISS:        351
cpu0_L1D PREFETCH  ACCESS:          0  HIT:          0  MISS:          0
cpu0_L1D WRITEBACK ACCESS:          0  HIT:          0  MISS:          0
cpu0_L2C TOTAL     ACCESS:     291717  HIT:     260980  MISS:      30737
cpu0_L2C LOAD      ACCESS:     222668  HIT:     191962  MISS:      30706
cpu0_L2C RFO       ACCESS:        351  HIT:        351  MISS:          0
cpu0_L2C PREFETCH  ACCESS:          0  HIT:          0  MISS:          0
cpu0_L2C WRITEBACK ACCESS:      68546  HIT:      68521  MISS:         25
LLC TOTAL     ACCESS:      31575  HIT:       2595  MISS:      28980
LLC LOAD      ACCESS:      30706  HIT:       1726  MISS:      28980
LLC RFO       ACCESS:          0  HIT:          0  MISS:          0
LLC PREFETCH  ACCESS:          0  HIT:          0  MISS:          0
LLC WRITEBACK ACCESS:        863  HIT:        863  MISS:          0
Heartbeat CPU 0 instructions: 98000003 cycles: 40073165 heartbeat IPC: 1.91976 cumulative IPC: 1.88961 (Simulation time: 0 hr 50 min 8 sec) 

Region of Interest Statistics
cpu0_DTLB TOTAL     ACCESS:   10173483  HIT:   10169610  MISS:       3873
cpu0_DTLB LOAD      ACCESS:    9725600  HIT:    9721751  MISS:       3849
cpu0_DTLB RFO       ACCESS:     447883  HIT:     447859  MISS:         24
cpu0_DTLB PREFETCH  ACCESS:          0  HIT:          0  MISS:          0
cpu0_DTLB WRITEBACK ACCESS:          0  HIT:          0  MISS:          0
cpu0_ITLB TOTAL     ACCESS:      83500  HIT:      83500  MISS:          0
cpu0_ITLB LOAD      ACCESS:      83500  HIT:      83500  MISS:          0
cpu0_ITLB RFO       ACCESS:          0  HIT:          0  MISS:          0
cpu0_ITLB PREFETCH  ACCESS:          0  HIT:          0  MISS:          0
cpu0_ITLB WRITEBACK ACCESS:          0  HIT:          0  MISS:          0
cpu0_STLB TOTAL     ACCESS:       3873  HIT:       2285  MISS:       1588
cpu0_STLB LOAD      ACCESS:       3849  HIT:       2261  MISS:       1588
cpu0_STLB RFO       ACCESS:         24  HIT:         24  MISS:          0
cpu0_STLB PREFETCH  ACCESS:          0  HIT:          0  MISS:          0
cpu0_STLB WRITEBACK ACCESS:          0  HIT:          0  MISS:          0
cpu0_L1D TOTAL     ACCESS:   12835799  HIT:   12595641  MISS:     240158
cpu0_L1D LOAD      ACCESS:   11499111  HIT:   11259505  MISS:     239606
cpu0_L1D RFO       ACCESS:    1335100  HIT:    1334708  MISS:        392
cpu0_L1D PREFETCH  ACCESS:          0  HIT:          0  MISS:          0
cpu0_L1D WRITEBACK ACCESS:          0  HIT:          0  MISS:          0
cpu0_L2C TOTAL     ACCESS:     314286  HIT:     282228  MISS:      32058
cpu0_L2C LOAD      ACCESS:     239601  HIT:     207575  MISS:      32026
cpu0_L2C RFO       ACCESS:        392  HIT:        392  MISS:          0
cpu0_L2C PREFETCH  ACCESS:          0  HIT:          0  MISS:          0
cpu0_L2C WRITEBACK ACCESS:      74133  HIT:      74108  MISS:         25
LLC TOTAL     ACCESS:      32906  HIT:       2660  MISS:      30246
LLC LOAD      ACCESS:      32026  HIT:       1780  MISS:      30246
LLC RFO       ACCESS:          0  HIT:          0  MISS:          0
LLC PREFETCH  ACCESS:          0  HIT:          0  MISS:          0
LLC WRITEBACK ACCESS:        873  HIT:        873  MISS:          0
Heartbeat CPU 0 instructions: 100000000 cycles: 41115360 heartbeat IPC: 1.91902 cumulative IPC: 1.89077 (Simulation time: 0 hr 51 min 13 sec) 

Region of Interest Statistics
cpu0_DTLB TOTAL     ACCESS:   10596631  HIT:   10592459  MISS:       4172
cpu0_DTLB LOAD      ACCESS:   10130190  HIT:   10126043  MISS:       4147
cpu0_DTLB RFO       ACCESS:     466441  HIT:     466416  MISS:         25
cpu0_DTLB PREFETCH  ACCESS:          0  HIT:          0  MISS:          0
cpu0_DTLB WRITEBACK ACCESS:          0  HIT:          0  MISS:          0
cpu0_ITLB TOTAL     ACCESS:      85603  HIT:      85603  MISS:          0
cpu0_ITLB LOAD      ACCESS:      85603  HIT:      85603  MISS:          0
cpu0_ITLB RFO       ACCESS:          0  HIT:          0  MISS:          0
cpu0_ITLB PREFETCH  ACCESS:          0  HIT:          0  MISS:          0
cpu0_ITLB WRITEBACK ACCESS:          0  HIT:          0  MISS:          0
cpu0_STLB TOTAL     ACCESS:       4172  HIT:       2537  MISS:       1635
cpu0_STLB LOAD      ACCESS:       4147  HIT:       2512  MISS:       1635
cpu0_STLB RFO       ACCESS:         25  HIT:         25  MISS:          0
cpu0_STLB PREFETCH  ACCESS:          0  HIT:          0  MISS:          0
cpu0_STLB WRITEBACK ACCESS:          0  HIT:          0  MISS:          0
cpu0_L1D TOTAL     ACCESS:   13370483  HIT:   13115173  MISS:     255310
cpu0_L1D LOAD      ACCESS:   11978450  HIT:   11723742  MISS:     254708
cpu0_L1D RFO       ACCESS:    1390398  HIT:    1389964  MISS:        434
cpu0_L1D PREFETCH  ACCESS:          0  HIT:          0  MISS:          0
cpu0_L1D WRITEBACK ACCESS:          0  HIT:          0  MISS:          0
cpu0_L2C TOTAL     ACCESS:     334328  HIT:     301059  MISS:      33269
cpu0_L2C LOAD      ACCESS:     254703  HIT:     221466  MISS:      33237
cpu0_L2C RFO       ACCESS:        434  HIT:        434  MISS:          0
cpu0_L2C PREFETCH  ACCESS:          0  HIT:          0  MISS:          0
cpu0_L2C WRITEBACK ACCESS:      79023  HIT:      78998  MISS:         25
LLC TOTAL     ACCESS:      34125  HIT:       2668  MISS:      31457
LLC LOAD      ACCESS:      33237  HIT:       1780  MISS:      31457
LLC RFO       ACCESS:          0  HIT:          0  MISS:          0
LLC PREFETCH  ACCESS:          0  HIT:          0  MISS:          0
LLC WRITEBACK ACCESS:        881  HIT:        881  MISS:          0
Heartbeat CPU 0 instructions: 102000000 cycles: 42151345 heartbeat IPC: 1.93053 cumulative IPC: 1.89226 (Simulation time: 0 hr 52 min 15 sec) 

Region of Interest Statistics
cpu0_DTLB TOTAL     ACCESS:   11016906  HIT:   11012474  MISS:       4432
cpu0_DTLB LOAD      ACCESS:   10531931  HIT:   10527525  MISS:       4406
cpu0_DTLB RFO       ACCESS:     484975  HIT:     484949  MISS:         26
cpu0_DTLB PREFETCH  ACCESS:          0  HIT:          0  MISS:          0
cpu0_DTLB WRITEBACK ACCESS:          0  HIT:          0  MISS:          0
cpu0_ITLB TOTAL     ACCESS:      87193  HIT:      87193  MISS:          0
cpu0_ITLB LOAD      ACCESS:      87193  HIT:      87193  MISS:          0
cpu0_ITLB RFO       ACCESS:          0  HIT:          0  MISS:          0
cpu0_ITLB PREFETCH  ACCESS:          0  HIT:          0  MISS:          0
cpu0_ITLB WRITEBACK ACCESS:          0  HIT:          0  MISS:          0
cpu0_STLB TOTAL     ACCESS:       4432  HIT:       2753  MISS:       1679
cpu0_STLB LOAD      ACCESS:       4406  HIT:       2727  MISS:       1679
cpu0_STLB RFO       ACCESS:         26  HIT:         26  MISS:          0
cpu0_STLB PREFETCH  ACCESS:          0  HIT:          0  MISS:          0
cpu0_STLB WRITEBACK ACCESS:          0  HIT:          0  MISS:          0
cpu0_L1D TOTAL     ACCESS:   13905200  HIT:   13632586  MISS:     272614
cpu0_L1D LOAD      ACCESS:   12457852  HIT:   12185887  MISS:     271965
cpu0_L1D RFO       ACCESS:    1445669  HIT:    1445201  MISS:        468
cpu0_L1D PREFETCH  ACCESS:          0  HIT:          0  MISS:          0
cpu0_L1D WRITEBACK ACCESS:          0  HIT:          0  MISS:          0
cpu0_L2C TOTAL     ACCESS:     357324  HIT:     322822  MISS:      34502
cpu0_L2C LOAD      ACCESS:     271960  HIT:     237492  MISS:      34468
cpu0_L2C RFO       ACCESS:        468  HIT:        468  MISS:          0
cpu0_L2C PREFETCH  ACCESS:          0  HIT:          0  MISS:          0
cpu0_L2C WRITEBACK ACCESS:      84715  HIT:      84690  MISS:         25
LLC TOTAL     ACCESS:      35376  HIT:       2689  MISS:      32687
LLC LOAD      ACCESS:      34468  HIT:       1781  MISS:      32687
LLC RFO       ACCESS:          0  HIT:          0  MISS:          0
LLC PREFETCH  ACCESS:          0  HIT:          0  MISS:          0
LLC WRITEBACK ACCESS:        899  HIT:        899  MISS:          0
Heartbeat CPU 0 instructions: 104000003 cycles: 43191054 heartbeat IPC: 1.92362 cumulative IPC: 1.89341 (Simulation time: 0 hr 53 min 21 sec) 

Region of Interest Statistics
cpu0_DTLB TOTAL     ACCESS:   11437036  HIT:   11432341  MISS:       4695
cpu0_DTLB LOAD      ACCESS:   10933525  HIT:   10928857  MISS:       4668
cpu0_DTLB RFO       ACCESS:     503511  HIT:     503484  MISS:         27
cpu0_DTLB PREFETCH  ACCESS:          0  HIT:          0  MISS:          0
cpu0_DTLB WRITEBACK ACCESS:          0  HIT:          0  MISS:          0
cpu0_ITLB TOTAL     ACCESS:      89094  HIT:      89094  MISS:          0
cpu0_ITLB LOAD      ACCESS:      89094  HIT:      89094  MISS:          0
cpu0_ITLB RFO       ACCESS:          0  HIT:          0  MISS:          0
cpu0_ITLB PREFETCH  ACCESS:          0  HIT:          0  MISS:          0
cpu0_ITLB WRITEBACK ACCESS:          0  HIT:          0  MISS:          0
cpu0_STLB TOTAL     ACCESS:       4695  HIT:       2971  MISS:       1724
cpu0_STLB LOAD      ACCESS:       4668  HIT:       2944  MISS:       1724
cpu0_STLB RFO       ACCESS:         27  HIT:         27  MISS:          0
cpu0_STLB PREFETCH  ACCESS:          0  HIT:          0  MISS:          0
cpu0_STLB WRITEBACK ACCESS:          0  HIT:          0  MISS:          0
cpu0_L1D TOTAL     ACCESS:   14439908  HIT:   14149565  MISS:     290343
cpu0_L1D LOAD      ACCESS:   12937221  HIT:   12647574  MISS:     289647
cpu0_L1D RFO       ACCESS:    1500963  HIT:    1500454  MISS:        509
cpu0_L1D PREFETCH  ACCESS:          0  HIT:          0  MISS:          0
cpu0_L1D WRITEBACK ACCESS:          0  HIT:          0  MISS:          0
cpu0_L2C TOTAL     ACCESS:     380805  HIT:     345057  MISS:      35748
cpu0_L2C LOAD      ACCESS:     289642  HIT:     253928  MISS:      35714
cpu0_L2C RFO       ACCESS:        509  HIT:        509  MISS:          0
cpu0_L2C PREFETCH  ACCESS:          0  HIT:          0  MISS:          0
cpu0_L2C WRITEBACK ACCESS:      90467  HIT:      90442  MISS:         25
LLC TOTAL     ACCESS:      36642  HIT:       2710  MISS:      33932
LLC LOAD      ACCESS:      35714  HIT:       1782  MISS:      33932
LLC RFO       ACCESS:          0  HIT:          0  MISS:          0
LLC PREFETCH  ACCESS:          0  HIT:          0  MISS:          0
LLC WRITEBACK ACCESS:        919  HIT:        919  MISS:          0
Heartbeat CPU 0 instructions: 106000003 cycles: 44229304 heartbeat IPC: 1.92632 cumulative IPC: 1.89456 (Simulation time: 0 hr 54 min 26 sec) 

Region of Interest Statistics
cpu0_DTLB TOTAL     ACCESS:   11857439  HIT:   11852521  MISS:       4918
cpu0_DTLB LOAD      ACCESS:   11335386  HIT:   11330497  MISS:       4889
cpu0_DTLB RFO       ACCESS:     522053  HIT:     522024  MISS:         29
cpu0_DTLB PREFETCH  ACCESS:          0  HIT:          0  MISS:          0
cpu0_DTLB WRITEBACK ACCESS:          0  HIT:          0  MISS:          0
cpu0_ITLB TOTAL     ACCESS:      90701  HIT:      90701  MISS:          0
cpu0_ITLB LOAD      ACCESS:      90701  HIT:      90701  MISS:          0
cpu0_ITLB RFO       ACCESS:          0  HIT:          0  MISS:          0
cpu0_ITLB PREFETCH  ACCESS:          0  HIT:          0  MISS:          0
cpu0_ITLB WRITEBACK ACCESS:          0  HIT:          0  MISS:          0
cpu0_STLB TOTAL     ACCESS:       4918  HIT:       3149  MISS:       1769
cpu0_STLB LOAD      ACCESS:       4889  HIT:       3120  MISS:       1769
cpu0_STLB RFO       ACCESS:         29  HIT:         29  MISS:          0
cpu0_STLB PREFETCH  ACCESS:          0  HIT:          0  MISS:          0
cpu0_STLB WRITEBACK ACCESS:          0  HIT:          0  MISS:          0
cpu0_L1D TOTAL     ACCESS:   14974859  HIT:   14667035  MISS:     307824
cpu0_L1D LOAD      ACCESS:   13416846  HIT:   13109757  MISS:     307089
cpu0_L1D RFO       ACCESS:    1556244  HIT:    1555704  MISS:        540
cpu0_L1D PREFETCH  ACCESS:          0  HIT:          0  MISS:          0
cpu0_L1D WRITEBACK ACCESS:          0  HIT:          0  MISS:          0
cpu0_L2C TOTAL     ACCESS:     403840  HIT:     366856  MISS:      36984
cpu0_L2C LOAD      ACCESS:     307083  HIT:     270133  MISS:      36950
cpu0_L2C RFO       ACCESS:        540  HIT:        540  MISS:          0
cpu0_L2C PREFETCH  ACCESS:          0  HIT:          0  MISS:          0
cpu0_L2C WRITEBACK ACCESS:      96022  HIT:      95997  MISS:         25
LLC TOTAL     ACCESS:      37906  HIT:       2741  MISS:      35165
LLC LOAD      ACCESS:      36950  HIT:       1785  MISS:      35165
LLC RFO       ACCESS:          0  HIT:          0  MISS:          0
LLC PREFETCH  ACCESS:          0  HIT:          0  MISS:          0
LLC WRITEBACK ACCESS:        947  HIT:        947  MISS:          0
Heartbeat CPU 0 instructions: 108000000 cycles: 45269769 heartbeat IPC: 1.92221 cumulative IPC: 1.8955 (Simulation time: 0 hr 55 min 25 sec) 

Region of Interest Statistics
cpu0_DTLB TOTAL     ACCESS:   12277369  HIT:   12272249  MISS:       5120
cpu0_DTLB LOAD      ACCESS:   11736780  HIT:   11731690  MISS:       5090
cpu0_DTLB RFO       ACCESS:     540589  HIT:     540559  MISS:         30
cpu0_DTLB PREFETCH  ACCESS:          0  HIT:          0  MISS:          0
cpu0_DTLB WRITEBACK ACCESS:          0  HIT:          0  MISS:          0
cpu0_ITLB TOTAL     ACCESS:      92268  HIT:      92268  MISS:          0
cpu0_ITLB LOAD      ACCESS:      92268  HIT:      92268  MISS:          0
cpu0_ITLB RFO       ACCESS:          0  HIT:          0  MISS:          0
cpu0_ITLB PREFETCH  ACCESS:          0  HIT:          0  MISS:          0
cpu0_ITLB WRITEBACK ACCESS:          0  HIT:          0  MISS:          0
cpu0_STLB TOTAL     ACCESS:       5120  HIT:       3310  MISS:       1810
cpu0_STLB LOAD      ACCESS:       5090  HIT:       3280  MISS:       1810
cpu0_STLB RFO       ACCESS:         30  HIT:         30  MISS:          0
cpu0_STLB PREFETCH  ACCESS:          0  HIT:          0  MISS:          0
cpu0_STLB WRITEBACK ACCESS:          0  HIT:          0  MISS:          0
cpu0_L1D TOTAL     ACCESS:   15509479  HIT:   15182393  MISS:     327086
cpu0_L1D LOAD      ACCESS:   13896170  HIT:   13569862  MISS:     326308
cpu0_L1D RFO       ACCESS:    1611499  HIT:    1610926  MISS:        573
cpu0_L1D PREFETCH  ACCESS:          0  HIT:          0  MISS:          0
cpu0_L1D WRITEBACK ACCESS:          0  HIT:          0  MISS:          0
cpu0_L2C TOTAL     ACCESS:     429344  HIT:     391053  MISS:      38291
cpu0_L2C LOAD      ACCESS:     326300  HIT:     288043  MISS:      38257
cpu0_L2C RFO       ACCESS:        573  HIT:        573  MISS:          0
cpu0_L2C PREFETCH  ACCESS:          0  HIT:          0  MISS:          0
cpu0_L2C WRITEBACK ACCESS:     102266  HIT:     102241  MISS:         25
LLC TOTAL     ACCESS:      39222  HIT:       2751  MISS:      36471
LLC LOAD      ACCESS:      38257  HIT:       1786  MISS:      36471
LLC RFO       ACCESS:          0  HIT:          0  MISS:          0
LLC PREFETCH  ACCESS:          0  HIT:          0  MISS:          0
LLC WRITEBACK ACCESS:        956  HIT:        956  MISS:          0
Heartbeat CPU 0 instructions: 110000000 cycles: 46307952 heartbeat IPC: 1.92644 cumulative IPC: 1.89652 (Simulation time: 0 hr 56 min 30 sec) 

Region of Interest Statistics
cpu0_DTLB TOTAL     ACCESS:   12698934  HIT:   12693679  MISS:       5255
cpu0_DTLB LOAD      ACCESS:   12139816  HIT:   12134592  MISS:       5224
cpu0_DTLB RFO       ACCESS:     559118  HIT:     559087  MISS:         31
cpu0_DTLB PREFETCH  ACCESS:          0  HIT:          0  MISS:          0
cpu0_DTLB WRITEBACK ACCESS:          0  HIT:          0  MISS:          0
cpu0_ITLB TOTAL     ACCESS:      93737  HIT:      93737  MISS:          0
cpu0_ITLB LOAD      ACCESS:      93737  HIT:      93737  MISS:          0
cpu0_ITLB RFO       ACCESS:          0  HIT:          0  MISS:          0
cpu0_ITLB PREFETCH  ACCESS:          0  HIT:          0  MISS:          0
cpu0_ITLB WRITEBACK ACCESS:          0  HIT:          0  MISS:          0
cpu0_STLB TOTAL     ACCESS:       5255  HIT:       3408  MISS:       1847
cpu0_STLB LOAD      ACCESS:       5224  HIT:       3377  MISS:       1847
cpu0_STLB RFO       ACCESS:         31  HIT:         31  MISS:          0
cpu0_STLB PREFETCH  ACCESS:          0  HIT:          0  MISS:          0
cpu0_STLB WRITEBACK ACCESS:          0  HIT:          0  MISS:          0
cpu0_L1D TOTAL     ACCESS:   16044152  HIT:   15698136  MISS:     346016
cpu0_L1D LOAD      ACCESS:   14375541  HIT:   14030348  MISS:     345193
cpu0_L1D RFO       ACCESS:    1666764  HIT:    1666158  MISS:        606
cpu0_L1D PREFETCH  ACCESS:          0  HIT:          0  MISS:          0
cpu0_L1D WRITEBACK ACCESS:          0  HIT:          0  MISS:          0
cpu0_L2C TOTAL     ACCESS:     454436  HIT:     414830  MISS:      39606
cpu0_L2C LOAD      ACCESS:     345185  HIT:     305613  MISS:      39572
cpu0_L2C RFO       ACCESS:        606  HIT:        606  MISS:          0
cpu0_L2C PREFETCH  ACCESS:          0  HIT:          0  MISS:          0
cpu0_L2C WRITEBACK ACCESS:     108428  HIT:     108403  MISS:         25
LLC TOTAL     ACCESS:      40543  HIT:       2763  MISS:      37780
LLC LOAD      ACCESS:      39572  HIT:       1792  MISS:      37780
LLC RFO       ACCESS:          0  HIT:          0  MISS:          0
LLC PREFETCH  ACCESS:          0  HIT:          0  MISS:          0
LLC WRITEBACK ACCESS:        962  HIT:        962  MISS:          0
Heartbeat CPU 0 instructions: 112000003 cycles: 47331949 heartbeat IPC: 1.95313 cumulative IPC: 1.89829 (Simulation time: 0 hr 57 min 35 sec) 

Region of Interest Statistics
cpu0_DTLB TOTAL     ACCESS:   13119356  HIT:   13113981  MISS:       5375
cpu0_DTLB LOAD      ACCESS:   12541719  HIT:   12536377  MISS:       5342
cpu0_DTLB RFO       ACCESS:     577637  HIT:     577604  MISS:         33
cpu0_DTLB PREFETCH  ACCESS:          0  HIT:          0  MISS:          0
cpu0_DTLB WRITEBACK ACCESS:          0  HIT:          0  MISS:          0
cpu0_ITLB TOTAL     ACCESS:      95453  HIT:      95453  MISS:          0
cpu0_ITLB LOAD      ACCESS:      95453  HIT:      95453  MISS:          0
cpu0_ITLB RFO       ACCESS:          0  HIT:          0  MISS:          0
cpu0_ITLB PREFETCH  ACCESS:          0  HIT:          0  MISS:          0
cpu0_ITLB WRITEBACK ACCESS:          0  HIT:          0  MISS:          0
cpu0_STLB TOTAL     ACCESS:       5375  HIT:       3500  MISS:       1875
cpu0_STLB LOAD      ACCESS:       5342  HIT:       3467  MISS:       1875
cpu0_STLB RFO       ACCESS:         33  HIT:         33  MISS:          0
cpu0_STLB PREFETCH  ACCESS:          0  HIT:          0  MISS:          0
cpu0_STLB WRITEBACK ACCESS:          0  HIT:          0  MISS:          0
cpu0_L1D TOTAL     ACCESS:   16578945  HIT:   16213740  MISS:     365205
cpu0_L1D LOAD      ACCESS:   14855014  HIT:   14490672  MISS:     364342
cpu0_L1D RFO       ACCESS:    1722056  HIT:    1721420  MISS:        636
cpu0_L1D PREFETCH  ACCESS:          0  HIT:          0  MISS:          0
cpu0_L1D WRITEBACK ACCESS:          0  HIT:          0  MISS:          0
cpu0_L2C TOTAL     ACCESS:     479942  HIT:     439133  MISS:      40809
cpu0_L2C LOAD      ACCESS:     364334  HIT:     323559  MISS:      40775
cpu0_L2C RFO       ACCESS:        636  HIT:        636  MISS:          0
cpu0_L2C PREFETCH  ACCESS:          0  HIT:          0  MISS:          0
cpu0_L2C WRITEBACK ACCESS:     114745  HIT:     114720  MISS:         25
LLC TOTAL     ACCESS:      41762  HIT:       2784  MISS:      38978
LLC LOAD      ACCESS:      40775  HIT:       1797  MISS:      38978
LLC RFO       ACCESS:          0  HIT:          0  MISS:          0
LLC PREFETCH  ACCESS:          0  HIT:          0  MISS:          0
LLC WRITEBACK ACCESS:        978  HIT:        978  MISS:          0
Heartbeat CPU 0 instructions: 114000001 cycles: 48352015 heartbeat IPC: 1.96066 cumulative IPC: 1.90018 (Simulation time: 0 hr 58 min 40 sec) 

Region of Interest Statistics
cpu0_DTLB TOTAL     ACCESS:   13541520  HIT:   13536054  MISS:       5466
cpu0_DTLB LOAD      ACCESS:   12945363  HIT:   12939931  MISS:       5432
cpu0_DTLB RFO       ACCESS:     596157  HIT:     596123  MISS:         34
cpu0_DTLB PREFETCH  ACCESS:          0  HIT:          0  MISS:          0
cpu0_DTLB WRITEBACK ACCESS:          0  HIT:          0  MISS:          0
cpu0_ITLB TOTAL     ACCESS:      96971  HIT:      96971  MISS:          0
cpu0_ITLB LOAD      ACCESS:      96971  HIT:      96971  MISS:          0
cpu0_ITLB RFO       ACCESS:          0  HIT:          0  MISS:          0
cpu0_ITLB PREFETCH  ACCESS:          0  HIT:          0  MISS:          0
cpu0_ITLB WRITEBACK ACCESS:          0  HIT:          0  MISS:          0
cpu0_STLB TOTAL     ACCESS:       5466  HIT:       3569  MISS:       1897
cpu0_STLB LOAD      ACCESS:       5432  HIT:       3535  MISS:       1897
cpu0_STLB RFO       ACCESS:         34  HIT:         34  MISS:          0
cpu0_STLB PREFETCH  ACCESS:          0  HIT:          0  MISS:          0
cpu0_STLB WRITEBACK ACCESS:          0  HIT:          0  MISS:          0
cpu0_L1D TOTAL     ACCESS:   17113903  HIT:   16726950  MISS:     386953
cpu0_L1D LOAD      ACCESS:   15334671  HIT:   14948623  MISS:     386048
cpu0_L1D RFO       ACCESS:    1777335  HIT:    1776677  MISS:        658
cpu0_L1D PREFETCH  ACCESS:          0  HIT:          0  MISS:          0
cpu0_L1D WRITEBACK ACCESS:          0  HIT:          0  MISS:          0
cpu0_L2C TOTAL     ACCESS:     509079  HIT:     467049  MISS:      42030
cpu0_L2C LOAD      ACCESS:     386040  HIT:     344044  MISS:      41996
cpu0_L2C RFO       ACCESS:        658  HIT:        658  MISS:          0
cpu0_L2C PREFETCH  ACCESS:          0  HIT:          0  MISS:          0
cpu0_L2C WRITEBACK ACCESS:     122134  HIT:     122109  MISS:         25
LLC TOTAL     ACCESS:      42998  HIT:       2808  MISS:      40190
LLC LOAD      ACCESS:      41996  HIT:       1806  MISS:      40190
LLC RFO       ACCESS:          0  HIT:          0  MISS:          0
LLC PREFETCH  ACCESS:          0  HIT:          0  MISS:          0
LLC WRITEBACK ACCESS:        993  HIT:        993  MISS:          0
Heartbeat CPU 0 instructions: 116000000 cycles: 49370633 heartbeat IPC: 1.96344 cumulative IPC: 1.90204 (Simulation time: 0 hr 59 min 47 sec) 

Region of Interest Statistics
cpu0_DTLB TOTAL     ACCESS:   13963952  HIT:   13958406  MISS:       5546
cpu0_DTLB LOAD      ACCESS:   13349263  HIT:   13343752  MISS:       5511
cpu0_DTLB RFO       ACCESS:     614689  HIT:     614654  MISS:         35
cpu0_DTLB PREFETCH  ACCESS:          0  HIT:          0  MISS:          0
[...]
cpu0_DTLB LOAD      ACCESS:  287445790  HIT:  286881540  MISS:     564250
cpu0_DTLB RFO       ACCESS:   19038033  HIT:   19027963  MISS:      10070
cpu0_DTLB PREFETCH  ACCESS:          0  HIT:          0  MISS:          0
cpu0_DTLB WRITEBACK ACCESS:          0  HIT:          0  MISS:          0
cpu0_DTLB TRANSLATION ACCESS:          0  HIT:          0  MISS:          0
cpu0_DTLB PREFETCH  REQUESTED:          0  ISSUED:          0  USEFUL:          0  USELESS:          0
cpu0_DTLB AVERAGE MISS LATENCY: 21.8708 cycles
cpu0_ITLB TOTAL     ACCESS:    7772007  HIT:    7771983  MISS:         24
cpu0_ITLB LOAD      ACCESS:    7772007  HIT:    7771983  MISS:         24
cpu0_ITLB RFO       ACCESS:          0  HIT:          0  MISS:          0
cpu0_ITLB PREFETCH  ACCESS:          0  HIT:          0  MISS:          0
cpu0_ITLB WRITEBACK ACCESS:          0  HIT:          0  MISS:          0
cpu0_ITLB TRANSLATION ACCESS:          0  HIT:          0  MISS:          0
cpu0_ITLB PREFETCH  REQUESTED:          0  ISSUED:          0  USEFUL:          0  USELESS:          0
cpu0_ITLB AVERAGE MISS LATENCY: 220.625 cycles
cpu0_L1I TOTAL     ACCESS:   18903841  HIT:   18903363  MISS:        478
cpu0_L1I LOAD      ACCESS:   18903841  HIT:   18903363  MISS:        478
cpu0_L1I RFO       ACCESS:          0  HIT:          0  MISS:          0
cpu0_L1I PREFETCH  ACCESS:          0  HIT:          0  MISS:          0
cpu0_L1I WRITEBACK ACCESS:          0  HIT:          0  MISS:          0
cpu0_L1I TRANSLATION ACCESS:          0  HIT:          0  MISS:          0
cpu0_L1I PREFETCH  REQUESTED:          0  ISSUED:          0  USEFUL:          0  USELESS:          0
cpu0_L1I AVERAGE MISS LATENCY: 210.91 cycles
cpu0_STLB TOTAL     ACCESS:     574344  HIT:     542103  MISS:      32241
cpu0_STLB LOAD      ACCESS:     564274  HIT:     533596  MISS:      30678
cpu0_STLB RFO       ACCESS:      10070  HIT:       8507  MISS:       1563
cpu0_STLB PREFETCH  ACCESS:          0  HIT:          0  MISS:          0
cpu0_STLB WRITEBACK ACCESS:          0  HIT:          0  MISS:          0
cpu0_STLB TRANSLATION ACCESS:          0  HIT:          0  MISS:          0
cpu0_STLB PREFETCH  REQUESTED:          0  ISSUED:          0  USEFUL:          0  USELESS:          0
cpu0_STLB AVERAGE MISS LATENCY: 228.932 cycles
cpu0_L1D TOTAL     ACCESS:  395087373  HIT:  382672181  MISS:   12415192
cpu0_L1D LOAD      ACCESS:  340514783  HIT:  328224851  MISS:   12289932
cpu0_L1D RFO       ACCESS:   54541489  HIT:   54426563  MISS:     114926
cpu0_L1D PREFETCH  ACCESS:          0  HIT:          0  MISS:          0
cpu0_L1D WRITEBACK ACCESS:          0  HIT:          0  MISS:          0
cpu0_L1D TRANSLATION ACCESS:      31101  HIT:      20767  MISS:      10334
cpu0_L1D PREFETCH  REQUESTED:          0  ISSUED:          0  USEFUL:          0  USELESS:          0
cpu0_L1D AVERAGE MISS LATENCY: 35.958 cycles
cpu0_L2C TOTAL     ACCESS:   16558159  HIT:   14682761  MISS:    1875398
cpu0_L2C LOAD      ACCESS:   12290358  HIT:   10520465  MISS:    1769893
cpu0_L2C RFO       ACCESS:     114926  HIT:      10340  MISS:     104586
cpu0_L2C PREFETCH  ACCESS:          0  HIT:          0  MISS:          0
cpu0_L2C WRITEBACK ACCESS:    4142541  HIT:    4141871  MISS:        670
cpu0_L2C TRANSLATION ACCESS:      10334  HIT:      10085  MISS:        249
cpu0_L2C PREFETCH  REQUESTED:          0  ISSUED:          0  USEFUL:          0  USELESS:          0
cpu0_L2C AVERAGE MISS LATENCY: 165.161 cycles
LLC TOTAL     ACCESS:    2285006  HIT:    1041826  MISS:    1243180
LLC LOAD      ACCESS:    1769892  HIT:     623860  MISS:    1146032
LLC RFO       ACCESS:     104586  HIT:      11381  MISS:      93205
LLC PREFETCH  ACCESS:          0  HIT:          0  MISS:          0
LLC WRITEBACK ACCESS:     410279  HIT:     406355  MISS:       3924
LLC TRANSLATION ACCESS:        249  HIT:        230  MISS:         19
LLC PREFETCH  REQUESTED:          0  ISSUED:          0  USEFUL:          0  USELESS:          0
LLC AVERAGE MISS LATENCY: 217.482 cycles
~~~~~~~~~~Reuse Distance Profiler output~~~~~~~~~~
0	17745968	1323744
1	7831408	2909008
2	11222816	1821664
3	3074752	2510560
4	3714112	3170208
5	13563088	12778768
6	15493936	13533728
7	6392000	4444736
8	7906368	7508640
9	5737712	4867008
10	13345728	12451616
11	4887728	4611072
12	3751872	3486048
13	2460368	2235136
14	3876992	3323744
15	2635648	2333792
16	2534352	2363616
17	2825264	2538848
18	3183248	2954432
19	4772576	4572256
20	3295728	2823328
21	12025648	11379168
22	10223488	10057120
23	11491792	10765088
24	11164576	5005312
25	3367296	3167952
26	7349920	7152464
27	16076192	15918336
28	84495344	84340352
29	32319168	32156560
30	18492544	18326320
31	2316672	2180864
32	2544928	2419296
33	1614256	1403728
34	2116176	1758112
35	1347504	888128
36	1705952	1475552
37	900928	732832
38	1113840	971520
39	687616	529600
40	632816	504432
41	255136	138320
42	199392	109600
43	192560	111536
44	175504	104880
45	155408	98736
46	162560	114784
47	168704	121824
48	152048	106144
49	156784	101408
50	272976	207040
51	240272	176256
52	254224	194320
53	178848	117152
54	221520	159104
55	385392	318960
56	729264	661648
57	1537744	1472912
58	1393696	1334368
59	1412192	1354112
60	470816	402256
61	305968	238144
62	342208	224928
63	258432	153616
64	427088	212560
66	355840	181840
68	338736	207856
70	242624	173168
72	247888	138960
74	280048	148336
76	255680	178512
78	321248	250592
80	372576	296224
82	320208	267952
84	493648	452544
86	1269408	1236144
88	699104	669808
90	403872	375872
92	364320	335648
94	302144	276784
96	272912	248768
98	275008	237616
100	310976	261088
102	353808	308368
104	354336	327696
106	451424	435200
108	686720	673440
110	759840	750640
112	492640	481312
114	460560	442144
116	627104	607968
118	208160	198704
120	108944	105600
122	62400	59968
124	41184	38880
126	36640	34048
128	55296	51632
132	41232	38608
136	77312	74896
140	156560	155616
144	408928	407904
148	73056	72064
152	25696	24160
156	24368	21840
160	24016	21776
164	42112	40032
168	133344	131184
172	400656	398544
176	214640	212944
180	33152	31280
184	19936	18576
188	19696	18688
192	22672	21392
196	68112	66912
200	232064	230784
204	245936	245264
208	53264	52928
212	33680	33408
216	39200	38944
220	43920	43664
224	68208	68048
228	211488	211360
232	359680	359584
236	55408	55248
240	14720	14384
244	10624	10384
248	10608	10368
252	13872	13664
256	217152	216896
264	72000	71712
272	15616	15552
280	53808	53664
288	236464	236176
296	29184	29152
304	20432	20400
312	153600	153504
320	167168	167120
328	30144	30048
336	21248	21200
344	261264	261216
352	54096	54064
360	12880	12864
368	34128	34032
376	111296	111280
384	16416	16384
392	9008	8992
400	140192	140128
408	95792	95792
416	13888	13888
424	31728	31696
432	220000	219968
440	43136	43120
448	13488	13488
456	28992	28992
464	229840	229824
472	13632	13632
480	11904	11904
488	127568	127568
496	58720	58720
504	10144	10144
512	129088	129056
528	34144	34128
544	376272	376240
560	27792	27744
576	119200	119184
592	22272	22256
608	77952	77952
624	54432	54336
640	91456	91440
656	33696	33696
672	12704	12704
688	63696	63664
704	9152	9152
720	19392	19312
736	10400	10384
752	23552	23552
768	18112	18112
784	17776	17776
800	12096	12080
816	9312	9264
832	13072	13072
848	9264	9232
864	23552	23520
880	12176	12128
896	12480	12464
912	5712	5712
928	11632	11632
944	8592	8592
960	11152	11152
976	10672	10640
992	8816	8800
1008	8192	8192
1024	12624	12560
1056	15296	15168
1088	23184	23168
1120	12512	12416
1152	14720	14640
1184	16800	16784
1216	13200	13184
1248	12080	12064
1280	15328	15328
1312	13456	13408
1344	7808	7808
1376	11024	10992
1408	11024	11024
1440	8496	8432
1472	8704	8672
1504	11472	11424
1536	11792	11792
1568	7776	7712
1600	8672	8640
1632	10768	10752
1664	8848	8816
1696	9648	9648
1728	10496	10496
1760	8416	8416
1792	8928	8896
1824	9984	9920
1856	11200	11152
1888	9760	9760
1920	9312	9296
1952	8352	8336
1984	7648	7600
2016	7744	7744
2048	15680	15680
2112	15200	15168
2176	17456	17424
2240	18416	18400
2304	18336	18272
2368	17120	17104
2432	16848	16720
2496	15264	15200
2560	14736	14720
2624	15344	15280
2688	16160	16096
2752	15600	15552
2816	16896	16832
2880	15472	15376
2944	15632	15536
3008	13440	13408
3072	14464	14448
3136	12512	12480
3200	11888	11856
3264	13504	13456
3328	15568	15440
3392	13904	13808
3456	14368	14288
3520	14896	14816
3584	15184	15120
3648	13632	13584
3712	13344	13296
3776	15504	15424
3840	15200	15136
3904	14704	14544
3968	15872	15808
4032	14864	14768
4096	33808	33632
4224	31488	31344
4352	29184	29040
4480	30544	30416
4608	31232	30976
4736	34528	34400
4864	34112	33840
4992	33616	33488
5120	31520	31440
5248	33200	33104
5376	33552	33424
5504	31376	31232
5632	29184	29056
5760	28160	28080
5888	28016	27936
6016	26928	26768
6144	27184	27168
6272	26656	26592
6400	26544	26464
6528	26784	26656
6656	24480	24432
6784	26000	25888
6912	27264	27216
7040	28960	28816
7168	29088	28992
7296	28448	28352
7424	26368	26304
7552	27888	27808
7680	27328	27248
7808	26544	26480
7936	26768	26624
8064	27264	27216
8192	60512	60272
8448	59664	59424
8704	57952	57760
8960	63824	63680
9216	69200	68896
9472	73152	73008
9728	71696	71456
9984	64720	64496
10240	63456	63328
10496	62544	62320
10752	65056	64816
11008	67488	67296
11264	66656	66480
11520	60240	60112
11776	59216	59056
12032	64112	63904
12288	66896	66672
12544	74976	74704
12800	65824	65520
13056	72128	72016
13312	72944	72720
13568	77536	77328
13824	80192	79984
14080	78832	78640
14336	85648	85504
14592	82640	82544
14848	74432	74336
15104	81952	81680
15360	86640	86512
15616	87440	87264
15872	95936	95792
16128	91440	91296
16384	177712	177376
16896	170256	169904
17408	158720	158320
17920	162480	162176
18432	160480	160288
18944	169392	169040
19456	203472	203152
19968	191744	191376
20480	180944	180592
20992	178960	178784
21504	169200	168848
22016	156272	156048
22528	157936	157712
23040	153376	153248
23552	136240	136064
24064	122688	122496
24576	116432	116320
25088	108400	108160
25600	102144	102064
26112	108560	108432
26624	109408	109360
27136	111104	110960
27648	111168	110912
28160	98720	98592
28672	105616	105488
29184	83040	82960
29696	86224	86112
30208	86336	86288
30720	84400	84224
31232	95952	95840
31744	101424	101280
32256	100160	100080
32768	197472	197312
33792	196464	196192
34816	219936	219856
35840	198608	198464
36864	209888	209728
37888	206256	206080
38912	218368	218240
39936	209488	209328
40960	214944	214688
41984	204352	204208
43008	205408	205248
44032	198656	198576
45056	206528	206368
46080	180080	180000
47104	195728	195664
48128	192832	192768
49152	203072	202944
50176	191264	191120
51200	181264	181120
52224	163536	163456
53248	134976	134912
54272	135904	135792
55296	149328	149296
56320	148144	148112
57344	123760	123728
58368	101152	101104
59392	97136	97072
60416	68368	68368
61440	76976	76976
62464	85456	85424
63488	109056	109024
64512	117680	117632
65536	257376	257264
67584	268752	268624
69632	193056	192992
71680	111584	111552
73728	110576	110544
75776	134752	134704
77824	128016	127952
79872	138368	138352
81920	113008	112992
83968	61936	61904
86016	21808	21808
88064	10848	10848
90112	7744	7744
92160	8768	8736
94208	8384	8384
96256	7856	7856
98304	7984	7968
100352	8368	8368
102400	7728	7728
104448	7952	7952
106496	7344	7344
108544	6976	6976
110592	7072	7072
112640	7136	7120
114688	5984	5984
116736	6640	6592
118784	6240	6240
120832	5808	5776
122880	5824	5824
124928	5264	5248
126976	7696	7680
129024	7216	7200
131072	13472	13424
135168	14560	14544
139264	12736	12736
143360	8848	8848
147456	10768	10752
151552	11408	11392
155648	10496	10480
159744	10576	10576
163840	10480	10464
167936	7616	7616
172032	6784	6752
176128	7280	7280
180224	6832	6816
184320	6192	6176
188416	5504	5504
192512	4896	4880
196608	5696	5680
200704	5168	5168
204800	5216	5168
208896	4768	4752
212992	4352	4336
217088	3344	3344
221184	4000	4000
225280	4064	4064
229376	4512	4512
233472	4512	4496
237568	4096	4096
241664	4256	4240
245760	4240	4240
249856	3648	3648
253952	3408	3392
258048	3600	3584
262144	6688	6640
270336	6144	6112
278528	6672	6672
286720	5424	5392
294912	8144	8128
303104	9072	9072
311296	8512	8512
319488	8256	8256
327680	7504	7504
335872	7856	7824
344064	7712	7696
352256	7664	7664
360448	5824	5808
368640	7120	7088
376832	4800	4800
385024	4800	4736
393216	4352	4336
401408	3984	3984
409600	20256	20256
417792	23168	23152
425984	10912	10912
434176	1536	1520
442368	1968	1952
450560	1504	1488
458752	2096	2080
466944	2144	2128
475136	2480	2464
483328	1920	1920
491520	1680	1664
499712	2064	2032
507904	1552	1536
516096	1728	1696
524288	2816	2784
540672	2944	2896
557056	3616	3616
573440	3232	3200
589824	2720	2704
606208	8160	2672
622592	19376	3040
638976	4288	2480
655360	2064	2016
671744	2336	2320
688128	1776	1760
704512	2144	2112
720896	2608	2592
737280	1984	1968
753664	2032	1984
770048	2272	2240
786432	2080	2048
802816	1776	1728
819200	1744	1744
835584	2064	2032
851968	1632	1616
868352	1440	1360
884736	1888	1872
901120	1664	1664
917504	1280	1248
933888	1232	1200
950272	1584	1552
966656	1600	1568
983040	1232	1216
999424	1600	1568
1015808	912	912
1032192	1152	1152
1048576	2064	2016
1081344	2656	2608
1114112	2544	2528
1146880	1952	1920
1179648	2112	1984
1212416	2272	2224
1245184	1840	1760
1277952	2176	2144
1310720	1584	1536
1343488	1984	1952
1376256	1776	1744
1409024	1424	1392
1441792	1616	1568
1474560	1856	1840
1507328	1616	1536
1540096	1536	1488
1572864	1600	1568
1605632	1808	1776
1638400	1392	1344
1671168	1376	1296
1703936	1600	1552
1736704	1648	1600
1769472	1168	1136
1802240	1328	1312
1835008	1376	1328
1867776	1632	1616
1900544	1344	1264
1933312	1424	1344
1966080	1376	1360
1998848	1408	1392
2031616	1232	1168
2064384	1504	1456
2097152	2528	2416
2162688	2544	2464
2228224	2384	2320
2293760	2704	2656
2359296	2464	2400
2424832	2224	2144
2490368	2176	2112
2555904	2688	2608
2621440	2432	2352
2686976	1872	1776
2752512	2256	2176
2818048	2128	2048
2883584	1968	1856
2949120	2096	2032
3014656	2064	2032
3080192	2224	2160
3145728	1936	1888
3211264	1984	1888
3276800	2208	2144
3342336	2080	1984
3407872	2176	2080
3473408	2016	1984
3538944	1936	1792
3604480	1792	1664
3670016	1904	1808
3735552	1552	1440
3801088	1840	1760
3866624	1888	1776
3932160	1728	1616
3997696	1600	1536
4063232	1904	1840
4128768	1744	1696
4194304	3312	3040
4325376	3088	2992
4456448	3312	3152
4587520	3520	3344
4718592	6064	5872
4849664	5616	5552
4980736	5632	5472
5111808	6128	5936
5242880	6240	6064
5373952	6160	5984
5505024	6272	6064
5636096	6224	5984
5767168	6720	6560
5898240	6672	6496
6029312	6160	5984
6160384	6128	6032
6291456	5632	5376
6422528	5456	5248
6553600	5312	5312
6684672	4320	4320
6815744	4784	4784
6946816	5008	5008
7077888	4864	4864
7208960	5184	5184
7340032	5376	5376
7471104	5216	5216
7602176	5664	5664
7733248	3904	3904
7864320	2672	2672
7995392	2672	2672
8126464	2384	2384
8257536	2176	2176
8388608	4944	4944
8650752	4432	4432
8912896	4960	4960
9175040	4320	4320
9437184	4704	4704
9699328	5136	5136
9961472	4688	4688
10223616	4464	4464
10485760	4864	4864
10747904	4896	4896
11010048	3264	3264
11272192	3424	3424
11534336	4016	4016
11796480	4720	4720
12058624	4400	4400
12320768	4560	4560
12582912	4416	4416
12845056	4928	4928
13107200	3104	3104
13369344	2864	2864
13631488	1472	1472
13893632	848	848
14155776	912	912
14417920	896	896
14680064	896	896
14942208	784	784
15204352	576	576
15466496	608	608
15728640	672	672
15990784	576	576
16252928	448	448
16515072	352	352
16777216	832	832
17301504	720	720
17825792	576	576
18350080	624	624
18874368	768	768
19398656	624	624
19922944	592	592
20447232	704	704
20971520	1104	1104
21495808	832	832
22020096	624	624
22544384	688	688
23068672	736	736
23592960	464	464
24117248	848	848
24641536	672	672
25165824	672	672
25690112	688	688
26214400	384	384
26738688	368	368
27262976	736	736
27787264	368	368
28311552	208	208
28835840	256	256
29360128	176	176
29884416	240	240
30408704	288	288
30932992	384	384
31457280	192	192
31981568	128	128
32505856	224	224
33030144	432	432
33554432	448	448
34603008	512	512
35651584	432	432
36700160	608	608
37748736	592	592
38797312	896	880
39845888	912	896
40894464	576	576
41943040	720	704
42991616	448	448
44040192	304	288
45088768	608	592
46137344	432	432
47185920	496	480
48234496	304	304
49283072	432	432
50331648	624	624
51380224	496	496
52428800	480	464
53477376	576	576
54525952	240	224
55574528	384	384
56623104	528	528
57671680	224	224
58720256	304	304
59768832	304	304
60817408	272	272
61865984	176	176
62914560	192	192
63963136	80	80
65011712	416	416
66060288	208	208
67108864	864	848
69206016	656	640
71303168	1056	1056
73400320	768	768
75497472	880	880
77594624	640	624
79691776	1088	1072
81788928	960	944
83886080	1040	1040
85983232	960	960
88080384	560	560
90177536	720	720
92274688	544	544
94371840	560	496
96468992	336	336
98566144	512	512
100663296	912	896
102760448	528	528
104857600	368	336
106954752	416	416
109051904	432	432
111149056	464	464
113246208	352	352
115343360	368	352
117440512	480	480
119537664	624	608
121634816	416	416
123731968	320	304
125829120	304	304
127926272	96	96
130023424	528	512
132120576	272	224
134217728	304	288
138412032	352	336
142606336	1152	1088
146800640	992	976
150994944	480	464
155189248	800	784
159383552	384	368
163577856	832	832
167772160	800	800
171966464	1344	1344
176160768	1152	1152
180355072	1920	1920
184549376	1264	1264
188743680	1104	1104
192937984	144	144
197132288	592	592
201326592	480	480
205520896	208	208
209715200	112	112
213909504	112	112
218103808	208	208
222298112	112	112
226492416	128	128
230686720	128	128
234881024	128	128
239075328	0	0
243269632	0	0
247463936	0	0
251658240	0	0
255852544	0	0
260046848	0	0
264241152	0	0
268435456	0	0
276824064	0	0
285212672	0	0
293601280	0	0
301989888	0	0
310378496	0	0
318767104	0	0
327155712	0	0
335544320	0	0
343932928	0	0
352321536	0	0
360710144	0	0
369098752	0	0
377487360	0	0
385875968	0	0
394264576	0	0
402653184	0	0
411041792	0	0
419430400	0	0
427819008	0	0
436207616	0	0
444596224	0	0
452984832	0	0
461373440	0	0
469762048	0	0
478150656	0	0
486539264	0	0
494927872	0	0
503316480	0	0
511705088	0	0
520093696	0	0
528482304	0	0
536870912	0	0
553648128	0	0
570425344	0	0
587202560	0	0
603979776	0	0
620756992	0	0
637534208	0	0
654311424	0	0
671088640	0	0
687865856	0	0
704643072	0	0
721420288	0	0
738197504	0	0
754974720	0	0
771751936	0	0
788529152	0	0
805306368	0	0
822083584	0	0
838860800	0	0
855638016	0	0
872415232	0	0
889192448	0	0
905969664	0	0
922746880	0	0
939524096	0	0
956301312	0	0
973078528	0	0
989855744	0	0
1006632960	0	0
1023410176	0	0
1040187392	0	0
1056964608	0	0
1073741824	0	0
1107296256	0	0
1140850688	0	0
1174405120	0	0
1207959552	0	0
1241513984	0	0
1275068416	0	0
1308622848	0	0
1342177280	0	0
1375731712	0	0
1409286144	0	0
1442840576	0	0
1476395008	0	0
1509949440	0	0
1543503872	0	0
1577058304	0	0
1610612736	0	0
1644167168	0	0
1677721600	0	0
1711276032	0	0
1744830464	0	0
1778384896	0	0
1811939328	0	0
1845493760	0	0
1879048192	0	0
1912602624	0	0
1946157056	0	0
1979711488	0	0
2013265920	0	0
2046820352	0	0
2080374784	0	0
2113929216	0	0
2147483648	0	0
2214592512	0	0
2281701376	0	0
2348810240	0	0
2415919104	0	0
2483027968	0	0
2550136832	0	0
2617245696	0	0
2684354560	0	0
2751463424	0	0
2818572288	0	0
2885681152	0	0
2952790016	0	0
3019898880	0	0
3087007744	0	0
3154116608	0	0
3221225472	0	0
3288334336	0	0
3355443200	0	0
3422552064	0	0
3489660928	0	0
3556769792	0	0
3623878656	0	0
3690987520	0	0
3758096384	0	0
3825205248	0	0
3892314112	0	0
3959422976	0	0
4026531840	0	0
4093640704	0	0
4160749568	0	0
4227858432	0	0
~~~~~~~~~~Reuse Distance Profiler output end~~~~~~~~~~

Sampler size:74379

DRAM Statistics
 CHANNEL 0
 RQ ROW_BUFFER_HIT:     648394  ROW_BUFFER_MISS:     590757
 DBUS AVG_CONGESTED_CYCLE:     3.9721
 WQ ROW_BUFFER_HIT:       7265  ROW_BUFFER_MISS:     113114  FULL:       2801


CPU 0 Branch Prediction Accuracy: 99.6101% MPKI: 0.368872 Average ROB Occupancy at Mispredict: 148.098
Branch type MPKI
BRANCH_DIRECT_JUMP: 6.13333e-05
BRANCH_INDIRECT: 0.0929827
BRANCH_CONDITIONAL: 0.275796
BRANCH_DIRECT_CALL: 1.6e-05
BRANCH_INDIRECT_CALL: 0
BRANCH_RETURN: 1.6e-05

