
*** ChampSim Multicore Out-of-Order Simulator ***

Warmup Instructions: 50000000
Simulation Instructions: 1500000000
Number of CPUs: 1
Off-chip DRAM Size: 4 GiB Channels: 1 Width: 64-bit Data Rate: 3200 MT/s

VirtualMemory physical capacity: 8588881920 num_ppages: 2096895
VirtualMemory page size: 4096 log2_page_size: 12

CPU 0 runs /s/traces/champsim_traces/649.fotonik3d_s-8225B.champsimtrace.xz
CPU 0 Bimodal branch predictor
Basic BTB sets: 1024 ways: 8 indirect buffer size: 4096 RAS size: 64
Initializing LRU.
Initializing LRU.
Initializing LRU.
Initializing LRU.
Initializing rdLRU.
Initializing LRU.
Heartbeat CPU 0 instructions: 2000002 cycles: 701634 heartbeat IPC: 2.85049 cumulative IPC: 2.85049 (Simulation time: 0 hr 1 min 6 sec) 
Heartbeat CPU 0 instructions: 4000000 cycles: 1403189 heartbeat IPC: 2.85081 cumulative IPC: 2.85065 (Simulation time: 0 hr 2 min 12 sec) 
Heartbeat CPU 0 instructions: 6000003 cycles: 2104743 heartbeat IPC: 2.85082 cumulative IPC: 2.85071 (Simulation time: 0 hr 3 min 15 sec) 
Heartbeat CPU 0 instructions: 8000000 cycles: 2806253 heartbeat IPC: 2.85099 cumulative IPC: 2.85078 (Simulation time: 0 hr 4 min 16 sec) 
Heartbeat CPU 0 instructions: 10000004 cycles: 3507808 heartbeat IPC: 2.85082 cumulative IPC: 2.85078 (Simulation time: 0 hr 5 min 16 sec) 
Heartbeat CPU 0 instructions: 12000001 cycles: 4209314 heartbeat IPC: 2.851 cumulative IPC: 2.85082 (Simulation time: 0 hr 6 min 18 sec) 
Heartbeat CPU 0 instructions: 14000004 cycles: 4910876 heartbeat IPC: 2.85079 cumulative IPC: 2.85082 (Simulation time: 0 hr 7 min 13 sec) 
Heartbeat CPU 0 instructions: 16000002 cycles: 5612430 heartbeat IPC: 2.85081 cumulative IPC: 2.85082 (Simulation time: 0 hr 8 min 13 sec) 
Heartbeat CPU 0 instructions: 18000000 cycles: 6313936 heartbeat IPC: 2.85101 cumulative IPC: 2.85084 (Simulation time: 0 hr 9 min 16 sec) 
Heartbeat CPU 0 instructions: 20000001 cycles: 7015495 heartbeat IPC: 2.8508 cumulative IPC: 2.85083 (Simulation time: 0 hr 10 min 18 sec) 
Heartbeat CPU 0 instructions: 22000002 cycles: 7717052 heartbeat IPC: 2.8508 cumulative IPC: 2.85083 (Simulation time: 0 hr 11 min 35 sec) 
Heartbeat CPU 0 instructions: 24000004 cycles: 8418557 heartbeat IPC: 2.85102 cumulative IPC: 2.85085 (Simulation time: 0 hr 12 min 48 sec) 
Heartbeat CPU 0 instructions: 26000000 cycles: 9120112 heartbeat IPC: 2.8508 cumulative IPC: 2.85084 (Simulation time: 0 hr 14 min 2 sec) 
Heartbeat CPU 0 instructions: 28000004 cycles: 9821623 heartbeat IPC: 2.85099 cumulative IPC: 2.85085 (Simulation time: 0 hr 15 min 16 sec) 
Heartbeat CPU 0 instructions: 30000000 cycles: 10523179 heartbeat IPC: 2.8508 cumulative IPC: 2.85085 (Simulation time: 0 hr 16 min 28 sec) 
Heartbeat CPU 0 instructions: 32000000 cycles: 11224734 heartbeat IPC: 2.85081 cumulative IPC: 2.85085 (Simulation time: 0 hr 17 min 38 sec) 
Heartbeat CPU 0 instructions: 34000003 cycles: 11926244 heartbeat IPC: 2.851 cumulative IPC: 2.85086 (Simulation time: 0 hr 18 min 46 sec) 
Heartbeat CPU 0 instructions: 36000001 cycles: 12627798 heartbeat IPC: 2.85081 cumulative IPC: 2.85085 (Simulation time: 0 hr 19 min 55 sec) 
Heartbeat CPU 0 instructions: 38000003 cycles: 13329360 heartbeat IPC: 2.85078 cumulative IPC: 2.85085 (Simulation time: 0 hr 21 min 3 sec) 
Heartbeat CPU 0 instructions: 40000000 cycles: 14030860 heartbeat IPC: 2.85103 cumulative IPC: 2.85086 (Simulation time: 0 hr 22 min 11 sec) 
Heartbeat CPU 0 instructions: 42000001 cycles: 14732421 heartbeat IPC: 2.85079 cumulative IPC: 2.85086 (Simulation time: 0 hr 23 min 19 sec) 
Heartbeat CPU 0 instructions: 44000003 cycles: 15433927 heartbeat IPC: 2.85101 cumulative IPC: 2.85086 (Simulation time: 0 hr 24 min 27 sec) 
Heartbeat CPU 0 instructions: 46000000 cycles: 16135487 heartbeat IPC: 2.85079 cumulative IPC: 2.85086 (Simulation time: 0 hr 25 min 31 sec) 
Heartbeat CPU 0 instructions: 48000002 cycles: 16837042 heartbeat IPC: 2.85081 cumulative IPC: 2.85086 (Simulation time: 0 hr 26 min 36 sec) 
Heartbeat CPU 0 instructions: 50000001 cycles: 17538547 heartbeat IPC: 2.85101 cumulative IPC: 2.85086 (Simulation time: 0 hr 27 min 38 sec) 

Warmup complete CPU 0 instructions: 50000001 cycles: 17538547 (Simulation time: 0 hr 27 min 38 sec) 

Heartbeat CPU 0 instructions: 52000001 cycles: 19594245 heartbeat IPC: 0.972906 cumulative IPC: 0.972906 (Simulation time: 0 hr 29 min 37 sec) 

Region of Interest Statistics
cpu0_DTLB TOTAL     ACCESS:     333861  HIT:     333398  MISS:        463
cpu0_DTLB LOAD      ACCESS:     290070  HIT:     289611  MISS:        459
cpu0_DTLB RFO       ACCESS:      43791  HIT:      43787  MISS:          4
cpu0_DTLB PREFETCH  ACCESS:          0  HIT:          0  MISS:          0
cpu0_DTLB WRITEBACK ACCESS:          0  HIT:          0  MISS:          0
cpu0_ITLB TOTAL     ACCESS:        358  HIT:        358  MISS:          0
cpu0_ITLB LOAD      ACCESS:        358  HIT:        358  MISS:          0
cpu0_ITLB RFO       ACCESS:          0  HIT:          0  MISS:          0
cpu0_ITLB PREFETCH  ACCESS:          0  HIT:          0  MISS:          0
cpu0_ITLB WRITEBACK ACCESS:          0  HIT:          0  MISS:          0
cpu0_L1I TOTAL     ACCESS:         10  HIT:         10  MISS:          0
cpu0_L1I LOAD      ACCESS:         10  HIT:         10  MISS:          0
cpu0_L1I RFO       ACCESS:          0  HIT:          0  MISS:          0
cpu0_L1I PREFETCH  ACCESS:          0  HIT:          0  MISS:          0
cpu0_L1I WRITEBACK ACCESS:          0  HIT:          0  MISS:          0
cpu0_STLB TOTAL     ACCESS:        463  HIT:        190  MISS:        273
cpu0_STLB LOAD      ACCESS:        459  HIT:        186  MISS:        273
cpu0_STLB RFO       ACCESS:          4  HIT:          4  MISS:          0
cpu0_STLB PREFETCH  ACCESS:          0  HIT:          0  MISS:          0
cpu0_STLB WRITEBACK ACCESS:          0  HIT:          0  MISS:          0
cpu0_L1D TOTAL     ACCESS:     412926  HIT:     386456  MISS:      26470
cpu0_L1D LOAD      ACCESS:     272294  HIT:     245857  MISS:      26437
cpu0_L1D RFO       ACCESS:     140359  HIT:     140335  MISS:         24
cpu0_L1D PREFETCH  ACCESS:          0  HIT:          0  MISS:          0
cpu0_L1D WRITEBACK ACCESS:          0  HIT:          0  MISS:          0
cpu0_L2C TOTAL     ACCESS:      44044  HIT:      25228  MISS:      18816
cpu0_L2C LOAD      ACCESS:      26437  HIT:       7638  MISS:      18799
cpu0_L2C RFO       ACCESS:         24  HIT:          9  MISS:         15
cpu0_L2C PREFETCH  ACCESS:          0  HIT:          0  MISS:          0
cpu0_L2C WRITEBACK ACCESS:      17574  HIT:      17574  MISS:          0
LLC TOTAL     ACCESS:      36190  HIT:       7245  MISS:      28945
LLC LOAD      ACCESS:      18800  HIT:       1263  MISS:      17537
LLC RFO       ACCESS:         15  HIT:         15  MISS:          0
LLC PREFETCH  ACCESS:          0  HIT:          0  MISS:          0
LLC WRITEBACK ACCESS:      17373  HIT:       5965  MISS:      11408
Heartbeat CPU 0 instructions: 54000001 cycles: 21547604 heartbeat IPC: 1.02388 cumulative IPC: 0.997741 (Simulation time: 0 hr 31 min 46 sec) 

Region of Interest Statistics
cpu0_DTLB TOTAL     ACCESS:     667260  HIT:     666316  MISS:        944
cpu0_DTLB LOAD      ACCESS:     580008  HIT:     579073  MISS:        935
cpu0_DTLB RFO       ACCESS:      87252  HIT:      87243  MISS:          9
cpu0_DTLB PREFETCH  ACCESS:          0  HIT:          0  MISS:          0
cpu0_DTLB WRITEBACK ACCESS:          0  HIT:          0  MISS:          0
cpu0_ITLB TOTAL     ACCESS:        776  HIT:        776  MISS:          0
cpu0_ITLB LOAD      ACCESS:        776  HIT:        776  MISS:          0
cpu0_ITLB RFO       ACCESS:          0  HIT:          0  MISS:          0
cpu0_ITLB PREFETCH  ACCESS:          0  HIT:          0  MISS:          0
cpu0_ITLB WRITEBACK ACCESS:          0  HIT:          0  MISS:          0
cpu0_L1I TOTAL     ACCESS:         16  HIT:         16  MISS:          0
cpu0_L1I LOAD      ACCESS:         16  HIT:         16  MISS:          0
cpu0_L1I RFO       ACCESS:          0  HIT:          0  MISS:          0
cpu0_L1I PREFETCH  ACCESS:          0  HIT:          0  MISS:          0
cpu0_L1I WRITEBACK ACCESS:          0  HIT:          0  MISS:          0
cpu0_STLB TOTAL     ACCESS:        944  HIT:        396  MISS:        548
cpu0_STLB LOAD      ACCESS:        935  HIT:        387  MISS:        548
cpu0_STLB RFO       ACCESS:          9  HIT:          9  MISS:          0
cpu0_STLB PREFETCH  ACCESS:          0  HIT:          0  MISS:          0
cpu0_STLB WRITEBACK ACCESS:          0  HIT:          0  MISS:          0
cpu0_L1D TOTAL     ACCESS:     825397  HIT:     772434  MISS:      52963
cpu0_L1D LOAD      ACCESS:     544124  HIT:     491234  MISS:      52890
cpu0_L1D RFO       ACCESS:     280725  HIT:     280671  MISS:         54
cpu0_L1D PREFETCH  ACCESS:          0  HIT:          0  MISS:          0
cpu0_L1D WRITEBACK ACCESS:          0  HIT:          0  MISS:          0
cpu0_L2C TOTAL     ACCESS:      88131  HIT:      50040  MISS:      38091
cpu0_L2C LOAD      ACCESS:      52890  HIT:      14836  MISS:      38054
cpu0_L2C RFO       ACCESS:         54  HIT:         25  MISS:         29
cpu0_L2C PREFETCH  ACCESS:          0  HIT:          0  MISS:          0
cpu0_L2C WRITEBACK ACCESS:      35168  HIT:      35168  MISS:          0
LLC TOTAL     ACCESS:      73078  HIT:      18560  MISS:      54518
LLC LOAD      ACCESS:      38054  HIT:       2982  MISS:      35072
LLC RFO       ACCESS:         29  HIT:         29  MISS:          0
LLC PREFETCH  ACCESS:          0  HIT:          0  MISS:          0
LLC WRITEBACK ACCESS:      34987  HIT:      15541  MISS:      19446
Heartbeat CPU 0 instructions: 56000004 cycles: 23524045 heartbeat IPC: 1.01192 cumulative IPC: 1.00242 (Simulation time: 0 hr 33 min 45 sec) 

Region of Interest Statistics
cpu0_DTLB TOTAL     ACCESS:    1000381  HIT:     998971  MISS:       1410
cpu0_DTLB LOAD      ACCESS:     869565  HIT:     868168  MISS:       1397
cpu0_DTLB RFO       ACCESS:     130816  HIT:     130803  MISS:         13
cpu0_DTLB PREFETCH  ACCESS:          0  HIT:          0  MISS:          0
cpu0_DTLB WRITEBACK ACCESS:          0  HIT:          0  MISS:          0
cpu0_ITLB TOTAL     ACCESS:       1094  HIT:       1094  MISS:          0
cpu0_ITLB LOAD      ACCESS:       1094  HIT:       1094  MISS:          0
cpu0_ITLB RFO       ACCESS:          0  HIT:          0  MISS:          0
cpu0_ITLB PREFETCH  ACCESS:          0  HIT:          0  MISS:          0
cpu0_ITLB WRITEBACK ACCESS:          0  HIT:          0  MISS:          0
cpu0_L1I TOTAL     ACCESS:         22  HIT:         22  MISS:          0
cpu0_L1I LOAD      ACCESS:         22  HIT:         22  MISS:          0
cpu0_L1I RFO       ACCESS:          0  HIT:          0  MISS:          0
cpu0_L1I PREFETCH  ACCESS:          0  HIT:          0  MISS:          0
cpu0_L1I WRITEBACK ACCESS:          0  HIT:          0  MISS:          0
cpu0_STLB TOTAL     ACCESS:       1410  HIT:        587  MISS:        823
cpu0_STLB LOAD      ACCESS:       1397  HIT:        574  MISS:        823
cpu0_STLB RFO       ACCESS:         13  HIT:         13  MISS:          0
cpu0_STLB PREFETCH  ACCESS:          0  HIT:          0  MISS:          0
cpu0_STLB WRITEBACK ACCESS:          0  HIT:          0  MISS:          0
cpu0_L1D TOTAL     ACCESS:    1237307  HIT:    1157882  MISS:      79425
cpu0_L1D LOAD      ACCESS:     815399  HIT:     736081  MISS:      79318
cpu0_L1D RFO       ACCESS:     421085  HIT:     421007  MISS:         78
cpu0_L1D PREFETCH  ACCESS:          0  HIT:          0  MISS:          0
cpu0_L1D WRITEBACK ACCESS:          0  HIT:          0  MISS:          0
cpu0_L2C TOTAL     ACCESS:     132146  HIT:      74190  MISS:      57956
cpu0_L2C LOAD      ACCESS:      79318  HIT:      21414  MISS:      57904
cpu0_L2C RFO       ACCESS:         78  HIT:         41  MISS:         37
cpu0_L2C PREFETCH  ACCESS:          0  HIT:          0  MISS:          0
cpu0_L2C WRITEBACK ACCESS:      52721  HIT:      52721  MISS:          0
LLC TOTAL     ACCESS:     110528  HIT:      30387  MISS:      80141
LLC LOAD      ACCESS:      57904  HIT:       5287  MISS:      52617
LLC RFO       ACCESS:         37  HIT:         37  MISS:          0
LLC PREFETCH  ACCESS:          0  HIT:          0  MISS:          0
LLC WRITEBACK ACCESS:      52572  HIT:      25050  MISS:      27522
Heartbeat CPU 0 instructions: 58000004 cycles: 25496977 heartbeat IPC: 1.01372 cumulative IPC: 1.00522 (Simulation time: 0 hr 35 min 48 sec) 

Region of Interest Statistics
cpu0_DTLB TOTAL     ACCESS:    1333592  HIT:    1331717  MISS:       1875
cpu0_DTLB LOAD      ACCESS:    1159032  HIT:    1157174  MISS:       1858
cpu0_DTLB RFO       ACCESS:     174560  HIT:     174543  MISS:         17
cpu0_DTLB PREFETCH  ACCESS:          0  HIT:          0  MISS:          0
cpu0_DTLB WRITEBACK ACCESS:          0  HIT:          0  MISS:          0
cpu0_ITLB TOTAL     ACCESS:       1478  HIT:       1478  MISS:          0
cpu0_ITLB LOAD      ACCESS:       1478  HIT:       1478  MISS:          0
cpu0_ITLB RFO       ACCESS:          0  HIT:          0  MISS:          0
cpu0_ITLB PREFETCH  ACCESS:          0  HIT:          0  MISS:          0
cpu0_ITLB WRITEBACK ACCESS:          0  HIT:          0  MISS:          0
cpu0_L1I TOTAL     ACCESS:         31  HIT:         31  MISS:          0
cpu0_L1I LOAD      ACCESS:         31  HIT:         31  MISS:          0
cpu0_L1I RFO       ACCESS:          0  HIT:          0  MISS:          0
cpu0_L1I PREFETCH  ACCESS:          0  HIT:          0  MISS:          0
cpu0_L1I WRITEBACK ACCESS:          0  HIT:          0  MISS:          0
cpu0_STLB TOTAL     ACCESS:       1875  HIT:        778  MISS:       1097
cpu0_STLB LOAD      ACCESS:       1858  HIT:        761  MISS:       1097
cpu0_STLB RFO       ACCESS:         17  HIT:         17  MISS:          0
cpu0_STLB PREFETCH  ACCESS:          0  HIT:          0  MISS:          0
cpu0_STLB WRITEBACK ACCESS:          0  HIT:          0  MISS:          0
cpu0_L1D TOTAL     ACCESS:    1650718  HIT:    1544818  MISS:     105900
cpu0_L1D LOAD      ACCESS:    1088171  HIT:     982411  MISS:     105760
cpu0_L1D RFO       ACCESS:     561450  HIT:     561348  MISS:        102
cpu0_L1D PREFETCH  ACCESS:          0  HIT:          0  MISS:          0
cpu0_L1D WRITEBACK ACCESS:          0  HIT:          0  MISS:          0
cpu0_L2C TOTAL     ACCESS:     176196  HIT:      99129  MISS:      77067
cpu0_L2C LOAD      ACCESS:     105760  HIT:      28754  MISS:      77006
cpu0_L2C RFO       ACCESS:        102  HIT:         59  MISS:         43
cpu0_L2C PREFETCH  ACCESS:          0  HIT:          0  MISS:          0
cpu0_L2C WRITEBACK ACCESS:      70296  HIT:      70296  MISS:          0
LLC TOTAL     ACCESS:     147174  HIT:      41562  MISS:     105612
LLC LOAD      ACCESS:      77006  HIT:       6850  MISS:      70156
LLC RFO       ACCESS:         43  HIT:         43  MISS:          0
LLC PREFETCH  ACCESS:          0  HIT:          0  MISS:          0
LLC WRITEBACK ACCESS:      70107  HIT:      34653  MISS:      35454
Heartbeat CPU 0 instructions: 60000000 cycles: 27465934 heartbeat IPC: 1.01576 cumulative IPC: 1.00731 (Simulation time: 0 hr 37 min 44 sec) 

Region of Interest Statistics
cpu0_DTLB TOTAL     ACCESS:    1666548  HIT:    1664196  MISS:       2352
cpu0_DTLB LOAD      ACCESS:    1448605  HIT:    1446275  MISS:       2330
cpu0_DTLB RFO       ACCESS:     217943  HIT:     217921  MISS:         22
cpu0_DTLB PREFETCH  ACCESS:          0  HIT:          0  MISS:          0
cpu0_DTLB WRITEBACK ACCESS:          0  HIT:          0  MISS:          0
cpu0_ITLB TOTAL     ACCESS:       1808  HIT:       1808  MISS:          0
cpu0_ITLB LOAD      ACCESS:       1808  HIT:       1808  MISS:          0
cpu0_ITLB RFO       ACCESS:          0  HIT:          0  MISS:          0
cpu0_ITLB PREFETCH  ACCESS:          0  HIT:          0  MISS:          0
cpu0_ITLB WRITEBACK ACCESS:          0  HIT:          0  MISS:          0
cpu0_L1I TOTAL     ACCESS:         41  HIT:         41  MISS:          0
cpu0_L1I LOAD      ACCESS:         41  HIT:         41  MISS:          0
cpu0_L1I RFO       ACCESS:          0  HIT:          0  MISS:          0
cpu0_L1I PREFETCH  ACCESS:          0  HIT:          0  MISS:          0
cpu0_L1I WRITEBACK ACCESS:          0  HIT:          0  MISS:          0
cpu0_STLB TOTAL     ACCESS:       2352  HIT:        982  MISS:       1370
cpu0_STLB LOAD      ACCESS:       2330  HIT:        960  MISS:       1370
cpu0_STLB RFO       ACCESS:         22  HIT:         22  MISS:          0
cpu0_STLB PREFETCH  ACCESS:          0  HIT:          0  MISS:          0
cpu0_STLB WRITEBACK ACCESS:          0  HIT:          0  MISS:          0
cpu0_L1D TOTAL     ACCESS:    2062360  HIT:    1929973  MISS:     132387
cpu0_L1D LOAD      ACCESS:    1359177  HIT:    1226969  MISS:     132208
cpu0_L1D RFO       ACCESS:     701813  HIT:     701681  MISS:        132
cpu0_L1D PREFETCH  ACCESS:          0  HIT:          0  MISS:          0
cpu0_L1D WRITEBACK ACCESS:          0  HIT:          0  MISS:          0
cpu0_L2C TOTAL     ACCESS:     220261  HIT:     123796  MISS:      96465
cpu0_L2C LOAD      ACCESS:     132208  HIT:      35809  MISS:      96399
cpu0_L2C RFO       ACCESS:        132  HIT:         87  MISS:         45
cpu0_L2C PREFETCH  ACCESS:          0  HIT:          0  MISS:          0
cpu0_L2C WRITEBACK ACCESS:      87874  HIT:      87874  MISS:          0
LLC TOTAL     ACCESS:     184172  HIT:      52997  MISS:     131175
LLC LOAD      ACCESS:      96399  HIT:       8711  MISS:      87688
LLC RFO       ACCESS:         45  HIT:         45  MISS:          0
LLC PREFETCH  ACCESS:          0  HIT:          0  MISS:          0
LLC WRITEBACK ACCESS:      87707  HIT:      44222  MISS:      43485
Heartbeat CPU 0 instructions: 62000003 cycles: 29417869 heartbeat IPC: 1.02463 cumulative IPC: 1.01016 (Simulation time: 0 hr 39 min 37 sec) 

Region of Interest Statistics
cpu0_DTLB TOTAL     ACCESS:    1999914  HIT:    1997102  MISS:       2812
cpu0_DTLB LOAD      ACCESS:    1738513  HIT:    1735727  MISS:       2786
cpu0_DTLB RFO       ACCESS:     261401  HIT:     261375  MISS:         26
cpu0_DTLB PREFETCH  ACCESS:          0  HIT:          0  MISS:          0
cpu0_DTLB WRITEBACK ACCESS:          0  HIT:          0  MISS:          0
cpu0_ITLB TOTAL     ACCESS:       2172  HIT:       2172  MISS:          0
cpu0_ITLB LOAD      ACCESS:       2172  HIT:       2172  MISS:          0
cpu0_ITLB RFO       ACCESS:          0  HIT:          0  MISS:          0
cpu0_ITLB PREFETCH  ACCESS:          0  HIT:          0  MISS:          0
cpu0_ITLB WRITEBACK ACCESS:          0  HIT:          0  MISS:          0
cpu0_L1I TOTAL     ACCESS:         46  HIT:         46  MISS:          0
cpu0_L1I LOAD      ACCESS:         46  HIT:         46  MISS:          0
cpu0_L1I RFO       ACCESS:          0  HIT:          0  MISS:          0
cpu0_L1I PREFETCH  ACCESS:          0  HIT:          0  MISS:          0
cpu0_L1I WRITEBACK ACCESS:          0  HIT:          0  MISS:          0
cpu0_STLB TOTAL     ACCESS:       2812  HIT:       1163  MISS:       1649
cpu0_STLB LOAD      ACCESS:       2786  HIT:       1137  MISS:       1649
cpu0_STLB RFO       ACCESS:         26  HIT:         26  MISS:          0
cpu0_STLB PREFETCH  ACCESS:          0  HIT:          0  MISS:          0
cpu0_STLB WRITEBACK ACCESS:          0  HIT:          0  MISS:          0
cpu0_L1D TOTAL     ACCESS:    2474489  HIT:    2315626  MISS:     158863
cpu0_L1D LOAD      ACCESS:    1630665  HIT:    1472019  MISS:     158646
cpu0_L1D RFO       ACCESS:     842175  HIT:     842019  MISS:        156
cpu0_L1D PREFETCH  ACCESS:          0  HIT:          0  MISS:          0
cpu0_L1D WRITEBACK ACCESS:          0  HIT:          0  MISS:          0
cpu0_L2C TOTAL     ACCESS:     264316  HIT:     148621  MISS:     115695
cpu0_L2C LOAD      ACCESS:     158646  HIT:      43035  MISS:     115611
cpu0_L2C RFO       ACCESS:        156  HIT:        100  MISS:         56
cpu0_L2C PREFETCH  ACCESS:          0  HIT:          0  MISS:          0
cpu0_L2C WRITEBACK ACCESS:     105453  HIT:     105453  MISS:          0
LLC TOTAL     ACCESS:     220794  HIT:      64149  MISS:     156645
LLC LOAD      ACCESS:     115611  HIT:      10379  MISS:     105232
LLC RFO       ACCESS:         56  HIT:         56  MISS:          0
LLC PREFETCH  ACCESS:          0  HIT:          0  MISS:          0
LLC WRITEBACK ACCESS:     105099  HIT:      53690  MISS:      51409
Heartbeat CPU 0 instructions: 64000004 cycles: 31316497 heartbeat IPC: 1.05339 cumulative IPC: 1.01612 (Simulation time: 0 hr 41 min 24 sec) 

Region of Interest Statistics
cpu0_DTLB TOTAL     ACCESS:    2332887  HIT:    2329616  MISS:       3271
cpu0_DTLB LOAD      ACCESS:    2028059  HIT:    2024818  MISS:       3241
cpu0_DTLB RFO       ACCESS:     304828  HIT:     304798  MISS:         30
cpu0_DTLB PREFETCH  ACCESS:          0  HIT:          0  MISS:          0
cpu0_DTLB WRITEBACK ACCESS:          0  HIT:          0  MISS:          0
cpu0_ITLB TOTAL     ACCESS:       2534  HIT:       2534  MISS:          0
cpu0_ITLB LOAD      ACCESS:       2534  HIT:       2534  MISS:          0
cpu0_ITLB RFO       ACCESS:          0  HIT:          0  MISS:          0
cpu0_ITLB PREFETCH  ACCESS:          0  HIT:          0  MISS:          0
cpu0_ITLB WRITEBACK ACCESS:          0  HIT:          0  MISS:          0
cpu0_L1I TOTAL     ACCESS:         56  HIT:         56  MISS:          0
cpu0_L1I LOAD      ACCESS:         56  HIT:         56  MISS:          0
cpu0_L1I RFO       ACCESS:          0  HIT:          0  MISS:          0
cpu0_L1I PREFETCH  ACCESS:          0  HIT:          0  MISS:          0
cpu0_L1I WRITEBACK ACCESS:          0  HIT:          0  MISS:          0
cpu0_STLB TOTAL     ACCESS:       3271  HIT:       1348  MISS:       1923
cpu0_STLB LOAD      ACCESS:       3241  HIT:       1318  MISS:       1923
cpu0_STLB RFO       ACCESS:         30  HIT:         30  MISS:          0
cpu0_STLB PREFETCH  ACCESS:          0  HIT:          0  MISS:          0
cpu0_STLB WRITEBACK ACCESS:          0  HIT:          0  MISS:          0
cpu0_L1D TOTAL     ACCESS:    2886304  HIT:    2700977  MISS:     185327
cpu0_L1D LOAD      ACCESS:    1901844  HIT:    1716766  MISS:     185078
cpu0_L1D RFO       ACCESS:     982537  HIT:     982357  MISS:        180
cpu0_L1D PREFETCH  ACCESS:          0  HIT:          0  MISS:          0
cpu0_L1D WRITEBACK ACCESS:          0  HIT:          0  MISS:          0
cpu0_L2C TOTAL     ACCESS:     308347  HIT:     173321  MISS:     135026
cpu0_L2C LOAD      ACCESS:     185078  HIT:      50145  MISS:     134933
cpu0_L2C RFO       ACCESS:        180  HIT:        118  MISS:         62
cpu0_L2C PREFETCH  ACCESS:          0  HIT:          0  MISS:          0
cpu0_L2C WRITEBACK ACCESS:     123020  HIT:     123020  MISS:          0
LLC TOTAL     ACCESS:     257802  HIT:      75096  MISS:     182706
LLC LOAD      ACCESS:     134933  HIT:      12163  MISS:     122770
LLC RFO       ACCESS:         62  HIT:         62  MISS:          0
LLC PREFETCH  ACCESS:          0  HIT:          0  MISS:          0
LLC WRITEBACK ACCESS:     122776  HIT:      62845  MISS:      59931
Heartbeat CPU 0 instructions: 66000001 cycles: 33148943 heartbeat IPC: 1.09144 cumulative IPC: 1.02496 (Simulation time: 0 hr 43 min 15 sec) 

Region of Interest Statistics
cpu0_DTLB TOTAL     ACCESS:    2665691  HIT:    2661952  MISS:       3739
cpu0_DTLB LOAD      ACCESS:    2317416  HIT:    2313712  MISS:       3704
cpu0_DTLB RFO       ACCESS:     348275  HIT:     348240  MISS:         35
cpu0_DTLB PREFETCH  ACCESS:          0  HIT:          0  MISS:          0
cpu0_DTLB WRITEBACK ACCESS:          0  HIT:          0  MISS:          0
cpu0_ITLB TOTAL     ACCESS:       2884  HIT:       2884  MISS:          0
cpu0_ITLB LOAD      ACCESS:       2884  HIT:       2884  MISS:          0
cpu0_ITLB RFO       ACCESS:          0  HIT:          0  MISS:          0
cpu0_ITLB PREFETCH  ACCESS:          0  HIT:          0  MISS:          0
cpu0_ITLB WRITEBACK ACCESS:          0  HIT:          0  MISS:          0
cpu0_L1I TOTAL     ACCESS:         64  HIT:         64  MISS:          0
cpu0_L1I LOAD      ACCESS:         64  HIT:         64  MISS:          0
cpu0_L1I RFO       ACCESS:          0  HIT:          0  MISS:          0
cpu0_L1I PREFETCH  ACCESS:          0  HIT:          0  MISS:          0
cpu0_L1I WRITEBACK ACCESS:          0  HIT:          0  MISS:          0
cpu0_STLB TOTAL     ACCESS:       3739  HIT:       1542  MISS:       2197
cpu0_STLB LOAD      ACCESS:       3704  HIT:       1507  MISS:       2197
cpu0_STLB RFO       ACCESS:         35  HIT:         35  MISS:          0
cpu0_STLB PREFETCH  ACCESS:          0  HIT:          0  MISS:          0
cpu0_STLB WRITEBACK ACCESS:          0  HIT:          0  MISS:          0
cpu0_L1D TOTAL     ACCESS:    3298710  HIT:    3086893  MISS:     211817
cpu0_L1D LOAD      ACCESS:    2173614  HIT:    1962085  MISS:     211529
cpu0_L1D RFO       ACCESS:    1122899  HIT:    1122689  MISS:        210
cpu0_L1D PREFETCH  ACCESS:          0  HIT:          0  MISS:          0
cpu0_L1D WRITEBACK ACCESS:          0  HIT:          0  MISS:          0
cpu0_L2C TOTAL     ACCESS:     352411  HIT:     198495  MISS:     153916
cpu0_L2C LOAD      ACCESS:     211529  HIT:      57717  MISS:     153812
cpu0_L2C RFO       ACCESS:        210  HIT:        141  MISS:         69
cpu0_L2C PREFETCH  ACCESS:          0  HIT:          0  MISS:          0
cpu0_L2C WRITEBACK ACCESS:     140594  HIT:     140594  MISS:          0
LLC TOTAL     ACCESS:     293988  HIT:      81065  MISS:     212923
LLC LOAD      ACCESS:     153813  HIT:      13508  MISS:     140305
LLC RFO       ACCESS:         69  HIT:         69  MISS:          0
LLC PREFETCH  ACCESS:          0  HIT:          0  MISS:          0
LLC WRITEBACK ACCESS:     140071  HIT:      67459  MISS:      72612
Heartbeat CPU 0 instructions: 68000002 cycles: 34920838 heartbeat IPC: 1.12874 cumulative IPC: 1.03554 (Simulation time: 0 hr 44 min 56 sec) 

Region of Interest Statistics
cpu0_DTLB TOTAL     ACCESS:    2998838  HIT:    2994642  MISS:       4196
cpu0_DTLB LOAD      ACCESS:    2606917  HIT:    2602760  MISS:       4157
cpu0_DTLB RFO       ACCESS:     391921  HIT:     391882  MISS:         39
cpu0_DTLB PREFETCH  ACCESS:          0  HIT:          0  MISS:          0
cpu0_DTLB WRITEBACK ACCESS:          0  HIT:          0  MISS:          0
cpu0_ITLB TOTAL     ACCESS:       3285  HIT:       3285  MISS:          0
cpu0_ITLB LOAD      ACCESS:       3285  HIT:       3285  MISS:          0
cpu0_ITLB RFO       ACCESS:          0  HIT:          0  MISS:          0
cpu0_ITLB PREFETCH  ACCESS:          0  HIT:          0  MISS:          0
cpu0_ITLB WRITEBACK ACCESS:          0  HIT:          0  MISS:          0
cpu0_L1I TOTAL     ACCESS:         68  HIT:         68  MISS:          0
cpu0_L1I LOAD      ACCESS:         68  HIT:         68  MISS:          0
cpu0_L1I RFO       ACCESS:          0  HIT:          0  MISS:          0
cpu0_L1I PREFETCH  ACCESS:          0  HIT:          0  MISS:          0
cpu0_L1I WRITEBACK ACCESS:          0  HIT:          0  MISS:          0
cpu0_STLB TOTAL     ACCESS:       4196  HIT:       1726  MISS:       2470
cpu0_STLB LOAD      ACCESS:       4157  HIT:       1687  MISS:       2470
cpu0_STLB RFO       ACCESS:         39  HIT:         39  MISS:          0
cpu0_STLB PREFETCH  ACCESS:          0  HIT:          0  MISS:          0
cpu0_STLB WRITEBACK ACCESS:          0  HIT:          0  MISS:          0
cpu0_L1D TOTAL     ACCESS:    3709870  HIT:    3471585  MISS:     238285
cpu0_L1D LOAD      ACCESS:    2444140  HIT:    2206176  MISS:     237964
cpu0_L1D RFO       ACCESS:    1263260  HIT:    1263026  MISS:        234
cpu0_L1D PREFETCH  ACCESS:          0  HIT:          0  MISS:          0
cpu0_L1D WRITEBACK ACCESS:          0  HIT:          0  MISS:          0
cpu0_L2C TOTAL     ACCESS:     396453  HIT:     223067  MISS:     173386
cpu0_L2C LOAD      ACCESS:     237964  HIT:      64689  MISS:     173275
cpu0_L2C RFO       ACCESS:        234  HIT:        160  MISS:         74
cpu0_L2C PREFETCH  ACCESS:          0  HIT:          0  MISS:          0
cpu0_L2C WRITEBACK ACCESS:     158168  HIT:     158168  MISS:          0
LLC TOTAL     ACCESS:     331199  HIT:      83898  MISS:     247301
LLC LOAD      ACCESS:     173275  HIT:      15435  MISS:     157840
LLC RFO       ACCESS:         74  HIT:         74  MISS:          0
LLC PREFETCH  ACCESS:          0  HIT:          0  MISS:          0
LLC WRITEBACK ACCESS:     157813  HIT:      68358  MISS:      89455
Heartbeat CPU 0 instructions: 70000002 cycles: 36696826 heartbeat IPC: 1.12613 cumulative IPC: 1.04394 (Simulation time: 0 hr 46 min 38 sec) 

Region of Interest Statistics
cpu0_DTLB TOTAL     ACCESS:    3332365  HIT:    3327701  MISS:       4664
cpu0_DTLB LOAD      ACCESS:    2896556  HIT:    2891936  MISS:       4620
cpu0_DTLB RFO       ACCESS:     435809  HIT:     435765  MISS:         44
cpu0_DTLB PREFETCH  ACCESS:          0  HIT:          0  MISS:          0
cpu0_DTLB WRITEBACK ACCESS:          0  HIT:          0  MISS:          0
cpu0_ITLB TOTAL     ACCESS:       3629  HIT:       3629  MISS:          0
cpu0_ITLB LOAD      ACCESS:       3629  HIT:       3629  MISS:          0
cpu0_ITLB RFO       ACCESS:          0  HIT:          0  MISS:          0
cpu0_ITLB PREFETCH  ACCESS:          0  HIT:          0  MISS:          0
cpu0_ITLB WRITEBACK ACCESS:          0  HIT:          0  MISS:          0
cpu0_L1I TOTAL     ACCESS:         85  HIT:         85  MISS:          0
cpu0_L1I LOAD      ACCESS:         85  HIT:         85  MISS:          0
cpu0_L1I RFO       ACCESS:          0  HIT:          0  MISS:          0
cpu0_L1I PREFETCH  ACCESS:          0  HIT:          0  MISS:          0
cpu0_L1I WRITEBACK ACCESS:          0  HIT:          0  MISS:          0
cpu0_STLB TOTAL     ACCESS:       4664  HIT:       1920  MISS:       2744
cpu0_STLB LOAD      ACCESS:       4620  HIT:       1876  MISS:       2744
cpu0_STLB RFO       ACCESS:         44  HIT:         44  MISS:          0
cpu0_STLB PREFETCH  ACCESS:          0  HIT:          0  MISS:          0
cpu0_STLB WRITEBACK ACCESS:          0  HIT:          0  MISS:          0
cpu0_L1D TOTAL     ACCESS:    4121972  HIT:    3857194  MISS:     264778
cpu0_L1D LOAD      ACCESS:    2715607  HIT:    2451189  MISS:     264418
cpu0_L1D RFO       ACCESS:    1403621  HIT:    1403357  MISS:        264
cpu0_L1D PREFETCH  ACCESS:          0  HIT:          0  MISS:          0
cpu0_L1D WRITEBACK ACCESS:          0  HIT:          0  MISS:          0
cpu0_L2C TOTAL     ACCESS:     440542  HIT:     247859  MISS:     192683
cpu0_L2C LOAD      ACCESS:     264418  HIT:      71863  MISS:     192555
cpu0_L2C RFO       ACCESS:        264  HIT:        176  MISS:         88
cpu0_L2C PREFETCH  ACCESS:          0  HIT:          0  MISS:          0
cpu0_L2C WRITEBACK ACCESS:     175764  HIT:     175764  MISS:          0
LLC TOTAL     ACCESS:     367995  HIT:      86192  MISS:     281803
LLC LOAD      ACCESS:     192555  HIT:      17179  MISS:     175376
LLC RFO       ACCESS:         88  HIT:         88  MISS:          0
LLC PREFETCH  ACCESS:          0  HIT:          0  MISS:          0
LLC WRITEBACK ACCESS:     175312  HIT:      68891  MISS:     106421
Heartbeat CPU 0 instructions: 72000004 cycles: 38482013 heartbeat IPC: 1.12033 cumulative IPC: 1.05045 (Simulation time: 0 hr 48 min 18 sec) 

Region of Interest Statistics
cpu0_DTLB TOTAL     ACCESS:    3665815  HIT:    3660695  MISS:       5120
cpu0_DTLB LOAD      ACCESS:    3186192  HIT:    3181120  MISS:       5072
cpu0_DTLB RFO       ACCESS:     479623  HIT:     479575  MISS:         48
cpu0_DTLB PREFETCH  ACCESS:          0  HIT:          0  MISS:          0
cpu0_DTLB WRITEBACK ACCESS:          0  HIT:          0  MISS:          0
cpu0_ITLB TOTAL     ACCESS:       3985  HIT:       3985  MISS:          0
cpu0_ITLB LOAD      ACCESS:       3985  HIT:       3985  MISS:          0
cpu0_ITLB RFO       ACCESS:          0  HIT:          0  MISS:          0
cpu0_ITLB PREFETCH  ACCESS:          0  HIT:          0  MISS:          0
cpu0_ITLB WRITEBACK ACCESS:          0  HIT:          0  MISS:          0
cpu0_L1I TOTAL     ACCESS:         87  HIT:         87  MISS:          0
cpu0_L1I LOAD      ACCESS:         87  HIT:         87  MISS:          0
cpu0_L1I RFO       ACCESS:          0  HIT:          0  MISS:          0
cpu0_L1I PREFETCH  ACCESS:          0  HIT:          0  MISS:          0
cpu0_L1I WRITEBACK ACCESS:          0  HIT:          0  MISS:          0
cpu0_STLB TOTAL     ACCESS:       5120  HIT:       2102  MISS:       3018
cpu0_STLB LOAD      ACCESS:       5072  HIT:       2054  MISS:       3018
cpu0_STLB RFO       ACCESS:         48  HIT:         48  MISS:          0
cpu0_STLB PREFETCH  ACCESS:          0  HIT:          0  MISS:          0
cpu0_STLB WRITEBACK ACCESS:          0  HIT:          0  MISS:          0
cpu0_L1D TOTAL     ACCESS:    4533126  HIT:    4241885  MISS:     291241
cpu0_L1D LOAD      ACCESS:    2986126  HIT:    2695277  MISS:     290849
cpu0_L1D RFO       ACCESS:    1543982  HIT:    1543694  MISS:        288
cpu0_L1D PREFETCH  ACCESS:          0  HIT:          0  MISS:          0
cpu0_L1D WRITEBACK ACCESS:          0  HIT:          0  MISS:          0
cpu0_L2C TOTAL     ACCESS:     484559  HIT:     272643  MISS:     211916
cpu0_L2C LOAD      ACCESS:     290849  HIT:      79065  MISS:     211784
cpu0_L2C RFO       ACCESS:        288  HIT:        198  MISS:         90
cpu0_L2C PREFETCH  ACCESS:          0  HIT:          0  MISS:          0
cpu0_L2C WRITEBACK ACCESS:     193318  HIT:     193318  MISS:          0
LLC TOTAL     ACCESS:     404808  HIT:      88451  MISS:     316357
LLC LOAD      ACCESS:     211784  HIT:      18846  MISS:     192938
LLC RFO       ACCESS:         90  HIT:         90  MISS:          0
LLC PREFETCH  ACCESS:          0  HIT:          0  MISS:          0
LLC WRITEBACK ACCESS:     192892  HIT:      69479  MISS:     123413
Heartbeat CPU 0 instructions: 74000000 cycles: 40255362 heartbeat IPC: 1.12781 cumulative IPC: 1.05649 (Simulation time: 0 hr 50 min 5 sec) 

Region of Interest Statistics
cpu0_DTLB TOTAL     ACCESS:    3999207  HIT:    3993629  MISS:       5578
cpu0_DTLB LOAD      ACCESS:    3476034  HIT:    3470508  MISS:       5526
cpu0_DTLB RFO       ACCESS:     523173  HIT:     523121  MISS:         52
cpu0_DTLB PREFETCH  ACCESS:          0  HIT:          0  MISS:          0
cpu0_DTLB WRITEBACK ACCESS:          0  HIT:          0  MISS:          0
cpu0_ITLB TOTAL     ACCESS:       4328  HIT:       4328  MISS:          0
cpu0_ITLB LOAD      ACCESS:       4328  HIT:       4328  MISS:          0
cpu0_ITLB RFO       ACCESS:          0  HIT:          0  MISS:          0
cpu0_ITLB PREFETCH  ACCESS:          0  HIT:          0  MISS:          0
cpu0_ITLB WRITEBACK ACCESS:          0  HIT:          0  MISS:          0
cpu0_L1I TOTAL     ACCESS:        100  HIT:        100  MISS:          0
cpu0_L1I LOAD      ACCESS:        100  HIT:        100  MISS:          0
cpu0_L1I RFO       ACCESS:          0  HIT:          0  MISS:          0
cpu0_L1I PREFETCH  ACCESS:          0  HIT:          0  MISS:          0
cpu0_L1I WRITEBACK ACCESS:          0  HIT:          0  MISS:          0
cpu0_STLB TOTAL     ACCESS:       5578  HIT:       2285  MISS:       3293
cpu0_STLB LOAD      ACCESS:       5526  HIT:       2233  MISS:       3293
cpu0_STLB RFO       ACCESS:         52  HIT:         52  MISS:          0
cpu0_STLB PREFETCH  ACCESS:          0  HIT:          0  MISS:          0
cpu0_STLB WRITEBACK ACCESS:          0  HIT:          0  MISS:          0
cpu0_L1D TOTAL     ACCESS:    4943982  HIT:    4626272  MISS:     317710
cpu0_L1D LOAD      ACCESS:    3256345  HIT:    2939061  MISS:     317284
cpu0_L1D RFO       ACCESS:    1684344  HIT:    1684032  MISS:        312
cpu0_L1D PREFETCH  ACCESS:          0  HIT:          0  MISS:          0
cpu0_L1D WRITEBACK ACCESS:          0  HIT:          0  MISS:          0
cpu0_L2C TOTAL     ACCESS:     528601  HIT:     297380  MISS:     231221
cpu0_L2C LOAD      ACCESS:     317284  HIT:      86203  MISS:     231081
cpu0_L2C RFO       ACCESS:        312  HIT:        219  MISS:         93
cpu0_L2C PREFETCH  ACCESS:          0  HIT:          0  MISS:          0
cpu0_L2C WRITEBACK ACCESS:     210891  HIT:     210891  MISS:          0
LLC TOTAL     ACCESS:     441631  HIT:      90749  MISS:     350882
LLC LOAD      ACCESS:     231081  HIT:      20607  MISS:     210474
LLC RFO       ACCESS:         93  HIT:         93  MISS:          0
LLC PREFETCH  ACCESS:          0  HIT:          0  MISS:          0
LLC WRITEBACK ACCESS:     210410  HIT:      70008  MISS:     140402
Heartbeat CPU 0 instructions: 76000002 cycles: 42016403 heartbeat IPC: 1.13569 cumulative IPC: 1.06218 (Simulation time: 0 hr 51 min 49 sec) 

Region of Interest Statistics
cpu0_DTLB TOTAL     ACCESS:    4332807  HIT:    4326756  MISS:       6051
cpu0_DTLB LOAD      ACCESS:    3765959  HIT:    3759965  MISS:       5994
cpu0_DTLB RFO       ACCESS:     566848  HIT:     566791  MISS:         57
cpu0_DTLB PREFETCH  ACCESS:          0  HIT:          0  MISS:          0
cpu0_DTLB WRITEBACK ACCESS:          0  HIT:          0  MISS:          0
cpu0_ITLB TOTAL     ACCESS:       4749  HIT:       4749  MISS:          0
cpu0_ITLB LOAD      ACCESS:       4749  HIT:       4749  MISS:          0
cpu0_ITLB RFO       ACCESS:          0  HIT:          0  MISS:          0
cpu0_ITLB PREFETCH  ACCESS:          0  HIT:          0  MISS:          0
cpu0_ITLB WRITEBACK ACCESS:          0  HIT:          0  MISS:          0
cpu0_L1I TOTAL     ACCESS:        106  HIT:        106  MISS:          0
cpu0_L1I LOAD      ACCESS:        106  HIT:        106  MISS:          0
cpu0_L1I RFO       ACCESS:          0  HIT:          0  MISS:          0
cpu0_L1I PREFETCH  ACCESS:          0  HIT:          0  MISS:          0
cpu0_L1I WRITEBACK ACCESS:          0  HIT:          0  MISS:          0
cpu0_STLB TOTAL     ACCESS:       6051  HIT:       2483  MISS:       3568
cpu0_STLB LOAD      ACCESS:       5994  HIT:       2426  MISS:       3568
cpu0_STLB RFO       ACCESS:         57  HIT:         57  MISS:          0
cpu0_STLB PREFETCH  ACCESS:          0  HIT:          0  MISS:          0
cpu0_STLB WRITEBACK ACCESS:          0  HIT:          0  MISS:          0
cpu0_L1D TOTAL     ACCESS:    5355106  HIT:    5010903  MISS:     344203
cpu0_L1D LOAD      ACCESS:    3526833  HIT:    3183095  MISS:     343738
cpu0_L1D RFO       ACCESS:    1824705  HIT:    1824363  MISS:        342
cpu0_L1D PREFETCH  ACCESS:          0  HIT:          0  MISS:          0
cpu0_L1D WRITEBACK ACCESS:          0  HIT:          0  MISS:          0
cpu0_L2C TOTAL     ACCESS:     572673  HIT:     322150  MISS:     250523
cpu0_L2C LOAD      ACCESS:     343738  HIT:      93371  MISS:     250367
cpu0_L2C RFO       ACCESS:        342  HIT:        234  MISS:        108
cpu0_L2C PREFETCH  ACCESS:          0  HIT:          0  MISS:          0
cpu0_L2C WRITEBACK ACCESS:     228470  HIT:     228470  MISS:          0
LLC TOTAL     ACCESS:     478472  HIT:      92951  MISS:     385521
LLC LOAD      ACCESS:     250367  HIT:      22357  MISS:     228010
LLC RFO       ACCESS:        108  HIT:        108  MISS:          0
LLC PREFETCH  ACCESS:          0  HIT:          0  MISS:          0
LLC WRITEBACK ACCESS:     227949  HIT:      70444  MISS:     157505
Heartbeat CPU 0 instructions: 78000001 cycles: 43774922 heartbeat IPC: 1.13732 cumulative IPC: 1.06722 (Simulation time: 0 hr 53 min 34 sec) 

Region of Interest Statistics
cpu0_DTLB TOTAL     ACCESS:    4666576  HIT:    4660066  MISS:       6510
cpu0_DTLB LOAD      ACCESS:    4056097  HIT:    4049648  MISS:       6449
cpu0_DTLB RFO       ACCESS:     610479  HIT:     610418  MISS:         61
cpu0_DTLB PREFETCH  ACCESS:          0  HIT:          0  MISS:          0
cpu0_DTLB WRITEBACK ACCESS:          0  HIT:          0  MISS:          0
cpu0_ITLB TOTAL     ACCESS:       5096  HIT:       5096  MISS:          0
cpu0_ITLB LOAD      ACCESS:       5096  HIT:       5096  MISS:          0
cpu0_ITLB RFO       ACCESS:          0  HIT:          0  MISS:          0
cpu0_ITLB PREFETCH  ACCESS:          0  HIT:          0  MISS:          0
cpu0_ITLB WRITEBACK ACCESS:          0  HIT:          0  MISS:          0
cpu0_L1I TOTAL     ACCESS:        121  HIT:        121  MISS:          0
cpu0_L1I LOAD      ACCESS:        121  HIT:        121  MISS:          0
cpu0_L1I RFO       ACCESS:          0  HIT:          0  MISS:          0
cpu0_L1I PREFETCH  ACCESS:          0  HIT:          0  MISS:          0
cpu0_L1I WRITEBACK ACCESS:          0  HIT:          0  MISS:          0
cpu0_STLB TOTAL     ACCESS:       6510  HIT:       2668  MISS:       3842
cpu0_STLB LOAD      ACCESS:       6449  HIT:       2607  MISS:       3842
cpu0_STLB RFO       ACCESS:         61  HIT:         61  MISS:          0
cpu0_STLB PREFETCH  ACCESS:          0  HIT:          0  MISS:          0
cpu0_STLB WRITEBACK ACCESS:          0  HIT:          0  MISS:          0
cpu0_L1D TOTAL     ACCESS:    5766599  HIT:    5395927  MISS:     370672
cpu0_L1D LOAD      ACCESS:    3797699  HIT:    3427526  MISS:     370173
cpu0_L1D RFO       ACCESS:    1965058  HIT:    1964692  MISS:        366
cpu0_L1D PREFETCH  ACCESS:          0  HIT:          0  MISS:          0
cpu0_L1D WRITEBACK ACCESS:          0  HIT:          0  MISS:          0
cpu0_L2C TOTAL     ACCESS:     616711  HIT:     347179  MISS:     269532
cpu0_L2C LOAD      ACCESS:     370173  HIT:     100808  MISS:     269365
cpu0_L2C RFO       ACCESS:        366  HIT:        250  MISS:        116
cpu0_L2C PREFETCH  ACCESS:          0  HIT:          0  MISS:          0
cpu0_L2C WRITEBACK ACCESS:     246039  HIT:     246039  MISS:          0
LLC TOTAL     ACCESS:     515020  HIT:      94776  MISS:     420244
LLC LOAD      ACCESS:     269365  HIT:      23820  MISS:     245545
LLC RFO       ACCESS:        116  HIT:        116  MISS:          0
LLC PREFETCH  ACCESS:          0  HIT:          0  MISS:          0
LLC WRITEBACK ACCESS:     245488  HIT:      70795  MISS:     174693
Heartbeat CPU 0 instructions: 80000003 cycles: 45548591 heartbeat IPC: 1.12761 cumulative IPC: 1.07104 (Simulation time: 0 hr 55 min 19 sec) 

Region of Interest Statistics
cpu0_DTLB TOTAL     ACCESS:    4999083  HIT:    4992107  MISS:       6976
cpu0_DTLB LOAD      ACCESS:    4344792  HIT:    4337882  MISS:       6910
cpu0_DTLB RFO       ACCESS:     654291  HIT:     654225  MISS:         66
cpu0_DTLB PREFETCH  ACCESS:          0  HIT:          0  MISS:          0
cpu0_DTLB WRITEBACK ACCESS:          0  HIT:          0  MISS:          0
cpu0_ITLB TOTAL     ACCESS:       5470  HIT:       5470  MISS:          0
cpu0_ITLB LOAD      ACCESS:       5470  HIT:       5470  MISS:          0
cpu0_ITLB RFO       ACCESS:          0  HIT:          0  MISS:          0
cpu0_ITLB PREFETCH  ACCESS:          0  HIT:          0  MISS:          0
cpu0_ITLB WRITEBACK ACCESS:          0  HIT:          0  MISS:          0
cpu0_L1I TOTAL     ACCESS:        133  HIT:        133  MISS:          0
cpu0_L1I LOAD      ACCESS:        133  HIT:        133  MISS:          0
cpu0_L1I RFO       ACCESS:          0  HIT:          0  MISS:          0
cpu0_L1I PREFETCH  ACCESS:          0  HIT:          0  MISS:          0
cpu0_L1I WRITEBACK ACCESS:          0  HIT:          0  MISS:          0
cpu0_STLB TOTAL     ACCESS:       6976  HIT:       2860  MISS:       4116
cpu0_STLB LOAD      ACCESS:       6910  HIT:       2794  MISS:       4116
cpu0_STLB RFO       ACCESS:         66  HIT:         66  MISS:          0
cpu0_STLB PREFETCH  ACCESS:          0  HIT:          0  MISS:          0
cpu0_STLB WRITEBACK ACCESS:          0  HIT:          0  MISS:          0
cpu0_L1D TOTAL     ACCESS:    6178136  HIT:    5780971  MISS:     397165
cpu0_L1D LOAD      ACCESS:    4068597  HIT:    3671969  MISS:     396628
cpu0_L1D RFO       ACCESS:    2105423  HIT:    2105027  MISS:        396
cpu0_L1D PREFETCH  ACCESS:          0  HIT:          0  MISS:          0
cpu0_L1D WRITEBACK ACCESS:          0  HIT:          0  MISS:          0
cpu0_L2C TOTAL     ACCESS:     660798  HIT:     371811  MISS:     288987
cpu0_L2C LOAD      ACCESS:     396628  HIT:     107822  MISS:     288806
cpu0_L2C RFO       ACCESS:        396  HIT:        268  MISS:        128
cpu0_L2C PREFETCH  ACCESS:          0  HIT:          0  MISS:          0
cpu0_L2C WRITEBACK ACCESS:     263633  HIT:     263633  MISS:          0
LLC TOTAL     ACCESS:     551901  HIT:      97290  MISS:     454611
LLC LOAD      ACCESS:     288806  HIT:      25725  MISS:     263081
LLC RFO       ACCESS:        128  HIT:        128  MISS:          0
LLC PREFETCH  ACCESS:          0  HIT:          0  MISS:          0
LLC WRITEBACK ACCESS:     262914  HIT:      71390  MISS:     191524
Heartbeat CPU 0 instructions: 82000002 cycles: 47338643 heartbeat IPC: 1.11729 cumulative IPC: 1.07382 (Simulation time: 0 hr 57 min 7 sec) 

Region of Interest Statistics
cpu0_DTLB TOTAL     ACCESS:    5332355  HIT:    5324922  MISS:       7433
cpu0_DTLB LOAD      ACCESS:    4634483  HIT:    4627120  MISS:       7363
cpu0_DTLB RFO       ACCESS:     697872  HIT:     697802  MISS:         70
cpu0_DTLB PREFETCH  ACCESS:          0  HIT:          0  MISS:          0
cpu0_DTLB WRITEBACK ACCESS:          0  HIT:          0  MISS:          0
cpu0_ITLB TOTAL     ACCESS:       5791  HIT:       5791  MISS:          0
cpu0_ITLB LOAD      ACCESS:       5791  HIT:       5791  MISS:          0
cpu0_ITLB RFO       ACCESS:          0  HIT:          0  MISS:          0
cpu0_ITLB PREFETCH  ACCESS:          0  HIT:          0  MISS:          0
cpu0_ITLB WRITEBACK ACCESS:          0  HIT:          0  MISS:          0
cpu0_L1I TOTAL     ACCESS:        147  HIT:        147  MISS:          0
cpu0_L1I LOAD      ACCESS:        147  HIT:        147  MISS:          0
cpu0_L1I RFO       ACCESS:          0  HIT:          0  MISS:          0
cpu0_L1I PREFETCH  ACCESS:          0  HIT:          0  MISS:          0
cpu0_L1I WRITEBACK ACCESS:          0  HIT:          0  MISS:          0
cpu0_STLB TOTAL     ACCESS:       7433  HIT:       3043  MISS:       4390
cpu0_STLB LOAD      ACCESS:       7363  HIT:       2973  MISS:       4390
cpu0_STLB RFO       ACCESS:         70  HIT:         70  MISS:          0
cpu0_STLB PREFETCH  ACCESS:          0  HIT:          0  MISS:          0
cpu0_STLB WRITEBACK ACCESS:          0  HIT:          0  MISS:          0
cpu0_L1D TOTAL     ACCESS:    6588495  HIT:    6164870  MISS:     423625
cpu0_L1D LOAD      ACCESS:    4338323  HIT:    3915268  MISS:     423055
cpu0_L1D RFO       ACCESS:    2245782  HIT:    2245362  MISS:        420
cpu0_L1D PREFETCH  ACCESS:          0  HIT:          0  MISS:          0
cpu0_L1D WRITEBACK ACCESS:          0  HIT:          0  MISS:          0
cpu0_L2C TOTAL     ACCESS:     704815  HIT:     396066  MISS:     308749
cpu0_L2C LOAD      ACCESS:     423055  HIT:     114500  MISS:     308555
cpu0_L2C RFO       ACCESS:        420  HIT:        283  MISS:        137
cpu0_L2C PREFETCH  ACCESS:          0  HIT:          0  MISS:          0
cpu0_L2C WRITEBACK ACCESS:     281190  HIT:     281190  MISS:          0
LLC TOTAL     ACCESS:     589328  HIT:     100149  MISS:     489179
LLC LOAD      ACCESS:     308555  HIT:      27939  MISS:     280616
LLC RFO       ACCESS:        137  HIT:        137  MISS:          0
LLC PREFETCH  ACCESS:          0  HIT:          0  MISS:          0
LLC WRITEBACK ACCESS:     280579  HIT:      72022  MISS:     208557
Heartbeat CPU 0 instructions: 84000002 cycles: 49100317 heartbeat IPC: 1.13528 cumulative IPC: 1.07725 (Simulation time: 0 hr 58 min 42 sec) 

Region of Interest Statistics
cpu0_DTLB TOTAL     ACCESS:    5666061  HIT:    5658158  MISS:       7903
cpu0_DTLB LOAD      ACCESS:    4924472  HIT:    4916643  MISS:       7829
cpu0_DTLB RFO       ACCESS:     741589  HIT:     741515  MISS:         74
cpu0_DTLB PREFETCH  ACCESS:          0  HIT:          0  MISS:          0
cpu0_DTLB WRITEBACK ACCESS:          0  HIT:          0  MISS:          0
cpu0_ITLB TOTAL     ACCESS:       6154  HIT:       6154  MISS:          0
cpu0_ITLB LOAD      ACCESS:       6154  HIT:       6154  MISS:          0
cpu0_ITLB RFO       ACCESS:          0  HIT:          0  MISS:          0
cpu0_ITLB PREFETCH  ACCESS:          0  HIT:          0  MISS:          0
cpu0_ITLB WRITEBACK ACCESS:          0  HIT:          0  MISS:          0
cpu0_L1I TOTAL     ACCESS:        159  HIT:        159  MISS:          0
cpu0_L1I LOAD      ACCESS:        159  HIT:        159  MISS:          0
cpu0_L1I RFO       ACCESS:          0  HIT:          0  MISS:          0
cpu0_L1I PREFETCH  ACCESS:          0  HIT:          0  MISS:          0
cpu0_L1I WRITEBACK ACCESS:          0  HIT:          0  MISS:          0
cpu0_STLB TOTAL     ACCESS:       7903  HIT:       3233  MISS:       4670
cpu0_STLB LOAD      ACCESS:       7829  HIT:       3159  MISS:       4670
cpu0_STLB RFO       ACCESS:         74  HIT:         74  MISS:          0
cpu0_STLB PREFETCH  ACCESS:          0  HIT:          0  MISS:          0
cpu0_STLB WRITEBACK ACCESS:          0  HIT:          0  MISS:          0
cpu0_L1D TOTAL     ACCESS:    6999131  HIT:    6549032  MISS:     450099
cpu0_L1D LOAD      ACCESS:    4608319  HIT:    4158827  MISS:     449492
cpu0_L1D RFO       ACCESS:    2386142  HIT:    2385698  MISS:        444
cpu0_L1D PREFETCH  ACCESS:          0  HIT:          0  MISS:          0
cpu0_L1D WRITEBACK ACCESS:          0  HIT:          0  MISS:          0
cpu0_L2C TOTAL     ACCESS:     748861  HIT:     420941  MISS:     327920
cpu0_L2C LOAD      ACCESS:     449492  HIT:     121778  MISS:     327714
cpu0_L2C RFO       ACCESS:        444  HIT:        302  MISS:        142
cpu0_L2C PREFETCH  ACCESS:          0  HIT:          0  MISS:          0
cpu0_L2C WRITEBACK ACCESS:     298762  HIT:     298762  MISS:          0
LLC TOTAL     ACCESS:     625965  HIT:     102232  MISS:     523733
LLC LOAD      ACCESS:     327714  HIT:      29557  MISS:     298157
LLC RFO       ACCESS:        142  HIT:        142  MISS:          0
LLC PREFETCH  ACCESS:          0  HIT:          0  MISS:          0
LLC WRITEBACK ACCESS:     298045  HIT:      72476  MISS:     225569
Heartbeat CPU 0 instructions: 86000003 cycles: 50866613 heartbeat IPC: 1.13231 cumulative IPC: 1.08017 (Simulation time: 1 hr 0 min 23 sec) 

Region of Interest Statistics
cpu0_DTLB TOTAL     ACCESS:    6000144  HIT:    5991761  MISS:       8383
cpu0_DTLB LOAD      ACCESS:    5214813  HIT:    5206509  MISS:       8304
cpu0_DTLB RFO       ACCESS:     785331  HIT:     785252  MISS:         79
cpu0_DTLB PREFETCH  ACCESS:          0  HIT:          0  MISS:          0
cpu0_DTLB WRITEBACK ACCESS:          0  HIT:          0  MISS:          0
cpu0_ITLB TOTAL     ACCESS:       6556  HIT:       6556  MISS:          0
cpu0_ITLB LOAD      ACCESS:       6556  HIT:       6556  MISS:          0
cpu0_ITLB RFO       ACCESS:          0  HIT:          0  MISS:          0
cpu0_ITLB PREFETCH  ACCESS:          0  HIT:          0  MISS:          0
cpu0_ITLB WRITEBACK ACCESS:          0  HIT:          0  MISS:          0
cpu0_L1I TOTAL     ACCESS:        176  HIT:        176  MISS:          0
cpu0_L1I LOAD      ACCESS:        176  HIT:        176  MISS:          0
cpu0_L1I RFO       ACCESS:          0  HIT:          0  MISS:          0
cpu0_L1I PREFETCH  ACCESS:          0  HIT:          0  MISS:          0
cpu0_L1I WRITEBACK ACCESS:          0  HIT:          0  MISS:          0
cpu0_STLB TOTAL     ACCESS:       8383  HIT:       3439  MISS:       4944
cpu0_STLB LOAD      ACCESS:       8304  HIT:       3360  MISS:       4944
cpu0_STLB RFO       ACCESS:         79  HIT:         79  MISS:          0
cpu0_STLB PREFETCH  ACCESS:          0  HIT:          0  MISS:          0
cpu0_STLB WRITEBACK ACCESS:          0  HIT:          0  MISS:          0
cpu0_L1D TOTAL     ACCESS:    7409599  HIT:    6933009  MISS:     476590
cpu0_L1D LOAD      ACCESS:    4878148  HIT:    4402204  MISS:     475944
cpu0_L1D RFO       ACCESS:    2526507  HIT:    2526033  MISS:        474
cpu0_L1D PREFETCH  ACCESS:          0  HIT:          0  MISS:          0
cpu0_L1D WRITEBACK ACCESS:          0  HIT:          0  MISS:          0
cpu0_L2C TOTAL     ACCESS:     792928  HIT:     445450  MISS:     347478
cpu0_L2C LOAD      ACCESS:     475944  HIT:     128686  MISS:     347258
cpu0_L2C RFO       ACCESS:        474  HIT:        324  MISS:        150
cpu0_L2C PREFETCH  ACCESS:          0  HIT:          0  MISS:          0
cpu0_L2C WRITEBACK ACCESS:     316338  HIT:     316338  MISS:          0
LLC TOTAL     ACCESS:     663098  HIT:     104574  MISS:     558524
LLC LOAD      ACCESS:     347258  HIT:      31565  MISS:     315693
LLC RFO       ACCESS:        150  HIT:        150  MISS:          0
LLC PREFETCH  ACCESS:          0  HIT:          0  MISS:          0
LLC WRITEBACK ACCESS:     315620  HIT:      72797  MISS:     242823
Heartbeat CPU 0 instructions: 88000003 cycles: 52625171 heartbeat IPC: 1.1373 cumulative IPC: 1.08303 (Simulation time: 1 hr 1 min 58 sec) 

Region of Interest Statistics
cpu0_DTLB TOTAL     ACCESS:    6333703  HIT:    6324852  MISS:       8851
cpu0_DTLB LOAD      ACCESS:    5504261  HIT:    5495493  MISS:       8768
cpu0_DTLB RFO       ACCESS:     829442  HIT:     829359  MISS:         83
cpu0_DTLB PREFETCH  ACCESS:          0  HIT:          0  MISS:          0
cpu0_DTLB WRITEBACK ACCESS:          0  HIT:          0  MISS:          0
cpu0_ITLB TOTAL     ACCESS:       6896  HIT:       6896  MISS:          0
cpu0_ITLB LOAD      ACCESS:       6896  HIT:       6896  MISS:          0
cpu0_ITLB RFO       ACCESS:          0  HIT:          0  MISS:          0
cpu0_ITLB PREFETCH  ACCESS:          0  HIT:          0  MISS:          0
cpu0_ITLB WRITEBACK ACCESS:          0  HIT:          0  MISS:          0
cpu0_L1I TOTAL     ACCESS:        190  HIT:        190  MISS:          0
cpu0_L1I LOAD      ACCESS:        190  HIT:        190  MISS:          0
cpu0_L1I RFO       ACCESS:          0  HIT:          0  MISS:          0
cpu0_L1I PREFETCH  ACCESS:          0  HIT:          0  MISS:          0
cpu0_L1I WRITEBACK ACCESS:          0  HIT:          0  MISS:          0
cpu0_STLB TOTAL     ACCESS:       8851  HIT:       3634  MISS:       5217
cpu0_STLB LOAD      ACCESS:       8768  HIT:       3551  MISS:       5217
cpu0_STLB RFO       ACCESS:         83  HIT:         83  MISS:          0
cpu0_STLB PREFETCH  ACCESS:          0  HIT:          0  MISS:          0
cpu0_STLB WRITEBACK ACCESS:          0  HIT:          0  MISS:          0
cpu0_L1D TOTAL     ACCESS:    7821322  HIT:    7318259  MISS:     503063
cpu0_L1D LOAD      ACCESS:    5149243  HIT:    4646859  MISS:     502384
cpu0_L1D RFO       ACCESS:    2666862  HIT:    2666364  MISS:        498
cpu0_L1D PREFETCH  ACCESS:          0  HIT:          0  MISS:          0
cpu0_L1D WRITEBACK ACCESS:          0  HIT:          0  MISS:          0
cpu0_L2C TOTAL     ACCESS:     836977  HIT:     470312  MISS:     366665
cpu0_L2C LOAD      ACCESS:     502384  HIT:     135953  MISS:     366431
cpu0_L2C RFO       ACCESS:        498  HIT:        336  MISS:        162
cpu0_L2C PREFETCH  ACCESS:          0  HIT:          0  MISS:          0
cpu0_L2C WRITEBACK ACCESS:     333914  HIT:     333914  MISS:          0
LLC TOTAL     ACCESS:     699929  HIT:     106491  MISS:     593438
LLC LOAD      ACCESS:     366431  HIT:      33201  MISS:     333230
LLC RFO       ACCESS:        162  HIT:        162  MISS:          0
LLC PREFETCH  ACCESS:          0  HIT:          0  MISS:          0
LLC WRITEBACK ACCESS:     333264  HIT:      73065  MISS:     260199
Heartbeat CPU 0 instructions: 90000001 cycles: 54385820 heartbeat IPC: 1.13594 cumulative IPC: 1.08556 (Simulation time: 1 hr 3 min 32 sec) 

Region of Interest Statistics
cpu0_DTLB TOTAL     ACCESS:    6666826  HIT:    6657507  MISS:       9319
cpu0_DTLB LOAD      ACCESS:    5793700  HIT:    5784468  MISS:       9232
cpu0_DTLB RFO       ACCESS:     873126  HIT:     873039  MISS:         87
cpu0_DTLB PREFETCH  ACCESS:          0  HIT:          0  MISS:          0
cpu0_DTLB WRITEBACK ACCESS:          0  HIT:          0  MISS:          0
cpu0_ITLB TOTAL     ACCESS:       7256  HIT:       7256  MISS:          0
cpu0_ITLB LOAD      ACCESS:       7256  HIT:       7256  MISS:          0
cpu0_ITLB RFO       ACCESS:          0  HIT:          0  MISS:          0
cpu0_ITLB PREFETCH  ACCESS:          0  HIT:          0  MISS:          0
cpu0_ITLB WRITEBACK ACCESS:          0  HIT:          0  MISS:          0
cpu0_L1I TOTAL     ACCESS:        196  HIT:        196  MISS:          0
cpu0_L1I LOAD      ACCESS:        196  HIT:        196  MISS:          0
cpu0_L1I RFO       ACCESS:          0  HIT:          0  MISS:          0
cpu0_L1I PREFETCH  ACCESS:          0  HIT:          0  MISS:          0
cpu0_L1I WRITEBACK ACCESS:          0  HIT:          0  MISS:          0
cpu0_STLB TOTAL     ACCESS:       9319  HIT:       3827  MISS:       5492
cpu0_STLB LOAD      ACCESS:       9232  HIT:       3740  MISS:       5492
cpu0_STLB RFO       ACCESS:         87  HIT:         87  MISS:          0
cpu0_STLB PREFETCH  ACCESS:          0  HIT:          0  MISS:          0
cpu0_STLB WRITEBACK ACCESS:          0  HIT:          0  MISS:          0
cpu0_L1D TOTAL     ACCESS:    8233401  HIT:    7703875  MISS:     529526
cpu0_L1D LOAD      ACCESS:    5420685  HIT:    4891870  MISS:     528815
cpu0_L1D RFO       ACCESS:    2807224  HIT:    2806702  MISS:        522
cpu0_L1D PREFETCH  ACCESS:          0  HIT:          0  MISS:          0
cpu0_L1D WRITEBACK ACCESS:          0  HIT:          0  MISS:          0
cpu0_L2C TOTAL     ACCESS:     881009  HIT:     494992  MISS:     386017
cpu0_L2C LOAD      ACCESS:     528815  HIT:     143040  MISS:     385775
cpu0_L2C RFO       ACCESS:        522  HIT:        355  MISS:        167
cpu0_L2C PREFETCH  ACCESS:          0  HIT:          0  MISS:          0
cpu0_L2C WRITEBACK ACCESS:     351483  HIT:     351483  MISS:          0
LLC TOTAL     ACCESS:     736594  HIT:     108616  MISS:     627978
LLC LOAD      ACCESS:     385775  HIT:      35007  MISS:     350768
LLC RFO       ACCESS:        167  HIT:        167  MISS:          0
LLC PREFETCH  ACCESS:          0  HIT:          0  MISS:          0
LLC WRITEBACK ACCESS:     350577  HIT:      73376  MISS:     277201
Heartbeat CPU 0 instructions: 92000003 cycles: 56147717 heartbeat IPC: 1.13514 cumulative IPC: 1.08782 (Simulation time: 1 hr 5 min 20 sec) 

Region of Interest Statistics
cpu0_DTLB TOTAL     ACCESS:    6999996  HIT:    6990200  MISS:       9796
cpu0_DTLB LOAD      ACCESS:    6082678  HIT:    6072974  MISS:       9704
cpu0_DTLB RFO       ACCESS:     917318  HIT:     917226  MISS:         92
cpu0_DTLB PREFETCH  ACCESS:          0  HIT:          0  MISS:          0
cpu0_DTLB WRITEBACK ACCESS:          0  HIT:          0  MISS:          0
cpu0_ITLB TOTAL     ACCESS:       7618  HIT:       7618  MISS:          0
cpu0_ITLB LOAD      ACCESS:       7618  HIT:       7618  MISS:          0
cpu0_ITLB RFO       ACCESS:          0  HIT:          0  MISS:          0
cpu0_ITLB PREFETCH  ACCESS:          0  HIT:          0  MISS:          0
cpu0_ITLB WRITEBACK ACCESS:          0  HIT:          0  MISS:          0
cpu0_L1I TOTAL     ACCESS:        210  HIT:        210  MISS:          0
cpu0_L1I LOAD      ACCESS:        210  HIT:        210  MISS:          0
cpu0_L1I RFO       ACCESS:          0  HIT:          0  MISS:          0
cpu0_L1I PREFETCH  ACCESS:          0  HIT:          0  MISS:          0
cpu0_L1I WRITEBACK ACCESS:          0  HIT:          0  MISS:          0
cpu0_STLB TOTAL     ACCESS:       9796  HIT:       4030  MISS:       5766
cpu0_STLB LOAD      ACCESS:       9704  HIT:       3938  MISS:       5766
cpu0_STLB RFO       ACCESS:         92  HIT:         92  MISS:          0
cpu0_STLB PREFETCH  ACCESS:          0  HIT:          0  MISS:          0
cpu0_STLB WRITEBACK ACCESS:          0  HIT:          0  MISS:          0
cpu0_L1D TOTAL     ACCESS:    8645127  HIT:    8089112  MISS:     556015
cpu0_L1D LOAD      ACCESS:    5691777  HIT:    5136512  MISS:     555265
cpu0_L1D RFO       ACCESS:    2947584  HIT:    2947032  MISS:        552
cpu0_L1D PREFETCH  ACCESS:          0  HIT:          0  MISS:          0
cpu0_L1D WRITEBACK ACCESS:          0  HIT:          0  MISS:          0
cpu0_L2C TOTAL     ACCESS:     925078  HIT:     519743  MISS:     405335
cpu0_L2C LOAD      ACCESS:     555265  HIT:     150187  MISS:     405078
cpu0_L2C RFO       ACCESS:        552  HIT:        374  MISS:        178
cpu0_L2C PREFETCH  ACCESS:          0  HIT:          0  MISS:          0
cpu0_L2C WRITEBACK ACCESS:     369063  HIT:     369063  MISS:          0
LLC TOTAL     ACCESS:     773678  HIT:     110634  MISS:     663044
LLC LOAD      ACCESS:     405078  HIT:      36777  MISS:     368301
LLC RFO       ACCESS:        178  HIT:        178  MISS:          0
LLC PREFETCH  ACCESS:          0  HIT:          0  MISS:          0
LLC WRITEBACK ACCESS:     368343  HIT:      73610  MISS:     294733
Heartbeat CPU 0 instructions: 94000003 cycles: 57906475 heartbeat IPC: 1.13717 cumulative IPC: 1.08997 (Simulation time: 1 hr 7 min 12 sec) 

Region of Interest Statistics
cpu0_DTLB TOTAL     ACCESS:    7333709  HIT:    7323445  MISS:      10264
cpu0_DTLB LOAD      ACCESS:    6372750  HIT:    6362582  MISS:      10168
cpu0_DTLB RFO       ACCESS:     960959  HIT:     960863  MISS:         96
cpu0_DTLB PREFETCH  ACCESS:          0  HIT:          0  MISS:          0
cpu0_DTLB WRITEBACK ACCESS:          0  HIT:          0  MISS:          0
cpu0_ITLB TOTAL     ACCESS:       7992  HIT:       7992  MISS:          0
cpu0_ITLB LOAD      ACCESS:       7992  HIT:       7992  MISS:          0
cpu0_ITLB RFO       ACCESS:          0  HIT:          0  MISS:          0
cpu0_ITLB PREFETCH  ACCESS:          0  HIT:          0  MISS:          0
cpu0_ITLB WRITEBACK ACCESS:          0  HIT:          0  MISS:          0
cpu0_L1I TOTAL     ACCESS:        219  HIT:        219  MISS:          0
cpu0_L1I LOAD      ACCESS:        219  HIT:        219  MISS:          0
cpu0_L1I RFO       ACCESS:          0  HIT:          0  MISS:          0
cpu0_L1I PREFETCH  ACCESS:          0  HIT:          0  MISS:          0
cpu0_L1I WRITEBACK ACCESS:          0  HIT:          0  MISS:          0
cpu0_STLB TOTAL     ACCESS:      10264  HIT:       4224  MISS:       6040
cpu0_STLB LOAD      ACCESS:      10168  HIT:       4128  MISS:       6040
cpu0_STLB RFO       ACCESS:         96  HIT:         96  MISS:          0
cpu0_STLB PREFETCH  ACCESS:          0  HIT:          0  MISS:          0
cpu0_STLB WRITEBACK ACCESS:          0  HIT:          0  MISS:          0
cpu0_L1D TOTAL     ACCESS:    9055855  HIT:    8473369  MISS:     582486
cpu0_L1D LOAD      ACCESS:    5961871  HIT:    5380168  MISS:     581703
cpu0_L1D RFO       ACCESS:    3087944  HIT:    3087368  MISS:        576
cpu0_L1D PREFETCH  ACCESS:          0  HIT:          0  MISS:          0
cpu0_L1D WRITEBACK ACCESS:          0  HIT:          0  MISS:          0
cpu0_L2C TOTAL     ACCESS:     969122  HIT:     544526  MISS:     424596
cpu0_L2C LOAD      ACCESS:     581703  HIT:     157378  MISS:     424325
cpu0_L2C RFO       ACCESS:        576  HIT:        387  MISS:        189
cpu0_L2C PREFETCH  ACCESS:          0  HIT:          0  MISS:          0
cpu0_L2C WRITEBACK ACCESS:     386636  HIT:     386636  MISS:          0
LLC TOTAL     ACCESS:     810414  HIT:     112708  MISS:     697706
LLC LOAD      ACCESS:     424325  HIT:      38487  MISS:     385838
LLC RFO       ACCESS:        189  HIT:        189  MISS:          0
LLC PREFETCH  ACCESS:          0  HIT:          0  MISS:          0
LLC WRITEBACK ACCESS:     385818  HIT:      73961  MISS:     311857
Heartbeat CPU 0 instructions: 96000000 cycles: 59675243 heartbeat IPC: 1.13073 cumulative IPC: 1.09169 (Simulation time: 1 hr 8 min 55 sec) 

Region of Interest Statistics
cpu0_DTLB TOTAL     ACCESS:    7667134  HIT:    7656390  MISS:      10744
cpu0_DTLB LOAD      ACCESS:    6662698  HIT:    6652055  MISS:      10643
cpu0_DTLB RFO       ACCESS:    1004436  HIT:    1004335  MISS:        101
cpu0_DTLB PREFETCH  ACCESS:          0  HIT:          0  MISS:          0
cpu0_DTLB WRITEBACK ACCESS:          0  HIT:          0  MISS:          0
cpu0_ITLB TOTAL     ACCESS:       8366  HIT:       8366  MISS:          0
cpu0_ITLB LOAD      ACCESS:       8366  HIT:       8366  MISS:          0
cpu0_ITLB RFO       ACCESS:          0  HIT:          0  MISS:          0
cpu0_ITLB PREFETCH  ACCESS:          0  HIT:          0  MISS:          0
cpu0_ITLB WRITEBACK ACCESS:          0  HIT:          0  MISS:          0
cpu0_L1I TOTAL     ACCESS:        234  HIT:        234  MISS:          0
cpu0_L1I LOAD      ACCESS:        234  HIT:        234  MISS:          0
cpu0_L1I RFO       ACCESS:          0  HIT:          0  MISS:          0
cpu0_L1I PREFETCH  ACCESS:          0  HIT:          0  MISS:          0
cpu0_L1I WRITEBACK ACCESS:          0  HIT:          0  MISS:          0
cpu0_STLB TOTAL     ACCESS:      10744  HIT:       4431  MISS:       6313
cpu0_STLB LOAD      ACCESS:      10643  HIT:       4330  MISS:       6313
cpu0_STLB RFO       ACCESS:        101  HIT:        101  MISS:          0
cpu0_STLB PREFETCH  ACCESS:          0  HIT:          0  MISS:          0
cpu0_STLB WRITEBACK ACCESS:          0  HIT:          0  MISS:          0
cpu0_L1D TOTAL     ACCESS:    9466406  HIT:    8857426  MISS:     608980
cpu0_L1D LOAD      ACCESS:    6231787  HIT:    5623629  MISS:     608158
cpu0_L1D RFO       ACCESS:    3228306  HIT:    3227700  MISS:        606
cpu0_L1D PREFETCH  ACCESS:          0  HIT:          0  MISS:          0
cpu0_L1D WRITEBACK ACCESS:          0  HIT:          0  MISS:          0
cpu0_L2C TOTAL     ACCESS:    1013209  HIT:     569426  MISS:     443783
cpu0_L2C LOAD      ACCESS:     608158  HIT:     164661  MISS:     443497
cpu0_L2C RFO       ACCESS:        606  HIT:        406  MISS:        200
cpu0_L2C PREFETCH  ACCESS:          0  HIT:          0  MISS:          0
cpu0_L2C WRITEBACK ACCESS:     404229  HIT:     404229  MISS:          0
LLC TOTAL     ACCESS:     847217  HIT:     114700  MISS:     732517
LLC LOAD      ACCESS:     443497  HIT:      40122  MISS:     403375
LLC RFO       ACCESS:        200  HIT:        200  MISS:          0
LLC PREFETCH  ACCESS:          0  HIT:          0  MISS:          0
LLC WRITEBACK ACCESS:     403434  HIT:      74304  MISS:     329130
Heartbeat CPU 0 instructions: 98000004 cycles: 61436822 heartbeat IPC: 1.13535 cumulative IPC: 1.09344 (Simulation time: 1 hr 10 min 40 sec) 

Region of Interest Statistics
cpu0_DTLB TOTAL     ACCESS:    8000341  HIT:    7989130  MISS:      11211
cpu0_DTLB LOAD      ACCESS:    6952319  HIT:    6941213  MISS:      11106
cpu0_DTLB RFO       ACCESS:    1048022  HIT:    1047917  MISS:        105
cpu0_DTLB PREFETCH  ACCESS:          0  HIT:          0  MISS:          0
cpu0_DTLB WRITEBACK ACCESS:          0  HIT:          0  MISS:          0
cpu0_ITLB TOTAL     ACCESS:       8715  HIT:       8715  MISS:          0
cpu0_ITLB LOAD      ACCESS:       8715  HIT:       8715  MISS:          0
cpu0_ITLB RFO       ACCESS:          0  HIT:          0  MISS:          0
cpu0_ITLB PREFETCH  ACCESS:          0  HIT:          0  MISS:          0
cpu0_ITLB WRITEBACK ACCESS:          0  HIT:          0  MISS:          0
cpu0_L1I TOTAL     ACCESS:        243  HIT:        243  MISS:          0
cpu0_L1I LOAD      ACCESS:        243  HIT:        243  MISS:          0
cpu0_L1I RFO       ACCESS:          0  HIT:          0  MISS:          0
cpu0_L1I PREFETCH  ACCESS:          0  HIT:          0  MISS:          0
cpu0_L1I WRITEBACK ACCESS:          0  HIT:          0  MISS:          0
cpu0_STLB TOTAL     ACCESS:      11211  HIT:       4624  MISS:       6587
cpu0_STLB LOAD      ACCESS:      11106  HIT:       4519  MISS:       6587
cpu0_STLB RFO       ACCESS:        105  HIT:        105  MISS:          0
cpu0_STLB PREFETCH  ACCESS:          0  HIT:          0  MISS:          0
cpu0_STLB WRITEBACK ACCESS:          0  HIT:          0  MISS:          0
cpu0_L1D TOTAL     ACCESS:    9876887  HIT:    9241449  MISS:     635438
cpu0_L1D LOAD      ACCESS:    6501628  HIT:    5867044  MISS:     634584
cpu0_L1D RFO       ACCESS:    3368672  HIT:    3368042  MISS:        630
cpu0_L1D PREFETCH  ACCESS:          0  HIT:          0  MISS:          0
cpu0_L1D WRITEBACK ACCESS:          0  HIT:          0  MISS:          0
cpu0_L2C TOTAL     ACCESS:    1057222  HIT:     593954  MISS:     463268
cpu0_L2C LOAD      ACCESS:     634584  HIT:     171612  MISS:     462972
cpu0_L2C RFO       ACCESS:        630  HIT:        424  MISS:        206
cpu0_L2C PREFETCH  ACCESS:          0  HIT:          0  MISS:          0
cpu0_L2C WRITEBACK ACCESS:     421784  HIT:     421784  MISS:          0
LLC TOTAL     ACCESS:     884043  HIT:     116978  MISS:     767065
LLC LOAD      ACCESS:     462972  HIT:      42064  MISS:     420908
LLC RFO       ACCESS:        206  HIT:        206  MISS:          0
LLC PREFETCH  ACCESS:          0  HIT:          0  MISS:          0
LLC WRITEBACK ACCESS:     420775  HIT:      74630  MISS:     346145
Heartbeat CPU 0 instructions: 100000003 cycles: 63198590 heartbeat IPC: 1.13522 cumulative IPC: 1.09505 (Simulation time: 1 hr 12 min 28 sec) 

Region of Interest Statistics
cpu0_DTLB TOTAL     ACCESS:    8334227  HIT:    8322547  MISS:      11680
cpu0_DTLB LOAD      ACCESS:    7242391  HIT:    7230820  MISS:      11571
cpu0_DTLB RFO       ACCESS:    1091836  HIT:    1091727  MISS:        109
cpu0_DTLB PREFETCH  ACCESS:          0  HIT:          0  MISS:          0
cpu0_DTLB WRITEBACK ACCESS:          0  HIT:          0  MISS:          0
cpu0_ITLB TOTAL     ACCESS:       9063  HIT:       9063  MISS:          0
cpu0_ITLB LOAD      ACCESS:       9063  HIT:       9063  MISS:          0
cpu0_ITLB RFO       ACCESS:          0  HIT:          0  MISS:          0
cpu0_ITLB PREFETCH  ACCESS:          0  HIT:          0  MISS:          0
cpu0_ITLB WRITEBACK ACCESS:          0  HIT:          0  MISS:          0
cpu0_L1I TOTAL     ACCESS:        258  HIT:        258  MISS:          0
cpu0_L1I LOAD      ACCESS:        258  HIT:        258  MISS:          0
cpu0_L1I RFO       ACCESS:          0  HIT:          0  MISS:          0
cpu0_L1I PREFETCH  ACCESS:          0  HIT:          0  MISS:          0
cpu0_L1I WRITEBACK ACCESS:          0  HIT:          0  MISS:          0
cpu0_STLB TOTAL     ACCESS:      11680  HIT:       4819  MISS:       6861
cpu0_STLB LOAD      ACCESS:      11571  HIT:       4710  MISS:       6861
cpu0_STLB RFO       ACCESS:        109  HIT:        109  MISS:          0
cpu0_STLB PREFETCH  ACCESS:          0  HIT:          0  MISS:          0
cpu0_STLB WRITEBACK ACCESS:          0  HIT:          0  MISS:          0
cpu0_L1D TOTAL     ACCESS:   10288299  HIT:    9626391  MISS:     661908
cpu0_L1D LOAD      ACCESS:    6772412  HIT:    6111391  MISS:     661021
cpu0_L1D RFO       ACCESS:    3509026  HIT:    3508372  MISS:        654
cpu0_L1D PREFETCH  ACCESS:          0  HIT:          0  MISS:          0
cpu0_L1D WRITEBACK ACCESS:          0  HIT:          0  MISS:          0
cpu0_L2C TOTAL     ACCESS:    1101264  HIT:     618948  MISS:     482316
cpu0_L2C LOAD      ACCESS:     661021  HIT:     179010  MISS:     482011
cpu0_L2C RFO       ACCESS:        654  HIT:        443  MISS:        211
cpu0_L2C PREFETCH  ACCESS:          0  HIT:          0  MISS:          0
cpu0_L2C WRITEBACK ACCESS:     439356  HIT:     439356  MISS:          0
LLC TOTAL     ACCESS:     920755  HIT:     118727  MISS:     802028
LLC LOAD      ACCESS:     482011  HIT:      43567  MISS:     438444
LLC RFO       ACCESS:        211  HIT:        211  MISS:          0
LLC PREFETCH  ACCESS:          0  HIT:          0  MISS:          0
LLC WRITEBACK ACCESS:     438439  HIT:      74869  MISS:     363570
Heartbeat CPU 0 instructions: 102000004 cycles: 64950422 heartbeat IPC: 1.14166 cumulative IPC: 1.09677 (Simulation time: 1 hr 14 min 12 sec) 

Region of Interest Statistics
cpu0_DTLB TOTAL     ACCESS:    8667413  HIT:    8655257  MISS:      12156
cpu0_DTLB LOAD      ACCESS:    7532000  HIT:    7519958  MISS:      12042
cpu0_DTLB RFO       ACCESS:    1135413  HIT:    1135299  MISS:        114
cpu0_DTLB PREFETCH  ACCESS:          0  HIT:          0  MISS:          0
cpu0_DTLB WRITEBACK ACCESS:          0  HIT:          0  MISS:          0
cpu0_ITLB TOTAL     ACCESS:       9467  HIT:       9467  MISS:          0
cpu0_ITLB LOAD      ACCESS:       9467  HIT:       9467  MISS:          0
cpu0_ITLB RFO       ACCESS:          0  HIT:          0  MISS:          0
cpu0_ITLB PREFETCH  ACCESS:          0  HIT:          0  MISS:          0
cpu0_ITLB WRITEBACK ACCESS:          0  HIT:          0  MISS:          0
cpu0_L1I TOTAL     ACCESS:        259  HIT:        259  MISS:          0
cpu0_L1I LOAD      ACCESS:        259  HIT:        259  MISS:          0
cpu0_L1I RFO       ACCESS:          0  HIT:          0  MISS:          0
cpu0_L1I PREFETCH  ACCESS:          0  HIT:          0  MISS:          0
cpu0_L1I WRITEBACK ACCESS:          0  HIT:          0  MISS:          0
cpu0_STLB TOTAL     ACCESS:      12156  HIT:       5021  MISS:       7135
cpu0_STLB LOAD      ACCESS:      12042  HIT:       4907  MISS:       7135
cpu0_STLB RFO       ACCESS:        114  HIT:        114  MISS:          0
cpu0_STLB PREFETCH  ACCESS:          0  HIT:          0  MISS:          0
cpu0_STLB WRITEBACK ACCESS:          0  HIT:          0  MISS:          0
cpu0_L1D TOTAL     ACCESS:   10699092  HIT:   10010692  MISS:     688400
cpu0_L1D LOAD      ACCESS:    7042568  HIT:    6355094  MISS:     687474
cpu0_L1D RFO       ACCESS:    3649389  HIT:    3648705  MISS:        684
cpu0_L1D PREFETCH  ACCESS:          0  HIT:          0  MISS:          0
cpu0_L1D WRITEBACK ACCESS:          0  HIT:          0  MISS:          0
cpu0_L2C TOTAL     ACCESS:    1145334  HIT:     643635  MISS:     501699
cpu0_L2C LOAD      ACCESS:     687474  HIT:     186090  MISS:     501384
cpu0_L2C RFO       ACCESS:        684  HIT:        468  MISS:        216
cpu0_L2C PREFETCH  ACCESS:          0  HIT:          0  MISS:          0
cpu0_L2C WRITEBACK ACCESS:     456934  HIT:     456934  MISS:          0
LLC TOTAL     ACCESS:     957690  HIT:     120825  MISS:     836865
LLC LOAD      ACCESS:     501384  HIT:      45405  MISS:     455979
LLC RFO       ACCESS:        216  HIT:        216  MISS:          0
LLC PREFETCH  ACCESS:          0  HIT:          0  MISS:          0
LLC WRITEBACK ACCESS:     455991  HIT:      75120  MISS:     380871
Heartbeat CPU 0 instructions: 104000004 cycles: 66708260 heartbeat IPC: 1.13776 cumulative IPC: 1.09824 (Simulation time: 1 hr 15 min 53 sec) 

Region of Interest Statistics
cpu0_DTLB TOTAL     ACCESS:    9000711  HIT:    8988084  MISS:      12627
cpu0_DTLB LOAD      ACCESS:    7821764  HIT:    7809255  MISS:      12509
cpu0_DTLB RFO       ACCESS:    1178947  HIT:    1178829  MISS:        118
cpu0_DTLB PREFETCH  ACCESS:          0  HIT:          0  MISS:          0
cpu0_DTLB WRITEBACK ACCESS:          0  HIT:          0  MISS:          0
cpu0_ITLB TOTAL     ACCESS:       9838  HIT:       9838  MISS:          0
cpu0_ITLB LOAD      ACCESS:       9838  HIT:       9838  MISS:          0
cpu0_ITLB RFO       ACCESS:          0  HIT:          0  MISS:          0
cpu0_ITLB PREFETCH  ACCESS:          0  HIT:          0  MISS:          0
cpu0_ITLB WRITEBACK ACCESS:          0  HIT:          0  MISS:          0
cpu0_L1I TOTAL     ACCESS:        273  HIT:        273  MISS:          0
cpu0_L1I LOAD      ACCESS:        273  HIT:        273  MISS:          0
cpu0_L1I RFO       ACCESS:          0  HIT:          0  MISS:          0
cpu0_L1I PREFETCH  ACCESS:          0  HIT:          0  MISS:          0
cpu0_L1I WRITEBACK ACCESS:          0  HIT:          0  MISS:          0
cpu0_STLB TOTAL     ACCESS:      12627  HIT:       5218  MISS:       7409
cpu0_STLB LOAD      ACCESS:      12509  HIT:       5100  MISS:       7409
cpu0_STLB RFO       ACCESS:        118  HIT:        118  MISS:          0
cpu0_STLB PREFETCH  ACCESS:          0  HIT:          0  MISS:          0
cpu0_STLB WRITEBACK ACCESS:          0  HIT:          0  MISS:          0
cpu0_L1D TOTAL     ACCESS:   11109191  HIT:   10394321  MISS:     714870
cpu0_L1D LOAD      ACCESS:    7312032  HIT:    6598121  MISS:     713911
cpu0_L1D RFO       ACCESS:    3789749  HIT:    3789041  MISS:        708
cpu0_L1D PREFETCH  ACCESS:          0  HIT:          0  MISS:          0
cpu0_L1D WRITEBACK ACCESS:          0  HIT:          0  MISS:          0
cpu0_L2C TOTAL     ACCESS:    1189371  HIT:     668120  MISS:     521251
cpu0_L2C LOAD      ACCESS:     713911  HIT:     192982  MISS:     520929
cpu0_L2C RFO       ACCESS:        708  HIT:        489  MISS:        219
cpu0_L2C PREFETCH  ACCESS:          0  HIT:          0  MISS:          0
cpu0_L2C WRITEBACK ACCESS:     474501  HIT:     474501  MISS:          0
LLC TOTAL     ACCESS:     994828  HIT:     123092  MISS:     871736
LLC LOAD      ACCESS:     520929  HIT:      47414  MISS:     473515
LLC RFO       ACCESS:        219  HIT:        219  MISS:          0
LLC PREFETCH  ACCESS:          0  HIT:          0  MISS:          0
LLC WRITEBACK ACCESS:     473577  HIT:      75371  MISS:     398206
Heartbeat CPU 0 instructions: 106000004 cycles: 68468286 heartbeat IPC: 1.13635 cumulative IPC: 1.09955 (Simulation time: 1 hr 17 min 39 sec) 

Region of Interest Statistics
cpu0_DTLB TOTAL     ACCESS:    9335357  HIT:    9322262  MISS:      13095
cpu0_DTLB LOAD      ACCESS:    8112531  HIT:    8099558  MISS:      12973
cpu0_DTLB RFO       ACCESS:    1222826  HIT:    1222704  MISS:        122
cpu0_DTLB PREFETCH  ACCESS:          0  HIT:          0  MISS:          0
cpu0_DTLB WRITEBACK ACCESS:          0  HIT:          0  MISS:          0
cpu0_ITLB TOTAL     ACCESS:      10171  HIT:      10171  MISS:          0
cpu0_ITLB LOAD      ACCESS:      10171  HIT:      10171  MISS:          0
cpu0_ITLB RFO       ACCESS:          0  HIT:          0  MISS:          0
cpu0_ITLB PREFETCH  ACCESS:          0  HIT:          0  MISS:          0
cpu0_ITLB WRITEBACK ACCESS:          0  HIT:          0  MISS:          0
cpu0_L1I TOTAL     ACCESS:        278  HIT:        278  MISS:          0
cpu0_L1I LOAD      ACCESS:        278  HIT:        278  MISS:          0
cpu0_L1I RFO       ACCESS:          0  HIT:          0  MISS:          0
cpu0_L1I PREFETCH  ACCESS:          0  HIT:          0  MISS:          0
cpu0_L1I WRITEBACK ACCESS:          0  HIT:          0  MISS:          0
cpu0_STLB TOTAL     ACCESS:      13095  HIT:       5407  MISS:       7688
cpu0_STLB LOAD      ACCESS:      12973  HIT:       5285  MISS:       7688
cpu0_STLB RFO       ACCESS:        122  HIT:        122  MISS:          0
cpu0_STLB PREFETCH  ACCESS:          0  HIT:          0  MISS:          0
cpu0_STLB WRITEBACK ACCESS:          0  HIT:          0  MISS:          0
cpu0_L1D TOTAL     ACCESS:   11520064  HIT:   10778724  MISS:     741340
cpu0_L1D LOAD      ACCESS:    7582265  HIT:    6841920  MISS:     740345
cpu0_L1D RFO       ACCESS:    3930111  HIT:    3929379  MISS:        732
cpu0_L1D PREFETCH  ACCESS:          0  HIT:          0  MISS:          0
cpu0_L1D WRITEBACK ACCESS:          0  HIT:          0  MISS:          0
cpu0_L2C TOTAL     ACCESS:    1233421  HIT:     693249  MISS:     540172
cpu0_L2C LOAD      ACCESS:     740345  HIT:     200508  MISS:     539837
cpu0_L2C RFO       ACCESS:        732  HIT:        506  MISS:        226
cpu0_L2C PREFETCH  ACCESS:          0  HIT:          0  MISS:          0
cpu0_L2C WRITEBACK ACCESS:     492081  HIT:     492081  MISS:          0
[...]
cpu0_ITLB WRITEBACK ACCESS:          0  HIT:          0  MISS:          0
cpu0_L1I TOTAL     ACCESS:       7872  HIT:       7872  MISS:          0
cpu0_L1I LOAD      ACCESS:       7872  HIT:       7872  MISS:          0
cpu0_L1I RFO       ACCESS:          0  HIT:          0  MISS:          0
cpu0_L1I PREFETCH  ACCESS:          0  HIT:          0  MISS:          0
cpu0_L1I WRITEBACK ACCESS:          0  HIT:          0  MISS:          0
cpu0_STLB TOTAL     ACCESS:     350697  HIT:     145125  MISS:     205572
cpu0_STLB LOAD      ACCESS:     347411  HIT:     141839  MISS:     205572
cpu0_STLB RFO       ACCESS:       3286  HIT:       3286  MISS:          0
cpu0_STLB PREFETCH  ACCESS:          0  HIT:          0  MISS:          0
cpu0_STLB WRITEBACK ACCESS:          0  HIT:          0  MISS:          0
cpu0_L1D TOTAL     ACCESS:  308080027  HIT:  288248880  MISS:   19831147
cpu0_L1D LOAD      ACCESS:  202743765  HIT:  182939258  MISS:   19804507
cpu0_L1D RFO       ACCESS:  105130692  HIT:  105111000  MISS:      19692
cpu0_L1D PREFETCH  ACCESS:          0  HIT:          0  MISS:          0
cpu0_L1D WRITEBACK ACCESS:          0  HIT:          0  MISS:          0
cpu0_L2C TOTAL     ACCESS:   32994369  HIT:   18539887  MISS:   14454482
cpu0_L2C LOAD      ACCESS:   19804507  HIT:    5358314  MISS:   14446193
cpu0_L2C RFO       ACCESS:      19692  HIT:      14748  MISS:       4944
cpu0_L2C PREFETCH  ACCESS:          0  HIT:          0  MISS:          0
cpu0_L2C WRITEBACK ACCESS:   13163222  HIT:   13163222  MISS:          0
LLC TOTAL     ACCESS:   27590518  HIT:    1404675  MISS:   26185843
LLC LOAD      ACCESS:   14446193  HIT:    1311080  MISS:   13135113
LLC RFO       ACCESS:       4944  HIT:       4943  MISS:          1
LLC PREFETCH  ACCESS:          0  HIT:          0  MISS:          0
LLC WRITEBACK ACCESS:   13136036  HIT:      88260  MISS:   13047776
Heartbeat CPU 0 instructions: 1550000000 cycles: 1327328287 heartbeat IPC: 1.15226 cumulative IPC: 1.14522 (Simulation time: 15 hr 46 min 28 sec) 

Region of Interest Statistics
cpu0_DTLB TOTAL     ACCESS:  250015435  HIT:  249664276  MISS:     351159
cpu0_DTLB LOAD      ACCESS:  217164177  HIT:  216816308  MISS:     347869
cpu0_DTLB RFO       ACCESS:   32851258  HIT:   32847968  MISS:       3290
cpu0_DTLB PREFETCH  ACCESS:          0  HIT:          0  MISS:          0
cpu0_DTLB WRITEBACK ACCESS:          0  HIT:          0  MISS:          0
cpu0_ITLB TOTAL     ACCESS:     273983  HIT:     273983  MISS:          0
cpu0_ITLB LOAD      ACCESS:     273983  HIT:     273983  MISS:          0
cpu0_ITLB RFO       ACCESS:          0  HIT:          0  MISS:          0
cpu0_ITLB PREFETCH  ACCESS:          0  HIT:          0  MISS:          0
cpu0_ITLB WRITEBACK ACCESS:          0  HIT:          0  MISS:          0
cpu0_L1I TOTAL     ACCESS:       7880  HIT:       7880  MISS:          0
cpu0_L1I LOAD      ACCESS:       7880  HIT:       7880  MISS:          0
cpu0_L1I RFO       ACCESS:          0  HIT:          0  MISS:          0
cpu0_L1I PREFETCH  ACCESS:          0  HIT:          0  MISS:          0
cpu0_L1I WRITEBACK ACCESS:          0  HIT:          0  MISS:          0
cpu0_STLB TOTAL     ACCESS:     351159  HIT:     145313  MISS:     205846
cpu0_STLB LOAD      ACCESS:     347869  HIT:     142023  MISS:     205846
cpu0_STLB RFO       ACCESS:       3290  HIT:       3290  MISS:          0
cpu0_STLB PREFETCH  ACCESS:          0  HIT:          0  MISS:          0
cpu0_STLB WRITEBACK ACCESS:          0  HIT:          0  MISS:          0
cpu0_L1D TOTAL     ACCESS:  308492490  HIT:  288634883  MISS:   19857607
cpu0_L1D LOAD      ACCESS:  203015590  HIT:  183184656  MISS:   19830934
cpu0_L1D RFO       ACCESS:  105271056  HIT:  105251340  MISS:      19716
cpu0_L1D PREFETCH  ACCESS:          0  HIT:          0  MISS:          0
cpu0_L1D WRITEBACK ACCESS:          0  HIT:          0  MISS:          0
cpu0_L2C TOTAL     ACCESS:   33038388  HIT:   18565215  MISS:   14473173
cpu0_L2C LOAD      ACCESS:   19830934  HIT:    5366060  MISS:   14464874
cpu0_L2C RFO       ACCESS:      19716  HIT:      14765  MISS:       4951
cpu0_L2C PREFETCH  ACCESS:          0  HIT:          0  MISS:          0
cpu0_L2C WRITEBACK ACCESS:   13180781  HIT:   13180781  MISS:          0
LLC TOTAL     ACCESS:   27626648  HIT:    1405838  MISS:   26220810
LLC LOAD      ACCESS:   14464874  HIT:    1312227  MISS:   13152647
LLC RFO       ACCESS:       4951  HIT:       4950  MISS:          1
LLC PREFETCH  ACCESS:          0  HIT:          0  MISS:          0
LLC WRITEBACK ACCESS:   13153475  HIT:      88269  MISS:   13065206
Finished CPU 0 instructions: 1500000004 cycles: 1309789741 cumulative IPC: 1.14522 (Simulation time: 15 hr 46 min 28 sec) 

ChampSim completed all CPUs

Region of Interest Statistics

CPU 0 cumulative IPC: 1.14522 instructions: 1500000004 cycles: 1309789741
cpu0_DTLB TOTAL     ACCESS:  250015436  HIT:  249664277  MISS:     351159
cpu0_DTLB LOAD      ACCESS:  217164178  HIT:  216816309  MISS:     347869
cpu0_DTLB RFO       ACCESS:   32851258  HIT:   32847968  MISS:       3290
cpu0_DTLB PREFETCH  ACCESS:          0  HIT:          0  MISS:          0
cpu0_DTLB WRITEBACK ACCESS:          0  HIT:          0  MISS:          0
cpu0_DTLB TRANSLATION ACCESS:          0  HIT:          0  MISS:          0
cpu0_DTLB PREFETCH  REQUESTED:          0  ISSUED:          0  USEFUL:          0  USELESS:          0
cpu0_DTLB AVERAGE MISS LATENCY: 133.533 cycles
cpu0_ITLB TOTAL     ACCESS:     273983  HIT:     273983  MISS:          0
cpu0_ITLB LOAD      ACCESS:     273983  HIT:     273983  MISS:          0
cpu0_ITLB RFO       ACCESS:          0  HIT:          0  MISS:          0
cpu0_ITLB PREFETCH  ACCESS:          0  HIT:          0  MISS:          0
cpu0_ITLB WRITEBACK ACCESS:          0  HIT:          0  MISS:          0
cpu0_ITLB TRANSLATION ACCESS:          0  HIT:          0  MISS:          0
cpu0_ITLB PREFETCH  REQUESTED:          0  ISSUED:          0  USEFUL:          0  USELESS:          0
cpu0_ITLB AVERAGE MISS LATENCY: -nan cycles
cpu0_L1I TOTAL     ACCESS:       7880  HIT:       7880  MISS:          0
cpu0_L1I LOAD      ACCESS:       7880  HIT:       7880  MISS:          0
cpu0_L1I RFO       ACCESS:          0  HIT:          0  MISS:          0
cpu0_L1I PREFETCH  ACCESS:          0  HIT:          0  MISS:          0
cpu0_L1I WRITEBACK ACCESS:          0  HIT:          0  MISS:          0
cpu0_L1I TRANSLATION ACCESS:          0  HIT:          0  MISS:          0
cpu0_L1I PREFETCH  REQUESTED:          0  ISSUED:          0  USEFUL:          0  USELESS:          0
cpu0_L1I AVERAGE MISS LATENCY: -nan cycles
cpu0_STLB TOTAL     ACCESS:     351159  HIT:     145313  MISS:     205846
cpu0_STLB LOAD      ACCESS:     347869  HIT:     142023  MISS:     205846
cpu0_STLB RFO       ACCESS:       3290  HIT:       3290  MISS:          0
cpu0_STLB PREFETCH  ACCESS:          0  HIT:          0  MISS:          0
cpu0_STLB WRITEBACK ACCESS:          0  HIT:          0  MISS:          0
cpu0_STLB TRANSLATION ACCESS:          0  HIT:          0  MISS:          0
cpu0_STLB PREFETCH  REQUESTED:          0  ISSUED:          0  USEFUL:          0  USELESS:          0
cpu0_STLB AVERAGE MISS LATENCY: 212.419 cycles
cpu0_L1D TOTAL     ACCESS:  308492490  HIT:  288634883  MISS:   19857607
cpu0_L1D LOAD      ACCESS:  203015590  HIT:  183184656  MISS:   19830934
cpu0_L1D RFO       ACCESS:  105271056  HIT:  105251340  MISS:      19716
cpu0_L1D PREFETCH  ACCESS:          0  HIT:          0  MISS:          0
cpu0_L1D WRITEBACK ACCESS:          0  HIT:          0  MISS:          0
cpu0_L1D TRANSLATION ACCESS:     205844  HIT:     198887  MISS:       6957
cpu0_L1D PREFETCH  REQUESTED:          0  ISSUED:          0  USEFUL:          0  USELESS:          0
cpu0_L1D AVERAGE MISS LATENCY: 173.737 cycles
cpu0_L2C TOTAL     ACCESS:   33038388  HIT:   18565215  MISS:   14473173
cpu0_L2C LOAD      ACCESS:   19830934  HIT:    5366060  MISS:   14464874
cpu0_L2C RFO       ACCESS:      19716  HIT:      14765  MISS:       4951
cpu0_L2C PREFETCH  ACCESS:          0  HIT:          0  MISS:          0
cpu0_L2C WRITEBACK ACCESS:   13180781  HIT:   13180781  MISS:          0
cpu0_L2C TRANSLATION ACCESS:       6957  HIT:       3609  MISS:       3348
cpu0_L2C PREFETCH  REQUESTED:          0  ISSUED:          0  USEFUL:          0  USELESS:          0
cpu0_L2C AVERAGE MISS LATENCY: 223.274 cycles
LLC TOTAL     ACCESS:   27626648  HIT:    1405838  MISS:   26220810
LLC LOAD      ACCESS:   14464874  HIT:    1312227  MISS:   13152647
LLC RFO       ACCESS:       4951  HIT:       4950  MISS:          1
LLC PREFETCH  ACCESS:          0  HIT:          0  MISS:          0
LLC WRITEBACK ACCESS:   13153475  HIT:      88269  MISS:   13065206
LLC TRANSLATION ACCESS:       3348  HIT:        392  MISS:       2956
LLC PREFETCH  REQUESTED:          0  ISSUED:          0  USEFUL:          0  USELESS:          0
LLC AVERAGE MISS LATENCY: 111.65 cycles
~~~~~~~~~~Reuse Distance Profiler output~~~~~~~~~~
0	60471616	6010768
1	18453104	12239264
2	42796752	21558464
3	31540752	22879168
4	34870992	26502368
5	25415408	24261584
6	20568224	18691952
7	19179072	19054320
8	11371184	11307360
9	4329632	4227536
10	7220288	7121120
11	5395296	5345184
12	5214016	5152512
13	1783008	1738672
14	734560	694672
15	669136	577872
16	418832	306896
17	2835024	2045264
18	3888496	1937552
19	159392	76048
20	39968	21952
21	80688	52800
22	178096	27872
23	102176	52112
24	613904	558288
25	549200	16400
26	1940192	63504
27	462352	460928
28	39984	38800
29	65872	62656
30	15536	5888
31	92240	21088
32	1241984	1211104
33	50160	7376
34	179904	1888
35	4304	576
36	44944	40992
37	13536	992
38	2016	448
39	10192	7952
40	4432	288
41	2608	224
42	10144	9168
43	5712	1856
44	3472	1408
45	592	112
46	320	64
47	928	560
48	720	32
49	2272	32
50	256	16
51	512	0
52	288	0
53	272	0
54	304	0
55	144	0
56	144	0
57	80	0
58	48	0
59	48	0
60	48	0
61	32	0
62	0	0
63	0	0
64	0	0
66	0	0
68	0	0
70	0	0
72	0	0
74	0	0
76	0	0
78	0	0
80	0	0
82	32	0
84	48	0
86	80	0
88	224	0
90	288	0
92	128	0
94	240	0
96	240	0
98	352	0
100	352	0
102	368	0
104	240	0
106	208	0
108	80	0
110	48	0
112	16	0
114	0	0
116	0	0
118	0	0
120	0	0
122	0	0
124	0	0
126	0	0
128	0	0
132	0	0
136	0	0
140	0	0
144	0	0
148	0	0
152	0	0
156	0	0
160	0	0
164	0	0
168	0	0
172	0	0
176	0	0
180	0	0
184	0	0
188	0	0
192	0	0
196	0	0
200	0	0
204	0	0
208	0	0
212	0	0
216	0	0
220	0	0
224	0	0
228	0	0
232	0	0
236	0	0
240	0	0
244	0	0
248	0	0
252	0	0
256	0	0
264	0	0
272	0	0
280	0	0
288	0	0
296	0	0
304	0	0
312	0	0
320	0	0
328	0	0
336	0	0
344	0	0
352	0	0
360	0	0
368	0	0
376	0	0
384	0	0
392	0	0
400	0	0
408	0	0
416	0	0
424	0	0
432	0	0
440	0	0
448	0	0
456	0	0
464	0	0
472	0	0
480	0	0
488	0	0
496	0	0
504	0	0
512	0	0
528	0	0
544	0	0
560	0	0
576	0	0
592	0	0
608	0	0
624	0	0
640	0	0
656	0	0
672	0	0
688	0	0
704	0	0
720	0	0
736	0	0
752	0	0
768	0	0
784	0	0
800	0	0
816	0	0
832	0	0
848	0	0
864	0	0
880	0	0
896	0	0
912	0	0
928	0	0
944	0	0
960	0	0
976	0	0
992	0	0
1008	0	0
1024	0	0
1056	0	0
1088	0	0
1120	0	0
1152	0	0
1184	0	0
1216	0	0
1248	0	0
1280	0	0
1312	0	0
1344	0	0
1376	0	0
1408	0	0
1440	0	0
1472	0	0
1504	0	0
1536	0	0
1568	0	0
1600	0	0
1632	0	0
1664	0	0
1696	0	0
1728	0	0
1760	0	0
1792	0	0
1824	0	0
1856	0	0
1888	0	0
1920	0	0
1952	0	0
1984	0	0
2016	0	0
2048	0	0
2112	0	0
2176	0	0
2240	0	0
2304	0	0
2368	0	0
2432	0	0
2496	0	0
2560	0	0
2624	0	0
2688	0	0
2752	0	0
2816	0	0
2880	0	0
2944	0	0
3008	0	0
3072	0	0
3136	0	0
3200	0	0
3264	0	0
3328	0	0
3392	0	0
3456	0	0
3520	0	0
3584	0	0
3648	0	0
3712	0	0
3776	0	0
3840	0	0
3904	0	0
3968	0	0
4032	0	0
4096	0	0
4224	0	0
4352	0	0
4480	0	0
4608	0	0
4736	0	0
4864	0	0
4992	0	0
5120	0	0
5248	0	0
5376	0	0
5504	0	0
5632	0	0
5760	0	0
5888	0	0
6016	0	0
6144	0	0
6272	0	0
6400	0	0
6528	0	0
6656	0	0
6784	0	0
6912	0	0
7040	0	0
7168	0	0
7296	0	0
7424	0	0
7552	0	0
7680	0	0
7808	0	0
7936	0	0
8064	0	0
8192	0	0
8448	0	0
8704	0	0
8960	0	0
9216	0	0
9472	0	0
9728	0	0
9984	0	0
10240	0	0
10496	0	0
10752	0	0
11008	0	0
11264	0	0
11520	0	0
11776	0	0
12032	0	0
12288	0	0
12544	0	0
12800	0	0
13056	0	0
13312	0	0
13568	0	0
13824	0	0
14080	0	0
14336	0	0
14592	0	0
14848	0	0
15104	0	0
15360	0	0
15616	0	0
15872	0	0
16128	0	0
16384	0	0
16896	0	0
17408	0	0
17920	0	0
18432	0	0
18944	0	0
19456	0	0
19968	0	0
20480	0	0
20992	0	0
21504	0	0
22016	0	0
22528	0	0
23040	0	0
23552	0	0
24064	0	0
24576	0	0
25088	0	0
25600	0	0
26112	0	0
26624	0	0
27136	0	0
27648	0	0
28160	0	0
28672	0	0
29184	0	0
29696	0	0
30208	0	0
30720	0	0
31232	0	0
31744	0	0
32256	0	0
32768	0	0
33792	0	0
34816	0	0
35840	0	0
36864	0	0
37888	0	0
38912	0	0
39936	0	0
40960	0	0
41984	0	0
43008	0	0
44032	0	0
45056	1472	1360
46080	25584	23680
47104	16704	15248
48128	1664	1520
49152	0	0
50176	0	0
51200	0	0
52224	0	0
53248	0	0
54272	0	0
55296	0	0
56320	0	0
57344	0	0
58368	0	0
59392	16	16
60416	0	0
61440	0	0
62464	0	0
63488	0	0
64512	0	0
65536	0	0
67584	800	736
69632	848	800
71680	16	16
73728	0	0
75776	0	0
77824	0	0
79872	0	0
81920	0	0
83968	0	0
86016	0	0
88064	0	0
90112	2880	2864
92160	4647776	4639136
94208	2008048	2000656
96256	160	160
98304	48	48
100352	112	112
102400	80	80
104448	144	144
106496	96	96
108544	96	96
110592	160	160
112640	32	32
114688	112	112
116736	64	64
118784	16	16
120832	96	96
122880	32	32
124928	112	112
126976	112	112
129024	80	80
131072	144	144
135168	94240	93920
139264	126432	126224
143360	0	0
147456	0	0
151552	0	0
155648	0	0
159744	0	0
163840	0	0
167936	0	0
172032	0	0
176128	0	0
180224	0	0
184320	0	0
188416	0	0
192512	0	0
196608	0	0
200704	0	0
204800	0	0
208896	0	0
212992	0	0
217088	0	0
221184	0	0
225280	0	0
229376	0	0
233472	0	0
237568	0	0
241664	0	0
245760	0	0
249856	0	0
253952	0	0
258048	0	0
262144	0	0
270336	0	0
278528	0	0
286720	0	0
294912	0	0
303104	0	0
311296	0	0
319488	0	0
327680	0	0
335872	0	0
344064	0	0
352256	0	0
360448	0	0
368640	0	0
376832	0	0
385024	0	0
393216	0	0
401408	0	0
409600	0	0
417792	0	0
425984	0	0
434176	0	0
442368	0	0
450560	0	0
458752	0	0
466944	0	0
475136	0	0
483328	0	0
491520	0	0
499712	0	0
507904	0	0
516096	0	0
524288	0	0
540672	0	0
557056	0	0
573440	0	0
589824	0	0
606208	0	0
622592	0	0
638976	0	0
655360	0	0
671744	0	0
688128	0	0
704512	0	0
720896	0	0
737280	0	0
753664	0	0
770048	0	0
786432	0	0
802816	0	0
819200	0	0
835584	0	0
851968	0	0
868352	0	0
884736	0	0
901120	0	0
917504	0	0
933888	0	0
950272	0	0
966656	0	0
983040	0	0
999424	0	0
1015808	0	0
1032192	0	0
1048576	0	0
1081344	0	0
1114112	0	0
1146880	0	0
1179648	0	0
1212416	0	0
1245184	0	0
1277952	0	0
1310720	0	0
1343488	0	0
1376256	0	0
1409024	0	0
1441792	0	0
1474560	0	0
1507328	0	0
1540096	0	0
1572864	0	0
1605632	0	0
1638400	0	0
1671168	0	0
1703936	0	0
1736704	0	0
1769472	0	0
1802240	0	0
1835008	0	0
1867776	0	0
1900544	0	0
1933312	0	0
1966080	0	0
1998848	0	0
2031616	0	0
2064384	0	0
2097152	0	0
2162688	0	0
2228224	0	0
2293760	0	0
2359296	0	0
2424832	0	0
2490368	0	0
2555904	0	0
2621440	0	0
2686976	0	0
2752512	0	0
2818048	0	0
2883584	0	0
2949120	0	0
3014656	0	0
3080192	0	0
3145728	0	0
3211264	0	0
3276800	0	0
3342336	0	0
3407872	0	0
3473408	0	0
3538944	0	0
3604480	0	0
3670016	0	0
3735552	0	0
3801088	800	800
3866624	0	0
3932160	64	64
3997696	144	144
4063232	0	0
4128768	16	16
4194304	32	32
4325376	112	112
4456448	48	48
4587520	0	0
4718592	0	0
4849664	0	0
4980736	0	0
5111808	0	0
5242880	0	0
5373952	0	0
5505024	16	16
5636096	0	0
5767168	0	0
5898240	0	0
6029312	0	0
6160384	0	0
6291456	0	0
6422528	0	0
6553600	0	0
6684672	0	0
6815744	0	0
6946816	0	0
7077888	0	0
7208960	0	0
7340032	0	0
7471104	0	0
7602176	0	0
7733248	0	0
7864320	0	0
7995392	0	0
8126464	0	0
8257536	0	0
8388608	0	0
8650752	0	0
8912896	0	0
9175040	0	0
9437184	0	0
9699328	0	0
9961472	0	0
10223616	0	0
10485760	0	0
10747904	0	0
11010048	0	0
11272192	0	0
11534336	0	0
11796480	0	0
12058624	0	0
12320768	0	0
12582912	0	0
12845056	0	0
13107200	0	0
13369344	0	0
13631488	0	0
13893632	0	0
14155776	0	0
14417920	0	0
14680064	0	0
14942208	0	0
15204352	0	0
15466496	0	0
15728640	0	0
15990784	0	0
16252928	0	0
16515072	0	0
16777216	0	0
17301504	0	0
17825792	0	0
18350080	0	0
18874368	0	0
19398656	0	0
19922944	0	0
20447232	0	0
20971520	0	0
21495808	0	0
22020096	0	0
22544384	0	0
23068672	0	0
23592960	0	0
24117248	0	0
24641536	0	0
25165824	0	0
25690112	0	0
26214400	0	0
26738688	0	0
27262976	0	0
27787264	0	0
28311552	0	0
28835840	0	0
29360128	0	0
29884416	0	0
30408704	0	0
30932992	0	0
31457280	0	0
31981568	0	0
32505856	0	0
33030144	0	0
33554432	0	0
34603008	0	0
35651584	0	0
36700160	0	0
37748736	0	0
38797312	0	0
39845888	0	0
40894464	0	0
41943040	0	0
42991616	0	0
44040192	0	0
45088768	0	0
46137344	0	0
47185920	0	0
48234496	0	0
49283072	0	0
50331648	0	0
51380224	0	0
52428800	0	0
53477376	0	0
54525952	0	0
55574528	0	0
56623104	0	0
57671680	0	0
58720256	0	0
59768832	0	0
60817408	0	0
61865984	0	0
62914560	0	0
63963136	0	0
65011712	0	0
66060288	0	0
67108864	0	0
69206016	0	0
71303168	0	0
73400320	0	0
75497472	0	0
77594624	0	0
79691776	0	0
81788928	0	0
83886080	0	0
85983232	0	0
88080384	0	0
90177536	0	0
92274688	0	0
94371840	0	0
96468992	0	0
98566144	0	0
100663296	0	0
102760448	0	0
104857600	0	0
106954752	0	0
109051904	0	0
111149056	0	0
113246208	0	0
115343360	0	0
117440512	0	0
119537664	0	0
121634816	0	0
123731968	0	0
125829120	0	0
127926272	0	0
130023424	0	0
132120576	0	0
134217728	0	0
138412032	0	0
142606336	0	0
146800640	0	0
150994944	0	0
155189248	0	0
159383552	0	0
163577856	0	0
167772160	0	0
171966464	0	0
176160768	0	0
180355072	0	0
184549376	0	0
188743680	0	0
192937984	0	0
197132288	0	0
201326592	0	0
205520896	0	0
209715200	0	0
213909504	0	0
218103808	0	0
222298112	0	0
226492416	0	0
230686720	0	0
234881024	0	0
239075328	0	0
243269632	0	0
247463936	0	0
251658240	0	0
255852544	0	0
260046848	0	0
264241152	0	0
268435456	0	0
276824064	0	0
285212672	0	0
293601280	0	0
301989888	0	0
310378496	0	0
318767104	0	0
327155712	0	0
335544320	0	0
343932928	0	0
352321536	0	0
360710144	0	0
369098752	0	0
377487360	0	0
385875968	0	0
394264576	0	0
402653184	0	0
411041792	0	0
419430400	0	0
427819008	0	0
436207616	0	0
444596224	0	0
452984832	0	0
461373440	0	0
469762048	0	0
478150656	0	0
486539264	0	0
494927872	0	0
503316480	0	0
511705088	0	0
520093696	0	0
528482304	0	0
536870912	0	0
553648128	0	0
570425344	0	0
587202560	0	0
603979776	0	0
620756992	0	0
637534208	0	0
654311424	0	0
671088640	0	0
687865856	0	0
704643072	0	0
721420288	0	0
738197504	0	0
754974720	0	0
771751936	0	0
788529152	0	0
805306368	0	0
822083584	0	0
838860800	0	0
855638016	0	0
872415232	0	0
889192448	0	0
905969664	0	0
922746880	0	0
939524096	0	0
956301312	0	0
973078528	0	0
989855744	0	0
1006632960	0	0
1023410176	0	0
1040187392	0	0
1056964608	0	0
1073741824	0	0
1107296256	0	0
1140850688	0	0
1174405120	0	0
1207959552	0	0
1241513984	0	0
1275068416	0	0
1308622848	0	0
1342177280	0	0
1375731712	0	0
1409286144	0	0
1442840576	0	0
1476395008	0	0
1509949440	0	0
1543503872	0	0
1577058304	0	0
1610612736	0	0
1644167168	0	0
1677721600	0	0
1711276032	0	0
1744830464	0	0
1778384896	0	0
1811939328	0	0
1845493760	0	0
1879048192	0	0
1912602624	0	0
1946157056	0	0
1979711488	0	0
2013265920	0	0
2046820352	0	0
2080374784	0	0
2113929216	0	0
2147483648	0	0
2214592512	0	0
2281701376	0	0
2348810240	0	0
2415919104	0	0
2483027968	0	0
2550136832	0	0
2617245696	0	0
2684354560	0	0
2751463424	0	0
2818572288	0	0
2885681152	0	0
2952790016	0	0
3019898880	0	0
3087007744	0	0
3154116608	0	0
3221225472	0	0
3288334336	0	0
3355443200	0	0
3422552064	0	0
3489660928	0	0
3556769792	0	0
3623878656	0	0
3690987520	0	0
3758096384	0	0
3825205248	0	0
3892314112	0	0
3959422976	0	0
4026531840	0	0
4093640704	0	0
4160749568	0	0
4227858432	0	0
~~~~~~~~~~Reuse Distance Profiler output end~~~~~~~~~~

Sampler size:849013

DRAM Statistics
 CHANNEL 0
 RQ ROW_BUFFER_HIT:     447756  ROW_BUFFER_MISS:   12707848
 DBUS AVG_CONGESTED_CYCLE:    3.98529
 WQ ROW_BUFFER_HIT:    1898316  ROW_BUFFER_MISS:   11250682  FULL:         82


CPU 0 Branch Prediction Accuracy: 99.9501% MPKI: 0.00876267 Average ROB Occupancy at Mispredict: 341.113
Branch type MPKI
BRANCH_DIRECT_JUMP: 0
BRANCH_INDIRECT: 0
BRANCH_CONDITIONAL: 0.00876267
BRANCH_DIRECT_CALL: 0
BRANCH_INDIRECT_CALL: 0
BRANCH_RETURN: 0

