
*** ChampSim Multicore Out-of-Order Simulator ***

Warmup Instructions: 50000000
Simulation Instructions: 1500000000
Number of CPUs: 1
Off-chip DRAM Size: 4 GiB Channels: 1 Width: 64-bit Data Rate: 3200 MT/s

VirtualMemory physical capacity: 8588881920 num_ppages: 2096895
VirtualMemory page size: 4096 log2_page_size: 12

CPU 0 runs /s/traces/champsim_traces/654.roms_s-1021B.champsimtrace.xz
CPU 0 Bimodal branch predictor
Basic BTB sets: 1024 ways: 8 indirect buffer size: 4096 RAS size: 64
Initializing LRU.
Initializing LRU.
Initializing LRU.
Initializing LRU.
Initializing rdLRU.
Initializing LRU.
Initializing mockingjay of size: 4096
Heartbeat CPU 0 instructions: 2000003 cycles: 500074 heartbeat IPC: 3.99941 cumulative IPC: 3.99941 (Simulation time: 0 hr 0 min 24 sec) 
Heartbeat CPU 0 instructions: 4000003 cycles: 1000074 heartbeat IPC: 4 cumulative IPC: 3.99971 (Simulation time: 0 hr 1 min 24 sec) 
Heartbeat CPU 0 instructions: 6000003 cycles: 1500074 heartbeat IPC: 4 cumulative IPC: 3.9998 (Simulation time: 0 hr 2 min 24 sec) 
Heartbeat CPU 0 instructions: 8000003 cycles: 2000074 heartbeat IPC: 4 cumulative IPC: 3.99985 (Simulation time: 0 hr 3 min 24 sec) 
Heartbeat CPU 0 instructions: 10000003 cycles: 2500074 heartbeat IPC: 4 cumulative IPC: 3.99988 (Simulation time: 0 hr 4 min 24 sec) 
Heartbeat CPU 0 instructions: 12000003 cycles: 3000074 heartbeat IPC: 4 cumulative IPC: 3.9999 (Simulation time: 0 hr 5 min 24 sec) 
Heartbeat CPU 0 instructions: 14000003 cycles: 3500074 heartbeat IPC: 4 cumulative IPC: 3.99992 (Simulation time: 0 hr 6 min 21 sec) 
Heartbeat CPU 0 instructions: 16000003 cycles: 4000074 heartbeat IPC: 4 cumulative IPC: 3.99993 (Simulation time: 0 hr 7 min 19 sec) 
Heartbeat CPU 0 instructions: 18000003 cycles: 4500074 heartbeat IPC: 4 cumulative IPC: 3.99993 (Simulation time: 0 hr 8 min 15 sec) 
Heartbeat CPU 0 instructions: 20000003 cycles: 5000074 heartbeat IPC: 4 cumulative IPC: 3.99994 (Simulation time: 0 hr 9 min 12 sec) 
Heartbeat CPU 0 instructions: 22000003 cycles: 5500074 heartbeat IPC: 4 cumulative IPC: 3.99995 (Simulation time: 0 hr 10 min 12 sec) 
Heartbeat CPU 0 instructions: 24000003 cycles: 6000074 heartbeat IPC: 4 cumulative IPC: 3.99995 (Simulation time: 0 hr 11 min 9 sec) 
Heartbeat CPU 0 instructions: 26000003 cycles: 6500074 heartbeat IPC: 4 cumulative IPC: 3.99995 (Simulation time: 0 hr 12 min 5 sec) 
Heartbeat CPU 0 instructions: 28000003 cycles: 7000074 heartbeat IPC: 4 cumulative IPC: 3.99996 (Simulation time: 0 hr 13 min 1 sec) 
Heartbeat CPU 0 instructions: 30000003 cycles: 7500074 heartbeat IPC: 4 cumulative IPC: 3.99996 (Simulation time: 0 hr 14 min 1 sec) 
Heartbeat CPU 0 instructions: 32000003 cycles: 8000074 heartbeat IPC: 4 cumulative IPC: 3.99996 (Simulation time: 0 hr 14 min 57 sec) 
Heartbeat CPU 0 instructions: 34000003 cycles: 8500074 heartbeat IPC: 4 cumulative IPC: 3.99997 (Simulation time: 0 hr 15 min 54 sec) 
Heartbeat CPU 0 instructions: 36000003 cycles: 9000074 heartbeat IPC: 4 cumulative IPC: 3.99997 (Simulation time: 0 hr 16 min 54 sec) 
Heartbeat CPU 0 instructions: 38000003 cycles: 9500074 heartbeat IPC: 4 cumulative IPC: 3.99997 (Simulation time: 0 hr 17 min 53 sec) 
Heartbeat CPU 0 instructions: 40000003 cycles: 10000074 heartbeat IPC: 4 cumulative IPC: 3.99997 (Simulation time: 0 hr 18 min 49 sec) 
Heartbeat CPU 0 instructions: 42000003 cycles: 10500074 heartbeat IPC: 4 cumulative IPC: 3.99997 (Simulation time: 0 hr 19 min 47 sec) 
Heartbeat CPU 0 instructions: 44000003 cycles: 11000074 heartbeat IPC: 4 cumulative IPC: 3.99997 (Simulation time: 0 hr 20 min 46 sec) 
Heartbeat CPU 0 instructions: 46000003 cycles: 11500074 heartbeat IPC: 4 cumulative IPC: 3.99997 (Simulation time: 0 hr 21 min 43 sec) 
Heartbeat CPU 0 instructions: 48000003 cycles: 12000074 heartbeat IPC: 4 cumulative IPC: 3.99998 (Simulation time: 0 hr 22 min 38 sec) 
Heartbeat CPU 0 instructions: 50000003 cycles: 12500074 heartbeat IPC: 4 cumulative IPC: 3.99998 (Simulation time: 0 hr 23 min 35 sec) 

Warmup complete CPU 0 instructions: 50000003 cycles: 12500074 (Simulation time: 0 hr 23 min 35 sec) 

Heartbeat CPU 0 instructions: 52000001 cycles: 14051454 heartbeat IPC: 1.28917 cumulative IPC: 1.28917 (Simulation time: 0 hr 24 min 27 sec) 

Region of Interest Statistics
cpu0_DTLB TOTAL     ACCESS:     288368  HIT:     287827  MISS:        541
cpu0_DTLB LOAD      ACCESS:     213823  HIT:     213340  MISS:        483
cpu0_DTLB RFO       ACCESS:      74545  HIT:      74487  MISS:         58
cpu0_DTLB PREFETCH  ACCESS:          0  HIT:          0  MISS:          0
cpu0_DTLB WRITEBACK ACCESS:          0  HIT:          0  MISS:          0
cpu0_ITLB TOTAL     ACCESS:     225724  HIT:     225724  MISS:          0
cpu0_ITLB LOAD      ACCESS:     225724  HIT:     225724  MISS:          0
cpu0_ITLB RFO       ACCESS:          0  HIT:          0  MISS:          0
cpu0_ITLB PREFETCH  ACCESS:          0  HIT:          0  MISS:          0
cpu0_ITLB WRITEBACK ACCESS:          0  HIT:          0  MISS:          0
cpu0_L1I TOTAL     ACCESS:      22806  HIT:      22806  MISS:          0
cpu0_L1I LOAD      ACCESS:      22806  HIT:      22806  MISS:          0
cpu0_L1I RFO       ACCESS:          0  HIT:          0  MISS:          0
cpu0_L1I PREFETCH  ACCESS:          0  HIT:          0  MISS:          0
cpu0_L1I WRITEBACK ACCESS:          0  HIT:          0  MISS:          0
cpu0_STLB TOTAL     ACCESS:        541  HIT:        541  MISS:          0
cpu0_STLB LOAD      ACCESS:        483  HIT:        483  MISS:          0
cpu0_STLB RFO       ACCESS:         58  HIT:         58  MISS:          0
cpu0_STLB PREFETCH  ACCESS:          0  HIT:          0  MISS:          0
cpu0_STLB WRITEBACK ACCESS:          0  HIT:          0  MISS:          0
cpu0_L1D TOTAL     ACCESS:     383540  HIT:     383436  MISS:        104
cpu0_L1D LOAD      ACCESS:     247903  HIT:     247810  MISS:         93
cpu0_L1D RFO       ACCESS:     135637  HIT:     135626  MISS:         11
cpu0_L1D PREFETCH  ACCESS:          0  HIT:          0  MISS:          0
cpu0_L1D WRITEBACK ACCESS:          0  HIT:          0  MISS:          0
cpu0_L2C TOTAL     ACCESS:        114  HIT:         32  MISS:         82
cpu0_L2C LOAD      ACCESS:         93  HIT:         19  MISS:         74
cpu0_L2C RFO       ACCESS:         11  HIT:          3  MISS:          8
cpu0_L2C PREFETCH  ACCESS:          0  HIT:          0  MISS:          0
cpu0_L2C WRITEBACK ACCESS:         10  HIT:         10  MISS:          0
LLC TOTAL     ACCESS:         82  HIT:          0  MISS:         82
LLC LOAD      ACCESS:         74  HIT:          0  MISS:         74
LLC RFO       ACCESS:          8  HIT:          0  MISS:          8
LLC PREFETCH  ACCESS:          0  HIT:          0  MISS:          0
LLC WRITEBACK ACCESS:          0  HIT:          0  MISS:          0
Heartbeat CPU 0 instructions: 54000000 cycles: 15600841 heartbeat IPC: 1.29083 cumulative IPC: 1.29 (Simulation time: 0 hr 25 min 20 sec) 

Region of Interest Statistics
cpu0_DTLB TOTAL     ACCESS:     576809  HIT:     575727  MISS:       1082
cpu0_DTLB LOAD      ACCESS:     427701  HIT:     426735  MISS:        966
cpu0_DTLB RFO       ACCESS:     149108  HIT:     148992  MISS:        116
cpu0_DTLB PREFETCH  ACCESS:          0  HIT:          0  MISS:          0
cpu0_DTLB WRITEBACK ACCESS:          0  HIT:          0  MISS:          0
cpu0_ITLB TOTAL     ACCESS:     451489  HIT:     451489  MISS:          0
cpu0_ITLB LOAD      ACCESS:     451489  HIT:     451489  MISS:          0
cpu0_ITLB RFO       ACCESS:          0  HIT:          0  MISS:          0
cpu0_ITLB PREFETCH  ACCESS:          0  HIT:          0  MISS:          0
cpu0_ITLB WRITEBACK ACCESS:          0  HIT:          0  MISS:          0
cpu0_L1I TOTAL     ACCESS:      45641  HIT:      45641  MISS:          0
cpu0_L1I LOAD      ACCESS:      45641  HIT:      45641  MISS:          0
cpu0_L1I RFO       ACCESS:          0  HIT:          0  MISS:          0
cpu0_L1I PREFETCH  ACCESS:          0  HIT:          0  MISS:          0
cpu0_L1I WRITEBACK ACCESS:          0  HIT:          0  MISS:          0
cpu0_STLB TOTAL     ACCESS:       1082  HIT:       1082  MISS:          0
cpu0_STLB LOAD      ACCESS:        966  HIT:        966  MISS:          0
cpu0_STLB RFO       ACCESS:        116  HIT:        116  MISS:          0
cpu0_STLB PREFETCH  ACCESS:          0  HIT:          0  MISS:          0
cpu0_STLB WRITEBACK ACCESS:          0  HIT:          0  MISS:          0
cpu0_L1D TOTAL     ACCESS:     767131  HIT:     766956  MISS:        175
cpu0_L1D LOAD      ACCESS:     495829  HIT:     495672  MISS:        157
cpu0_L1D RFO       ACCESS:     271302  HIT:     271284  MISS:         18
cpu0_L1D PREFETCH  ACCESS:          0  HIT:          0  MISS:          0
cpu0_L1D WRITEBACK ACCESS:          0  HIT:          0  MISS:          0
cpu0_L2C TOTAL     ACCESS:        189  HIT:         67  MISS:        122
cpu0_L2C LOAD      ACCESS:        157  HIT:         46  MISS:        111
cpu0_L2C RFO       ACCESS:         18  HIT:          7  MISS:         11
cpu0_L2C PREFETCH  ACCESS:          0  HIT:          0  MISS:          0
cpu0_L2C WRITEBACK ACCESS:         14  HIT:         14  MISS:          0
LLC TOTAL     ACCESS:        122  HIT:          0  MISS:        122
LLC LOAD      ACCESS:        111  HIT:          0  MISS:        111
LLC RFO       ACCESS:         11  HIT:          0  MISS:         11
LLC PREFETCH  ACCESS:          0  HIT:          0  MISS:          0
LLC WRITEBACK ACCESS:          0  HIT:          0  MISS:          0
Heartbeat CPU 0 instructions: 56000001 cycles: 17154982 heartbeat IPC: 1.28689 cumulative IPC: 1.28896 (Simulation time: 0 hr 26 min 13 sec) 

Region of Interest Statistics
cpu0_DTLB TOTAL     ACCESS:     865231  HIT:     863608  MISS:       1623
cpu0_DTLB LOAD      ACCESS:     641538  HIT:     640089  MISS:       1449
cpu0_DTLB RFO       ACCESS:     223693  HIT:     223519  MISS:        174
cpu0_DTLB PREFETCH  ACCESS:          0  HIT:          0  MISS:          0
cpu0_DTLB WRITEBACK ACCESS:          0  HIT:          0  MISS:          0
cpu0_ITLB TOTAL     ACCESS:     677246  HIT:     677246  MISS:          0
cpu0_ITLB LOAD      ACCESS:     677246  HIT:     677246  MISS:          0
cpu0_ITLB RFO       ACCESS:          0  HIT:          0  MISS:          0
cpu0_ITLB PREFETCH  ACCESS:          0  HIT:          0  MISS:          0
cpu0_ITLB WRITEBACK ACCESS:          0  HIT:          0  MISS:          0
cpu0_L1I TOTAL     ACCESS:      68490  HIT:      68490  MISS:          0
cpu0_L1I LOAD      ACCESS:      68490  HIT:      68490  MISS:          0
cpu0_L1I RFO       ACCESS:          0  HIT:          0  MISS:          0
cpu0_L1I PREFETCH  ACCESS:          0  HIT:          0  MISS:          0
cpu0_L1I WRITEBACK ACCESS:          0  HIT:          0  MISS:          0
cpu0_STLB TOTAL     ACCESS:       1623  HIT:       1622  MISS:          1
cpu0_STLB LOAD      ACCESS:       1449  HIT:       1448  MISS:          1
cpu0_STLB RFO       ACCESS:        174  HIT:        174  MISS:          0
cpu0_STLB PREFETCH  ACCESS:          0  HIT:          0  MISS:          0
cpu0_STLB WRITEBACK ACCESS:          0  HIT:          0  MISS:          0
cpu0_L1D TOTAL     ACCESS:    1150706  HIT:    1150393  MISS:        313
cpu0_L1D LOAD      ACCESS:     743698  HIT:     743416  MISS:        282
cpu0_L1D RFO       ACCESS:     407007  HIT:     406977  MISS:         30
cpu0_L1D PREFETCH  ACCESS:          0  HIT:          0  MISS:          0
cpu0_L1D WRITEBACK ACCESS:          0  HIT:          0  MISS:          0
cpu0_L2C TOTAL     ACCESS:        339  HIT:        122  MISS:        217
cpu0_L2C LOAD      ACCESS:        282  HIT:         84  MISS:        198
cpu0_L2C RFO       ACCESS:         30  HIT:         11  MISS:         19
cpu0_L2C PREFETCH  ACCESS:          0  HIT:          0  MISS:          0
cpu0_L2C WRITEBACK ACCESS:         26  HIT:         26  MISS:          0
LLC TOTAL     ACCESS:        217  HIT:          0  MISS:        217
LLC LOAD      ACCESS:        198  HIT:          0  MISS:        198
LLC RFO       ACCESS:         19  HIT:          0  MISS:         19
LLC PREFETCH  ACCESS:          0  HIT:          0  MISS:          0
LLC WRITEBACK ACCESS:          0  HIT:          0  MISS:          0
Heartbeat CPU 0 instructions: 58000002 cycles: 18703742 heartbeat IPC: 1.29136 cumulative IPC: 1.28956 (Simulation time: 0 hr 27 min 6 sec) 

Region of Interest Statistics
cpu0_DTLB TOTAL     ACCESS:    1153635  HIT:    1151470  MISS:       2165
cpu0_DTLB LOAD      ACCESS:     855372  HIT:     853439  MISS:       1933
cpu0_DTLB RFO       ACCESS:     298263  HIT:     298031  MISS:        232
cpu0_DTLB PREFETCH  ACCESS:          0  HIT:          0  MISS:          0
cpu0_DTLB WRITEBACK ACCESS:          0  HIT:          0  MISS:          0
cpu0_ITLB TOTAL     ACCESS:     902999  HIT:     902999  MISS:          0
cpu0_ITLB LOAD      ACCESS:     902999  HIT:     902999  MISS:          0
cpu0_ITLB RFO       ACCESS:          0  HIT:          0  MISS:          0
cpu0_ITLB PREFETCH  ACCESS:          0  HIT:          0  MISS:          0
cpu0_ITLB WRITEBACK ACCESS:          0  HIT:          0  MISS:          0
cpu0_L1I TOTAL     ACCESS:      91334  HIT:      91334  MISS:          0
cpu0_L1I LOAD      ACCESS:      91334  HIT:      91334  MISS:          0
cpu0_L1I RFO       ACCESS:          0  HIT:          0  MISS:          0
cpu0_L1I PREFETCH  ACCESS:          0  HIT:          0  MISS:          0
cpu0_L1I WRITEBACK ACCESS:          0  HIT:          0  MISS:          0
cpu0_STLB TOTAL     ACCESS:       2165  HIT:       2163  MISS:          2
cpu0_STLB LOAD      ACCESS:       1933  HIT:       1931  MISS:          2
cpu0_STLB RFO       ACCESS:        232  HIT:        232  MISS:          0
cpu0_STLB PREFETCH  ACCESS:          0  HIT:          0  MISS:          0
cpu0_STLB WRITEBACK ACCESS:          0  HIT:          0  MISS:          0
cpu0_L1D TOTAL     ACCESS:    1534302  HIT:    1533894  MISS:        408
cpu0_L1D LOAD      ACCESS:     991628  HIT:     991261  MISS:        367
cpu0_L1D RFO       ACCESS:     542672  HIT:     542633  MISS:         39
cpu0_L1D PREFETCH  ACCESS:          0  HIT:          0  MISS:          0
cpu0_L1D WRITEBACK ACCESS:          0  HIT:          0  MISS:          0
cpu0_L2C TOTAL     ACCESS:        442  HIT:        188  MISS:        254
cpu0_L2C LOAD      ACCESS:        367  HIT:        135  MISS:        232
cpu0_L2C RFO       ACCESS:         39  HIT:         17  MISS:         22
cpu0_L2C PREFETCH  ACCESS:          0  HIT:          0  MISS:          0
cpu0_L2C WRITEBACK ACCESS:         34  HIT:         34  MISS:          0
LLC TOTAL     ACCESS:        254  HIT:          0  MISS:        254
LLC LOAD      ACCESS:        232  HIT:          0  MISS:        232
LLC RFO       ACCESS:         22  HIT:          0  MISS:         22
LLC PREFETCH  ACCESS:          0  HIT:          0  MISS:          0
LLC WRITEBACK ACCESS:          0  HIT:          0  MISS:          0
Heartbeat CPU 0 instructions: 60000001 cycles: 20254602 heartbeat IPC: 1.28961 cumulative IPC: 1.28957 (Simulation time: 0 hr 28 min 0 sec) 

Region of Interest Statistics
cpu0_DTLB TOTAL     ACCESS:    1441977  HIT:    1439271  MISS:       2706
cpu0_DTLB LOAD      ACCESS:    1069163  HIT:    1066747  MISS:       2416
cpu0_DTLB RFO       ACCESS:     372814  HIT:     372524  MISS:        290
cpu0_DTLB PREFETCH  ACCESS:          0  HIT:          0  MISS:          0
cpu0_DTLB WRITEBACK ACCESS:          0  HIT:          0  MISS:          0
cpu0_ITLB TOTAL     ACCESS:    1128759  HIT:    1128759  MISS:          0
cpu0_ITLB LOAD      ACCESS:    1128759  HIT:    1128759  MISS:          0
cpu0_ITLB RFO       ACCESS:          0  HIT:          0  MISS:          0
cpu0_ITLB PREFETCH  ACCESS:          0  HIT:          0  MISS:          0
cpu0_ITLB WRITEBACK ACCESS:          0  HIT:          0  MISS:          0
cpu0_L1I TOTAL     ACCESS:     114192  HIT:     114192  MISS:          0
cpu0_L1I LOAD      ACCESS:     114192  HIT:     114192  MISS:          0
cpu0_L1I RFO       ACCESS:          0  HIT:          0  MISS:          0
cpu0_L1I PREFETCH  ACCESS:          0  HIT:          0  MISS:          0
cpu0_L1I WRITEBACK ACCESS:          0  HIT:          0  MISS:          0
cpu0_STLB TOTAL     ACCESS:       2706  HIT:       2703  MISS:          3
cpu0_STLB LOAD      ACCESS:       2416  HIT:       2413  MISS:          3
cpu0_STLB RFO       ACCESS:        290  HIT:        290  MISS:          0
cpu0_STLB PREFETCH  ACCESS:          0  HIT:          0  MISS:          0
cpu0_STLB WRITEBACK ACCESS:          0  HIT:          0  MISS:          0
cpu0_L1D TOTAL     ACCESS:    1917870  HIT:    1917351  MISS:        519
cpu0_L1D LOAD      ACCESS:    1239529  HIT:    1239061  MISS:        468
cpu0_L1D RFO       ACCESS:     678338  HIT:     678290  MISS:         48
cpu0_L1D PREFETCH  ACCESS:          0  HIT:          0  MISS:          0
cpu0_L1D WRITEBACK ACCESS:          0  HIT:          0  MISS:          0
cpu0_L2C TOTAL     ACCESS:        567  HIT:        237  MISS:        330
cpu0_L2C LOAD      ACCESS:        468  HIT:        167  MISS:        301
cpu0_L2C RFO       ACCESS:         48  HIT:         19  MISS:         29
cpu0_L2C PREFETCH  ACCESS:          0  HIT:          0  MISS:          0
cpu0_L2C WRITEBACK ACCESS:         48  HIT:         48  MISS:          0
LLC TOTAL     ACCESS:        330  HIT:          0  MISS:        330
LLC LOAD      ACCESS:        301  HIT:          0  MISS:        301
LLC RFO       ACCESS:         29  HIT:          0  MISS:         29
LLC PREFETCH  ACCESS:          0  HIT:          0  MISS:          0
LLC WRITEBACK ACCESS:          0  HIT:          0  MISS:          0
Heartbeat CPU 0 instructions: 62000003 cycles: 21803579 heartbeat IPC: 1.29118 cumulative IPC: 1.28984 (Simulation time: 0 hr 28 min 53 sec) 

Region of Interest Statistics
cpu0_DTLB TOTAL     ACCESS:    1730391  HIT:    1727144  MISS:       3247
cpu0_DTLB LOAD      ACCESS:    1282993  HIT:    1280094  MISS:       2899
cpu0_DTLB RFO       ACCESS:     447398  HIT:     447050  MISS:        348
cpu0_DTLB PREFETCH  ACCESS:          0  HIT:          0  MISS:          0
cpu0_DTLB WRITEBACK ACCESS:          0  HIT:          0  MISS:          0
cpu0_ITLB TOTAL     ACCESS:    1354494  HIT:    1354494  MISS:          0
cpu0_ITLB LOAD      ACCESS:    1354494  HIT:    1354494  MISS:          0
cpu0_ITLB RFO       ACCESS:          0  HIT:          0  MISS:          0
cpu0_ITLB PREFETCH  ACCESS:          0  HIT:          0  MISS:          0
cpu0_ITLB WRITEBACK ACCESS:          0  HIT:          0  MISS:          0
cpu0_L1I TOTAL     ACCESS:     137060  HIT:     137060  MISS:          0
cpu0_L1I LOAD      ACCESS:     137060  HIT:     137060  MISS:          0
cpu0_L1I RFO       ACCESS:          0  HIT:          0  MISS:          0
cpu0_L1I PREFETCH  ACCESS:          0  HIT:          0  MISS:          0
cpu0_L1I WRITEBACK ACCESS:          0  HIT:          0  MISS:          0
cpu0_STLB TOTAL     ACCESS:       3247  HIT:       3243  MISS:          4
cpu0_STLB LOAD      ACCESS:       2899  HIT:       2895  MISS:          4
cpu0_STLB RFO       ACCESS:        348  HIT:        348  MISS:          0
cpu0_STLB PREFETCH  ACCESS:          0  HIT:          0  MISS:          0
cpu0_STLB WRITEBACK ACCESS:          0  HIT:          0  MISS:          0
cpu0_L1D TOTAL     ACCESS:    2301521  HIT:    2300920  MISS:        601
cpu0_L1D LOAD      ACCESS:    1487462  HIT:    1486919  MISS:        543
cpu0_L1D RFO       ACCESS:     814055  HIT:     814001  MISS:         54
cpu0_L1D PREFETCH  ACCESS:          0  HIT:          0  MISS:          0
cpu0_L1D WRITEBACK ACCESS:          0  HIT:          0  MISS:          0
cpu0_L2C TOTAL     ACCESS:        654  HIT:        287  MISS:        367
cpu0_L2C LOAD      ACCESS:        543  HIT:        208  MISS:        335
cpu0_L2C RFO       ACCESS:         54  HIT:         22  MISS:         32
cpu0_L2C PREFETCH  ACCESS:          0  HIT:          0  MISS:          0
cpu0_L2C WRITEBACK ACCESS:         53  HIT:         53  MISS:          0
LLC TOTAL     ACCESS:        367  HIT:          0  MISS:        367
LLC LOAD      ACCESS:        335  HIT:          0  MISS:        335
LLC RFO       ACCESS:         32  HIT:          0  MISS:         32
LLC PREFETCH  ACCESS:          0  HIT:          0  MISS:          0
LLC WRITEBACK ACCESS:          0  HIT:          0  MISS:          0
Heartbeat CPU 0 instructions: 64000004 cycles: 23356373 heartbeat IPC: 1.288 cumulative IPC: 1.28957 (Simulation time: 0 hr 29 min 46 sec) 

Region of Interest Statistics
cpu0_DTLB TOTAL     ACCESS:    2018815  HIT:    2015027  MISS:       3788
cpu0_DTLB LOAD      ACCESS:    1496824  HIT:    1493442  MISS:       3382
cpu0_DTLB RFO       ACCESS:     521991  HIT:     521585  MISS:        406
cpu0_DTLB PREFETCH  ACCESS:          0  HIT:          0  MISS:          0
cpu0_DTLB WRITEBACK ACCESS:          0  HIT:          0  MISS:          0
cpu0_ITLB TOTAL     ACCESS:    1580228  HIT:    1580228  MISS:          0
cpu0_ITLB LOAD      ACCESS:    1580228  HIT:    1580228  MISS:          0
cpu0_ITLB RFO       ACCESS:          0  HIT:          0  MISS:          0
cpu0_ITLB PREFETCH  ACCESS:          0  HIT:          0  MISS:          0
cpu0_ITLB WRITEBACK ACCESS:          0  HIT:          0  MISS:          0
cpu0_L1I TOTAL     ACCESS:     159917  HIT:     159917  MISS:          0
cpu0_L1I LOAD      ACCESS:     159917  HIT:     159917  MISS:          0
cpu0_L1I RFO       ACCESS:          0  HIT:          0  MISS:          0
cpu0_L1I PREFETCH  ACCESS:          0  HIT:          0  MISS:          0
cpu0_L1I WRITEBACK ACCESS:          0  HIT:          0  MISS:          0
cpu0_STLB TOTAL     ACCESS:       3788  HIT:       3784  MISS:          4
cpu0_STLB LOAD      ACCESS:       3382  HIT:       3378  MISS:          4
cpu0_STLB RFO       ACCESS:        406  HIT:        406  MISS:          0
cpu0_STLB PREFETCH  ACCESS:          0  HIT:          0  MISS:          0
cpu0_STLB WRITEBACK ACCESS:          0  HIT:          0  MISS:          0
cpu0_L1D TOTAL     ACCESS:    2685208  HIT:    2684471  MISS:        737
cpu0_L1D LOAD      ACCESS:    1735422  HIT:    1734754  MISS:        668
cpu0_L1D RFO       ACCESS:     949782  HIT:     949717  MISS:         65
cpu0_L1D PREFETCH  ACCESS:          0  HIT:          0  MISS:          0
cpu0_L1D WRITEBACK ACCESS:          0  HIT:          0  MISS:          0
cpu0_L2C TOTAL     ACCESS:        800  HIT:        338  MISS:        462
cpu0_L2C LOAD      ACCESS:        668  HIT:        246  MISS:        422
cpu0_L2C RFO       ACCESS:         65  HIT:         25  MISS:         40
cpu0_L2C PREFETCH  ACCESS:          0  HIT:          0  MISS:          0
cpu0_L2C WRITEBACK ACCESS:         63  HIT:         63  MISS:          0
LLC TOTAL     ACCESS:        462  HIT:          0  MISS:        462
LLC LOAD      ACCESS:        422  HIT:          0  MISS:        422
LLC RFO       ACCESS:         40  HIT:          0  MISS:         40
LLC PREFETCH  ACCESS:          0  HIT:          0  MISS:          0
LLC WRITEBACK ACCESS:          0  HIT:          0  MISS:          0
Heartbeat CPU 0 instructions: 66000003 cycles: 24904593 heartbeat IPC: 1.29181 cumulative IPC: 1.28985 (Simulation time: 0 hr 30 min 39 sec) 

Region of Interest Statistics
cpu0_DTLB TOTAL     ACCESS:    2307237  HIT:    2302908  MISS:       4329
cpu0_DTLB LOAD      ACCESS:    1710662  HIT:    1706797  MISS:       3865
cpu0_DTLB RFO       ACCESS:     596575  HIT:     596111  MISS:        464
cpu0_DTLB PREFETCH  ACCESS:          0  HIT:          0  MISS:          0
cpu0_DTLB WRITEBACK ACCESS:          0  HIT:          0  MISS:          0
cpu0_ITLB TOTAL     ACCESS:    1805961  HIT:    1805961  MISS:          0
cpu0_ITLB LOAD      ACCESS:    1805961  HIT:    1805961  MISS:          0
cpu0_ITLB RFO       ACCESS:          0  HIT:          0  MISS:          0
cpu0_ITLB PREFETCH  ACCESS:          0  HIT:          0  MISS:          0
cpu0_ITLB WRITEBACK ACCESS:          0  HIT:          0  MISS:          0
cpu0_L1I TOTAL     ACCESS:     182786  HIT:     182786  MISS:          0
cpu0_L1I LOAD      ACCESS:     182786  HIT:     182786  MISS:          0
cpu0_L1I RFO       ACCESS:          0  HIT:          0  MISS:          0
cpu0_L1I PREFETCH  ACCESS:          0  HIT:          0  MISS:          0
cpu0_L1I WRITEBACK ACCESS:          0  HIT:          0  MISS:          0
cpu0_STLB TOTAL     ACCESS:       4329  HIT:       4325  MISS:          4
cpu0_STLB LOAD      ACCESS:       3865  HIT:       3861  MISS:          4
cpu0_STLB RFO       ACCESS:        464  HIT:        464  MISS:          0
cpu0_STLB PREFETCH  ACCESS:          0  HIT:          0  MISS:          0
cpu0_STLB WRITEBACK ACCESS:          0  HIT:          0  MISS:          0
cpu0_L1D TOTAL     ACCESS:    3068892  HIT:    3068077  MISS:        815
cpu0_L1D LOAD      ACCESS:    1983379  HIT:    1982639  MISS:        740
cpu0_L1D RFO       ACCESS:    1085509  HIT:    1085438  MISS:         71
cpu0_L1D PREFETCH  ACCESS:          0  HIT:          0  MISS:          0
cpu0_L1D WRITEBACK ACCESS:          0  HIT:          0  MISS:          0
cpu0_L2C TOTAL     ACCESS:        884  HIT:        392  MISS:        492
cpu0_L2C LOAD      ACCESS:        740  HIT:        291  MISS:        449
cpu0_L2C RFO       ACCESS:         71  HIT:         28  MISS:         43
cpu0_L2C PREFETCH  ACCESS:          0  HIT:          0  MISS:          0
cpu0_L2C WRITEBACK ACCESS:         69  HIT:         69  MISS:          0
LLC TOTAL     ACCESS:        492  HIT:          0  MISS:        492
LLC LOAD      ACCESS:        449  HIT:          0  MISS:        449
LLC RFO       ACCESS:         43  HIT:          0  MISS:         43
LLC PREFETCH  ACCESS:          0  HIT:          0  MISS:          0
LLC WRITEBACK ACCESS:          0  HIT:          0  MISS:          0
Heartbeat CPU 0 instructions: 68000000 cycles: 26456077 heartbeat IPC: 1.28909 cumulative IPC: 1.28977 (Simulation time: 0 hr 31 min 31 sec) 

Region of Interest Statistics
cpu0_DTLB TOTAL     ACCESS:    2595628  HIT:    2590758  MISS:       4870
cpu0_DTLB LOAD      ACCESS:    1924483  HIT:    1920135  MISS:       4348
cpu0_DTLB RFO       ACCESS:     671145  HIT:     670623  MISS:        522
cpu0_DTLB PREFETCH  ACCESS:          0  HIT:          0  MISS:          0
cpu0_DTLB WRITEBACK ACCESS:          0  HIT:          0  MISS:          0
cpu0_ITLB TOTAL     ACCESS:    2031709  HIT:    2031709  MISS:          0
cpu0_ITLB LOAD      ACCESS:    2031709  HIT:    2031709  MISS:          0
cpu0_ITLB RFO       ACCESS:          0  HIT:          0  MISS:          0
cpu0_ITLB PREFETCH  ACCESS:          0  HIT:          0  MISS:          0
cpu0_ITLB WRITEBACK ACCESS:          0  HIT:          0  MISS:          0
cpu0_L1I TOTAL     ACCESS:     205638  HIT:     205638  MISS:          0
cpu0_L1I LOAD      ACCESS:     205638  HIT:     205638  MISS:          0
cpu0_L1I RFO       ACCESS:          0  HIT:          0  MISS:          0
cpu0_L1I PREFETCH  ACCESS:          0  HIT:          0  MISS:          0
cpu0_L1I WRITEBACK ACCESS:          0  HIT:          0  MISS:          0
cpu0_STLB TOTAL     ACCESS:       4870  HIT:       4866  MISS:          4
cpu0_STLB LOAD      ACCESS:       4348  HIT:       4344  MISS:          4
cpu0_STLB RFO       ACCESS:        522  HIT:        522  MISS:          0
cpu0_STLB PREFETCH  ACCESS:          0  HIT:          0  MISS:          0
cpu0_STLB WRITEBACK ACCESS:          0  HIT:          0  MISS:          0
cpu0_L1D TOTAL     ACCESS:    3452533  HIT:    3451607  MISS:        926
cpu0_L1D LOAD      ACCESS:    2231321  HIT:    2230480  MISS:        841
cpu0_L1D RFO       ACCESS:    1221208  HIT:    1221127  MISS:         81
cpu0_L1D PREFETCH  ACCESS:          0  HIT:          0  MISS:          0
cpu0_L1D WRITEBACK ACCESS:          0  HIT:          0  MISS:          0
cpu0_L2C TOTAL     ACCESS:       1006  HIT:        432  MISS:        574
cpu0_L2C LOAD      ACCESS:        841  HIT:        318  MISS:        523
cpu0_L2C RFO       ACCESS:         81  HIT:         30  MISS:         51
cpu0_L2C PREFETCH  ACCESS:          0  HIT:          0  MISS:          0
cpu0_L2C WRITEBACK ACCESS:         80  HIT:         80  MISS:          0
LLC TOTAL     ACCESS:        574  HIT:          0  MISS:        574
LLC LOAD      ACCESS:        523  HIT:          0  MISS:        523
LLC RFO       ACCESS:         51  HIT:          0  MISS:         51
LLC PREFETCH  ACCESS:          0  HIT:          0  MISS:          0
LLC WRITEBACK ACCESS:          0  HIT:          0  MISS:          0
Heartbeat CPU 0 instructions: 70000000 cycles: 28005191 heartbeat IPC: 1.29106 cumulative IPC: 1.2899 (Simulation time: 0 hr 32 min 25 sec) 

Region of Interest Statistics
cpu0_DTLB TOTAL     ACCESS:    2884026  HIT:    2878615  MISS:       5411
cpu0_DTLB LOAD      ACCESS:    2138309  HIT:    2133478  MISS:       4831
cpu0_DTLB RFO       ACCESS:     745717  HIT:     745137  MISS:        580
cpu0_DTLB PREFETCH  ACCESS:          0  HIT:          0  MISS:          0
cpu0_DTLB WRITEBACK ACCESS:          0  HIT:          0  MISS:          0
cpu0_ITLB TOTAL     ACCESS:    2257462  HIT:    2257462  MISS:          0
cpu0_ITLB LOAD      ACCESS:    2257462  HIT:    2257462  MISS:          0
cpu0_ITLB RFO       ACCESS:          0  HIT:          0  MISS:          0
cpu0_ITLB PREFETCH  ACCESS:          0  HIT:          0  MISS:          0
cpu0_ITLB WRITEBACK ACCESS:          0  HIT:          0  MISS:          0
cpu0_L1I TOTAL     ACCESS:     228501  HIT:     228501  MISS:          0
cpu0_L1I LOAD      ACCESS:     228501  HIT:     228501  MISS:          0
cpu0_L1I RFO       ACCESS:          0  HIT:          0  MISS:          0
cpu0_L1I PREFETCH  ACCESS:          0  HIT:          0  MISS:          0
cpu0_L1I WRITEBACK ACCESS:          0  HIT:          0  MISS:          0
cpu0_STLB TOTAL     ACCESS:       5411  HIT:       5407  MISS:          4
cpu0_STLB LOAD      ACCESS:       4831  HIT:       4827  MISS:          4
cpu0_STLB RFO       ACCESS:        580  HIT:        580  MISS:          0
cpu0_STLB PREFETCH  ACCESS:          0  HIT:          0  MISS:          0
cpu0_STLB WRITEBACK ACCESS:          0  HIT:          0  MISS:          0
cpu0_L1D TOTAL     ACCESS:    3836106  HIT:    3835096  MISS:       1010
cpu0_L1D LOAD      ACCESS:    2479194  HIT:    2478278  MISS:        916
cpu0_L1D RFO       ACCESS:    1356908  HIT:    1356818  MISS:         90
cpu0_L1D PREFETCH  ACCESS:          0  HIT:          0  MISS:          0
cpu0_L1D WRITEBACK ACCESS:          0  HIT:          0  MISS:          0
cpu0_L2C TOTAL     ACCESS:       1097  HIT:        483  MISS:        614
cpu0_L2C LOAD      ACCESS:        916  HIT:        356  MISS:        560
cpu0_L2C RFO       ACCESS:         90  HIT:         36  MISS:         54
cpu0_L2C PREFETCH  ACCESS:          0  HIT:          0  MISS:          0
cpu0_L2C WRITEBACK ACCESS:         87  HIT:         87  MISS:          0
LLC TOTAL     ACCESS:        614  HIT:          0  MISS:        614
LLC LOAD      ACCESS:        560  HIT:          0  MISS:        560
LLC RFO       ACCESS:         54  HIT:          0  MISS:         54
LLC PREFETCH  ACCESS:          0  HIT:          0  MISS:          0
LLC WRITEBACK ACCESS:          0  HIT:          0  MISS:          0
Heartbeat CPU 0 instructions: 72000004 cycles: 29559732 heartbeat IPC: 1.28656 cumulative IPC: 1.28959 (Simulation time: 0 hr 33 min 16 sec) 

Region of Interest Statistics
cpu0_DTLB TOTAL     ACCESS:    3172462  HIT:    3166510  MISS:       5952
cpu0_DTLB LOAD      ACCESS:    2352149  HIT:    2346834  MISS:       5315
cpu0_DTLB RFO       ACCESS:     820313  HIT:     819676  MISS:        637
cpu0_DTLB PREFETCH  ACCESS:          0  HIT:          0  MISS:          0
cpu0_DTLB WRITEBACK ACCESS:          0  HIT:          0  MISS:          0
cpu0_ITLB TOTAL     ACCESS:    2483227  HIT:    2483227  MISS:          0
cpu0_ITLB LOAD      ACCESS:    2483227  HIT:    2483227  MISS:          0
cpu0_ITLB RFO       ACCESS:          0  HIT:          0  MISS:          0
cpu0_ITLB PREFETCH  ACCESS:          0  HIT:          0  MISS:          0
cpu0_ITLB WRITEBACK ACCESS:          0  HIT:          0  MISS:          0
cpu0_L1I TOTAL     ACCESS:     251348  HIT:     251348  MISS:          0
cpu0_L1I LOAD      ACCESS:     251348  HIT:     251348  MISS:          0
cpu0_L1I RFO       ACCESS:          0  HIT:          0  MISS:          0
cpu0_L1I PREFETCH  ACCESS:          0  HIT:          0  MISS:          0
cpu0_L1I WRITEBACK ACCESS:          0  HIT:          0  MISS:          0
cpu0_STLB TOTAL     ACCESS:       5952  HIT:       5946  MISS:          6
cpu0_STLB LOAD      ACCESS:       5315  HIT:       5309  MISS:          6
cpu0_STLB RFO       ACCESS:        637  HIT:        637  MISS:          0
cpu0_STLB PREFETCH  ACCESS:          0  HIT:          0  MISS:          0
cpu0_STLB WRITEBACK ACCESS:          0  HIT:          0  MISS:          0
cpu0_L1D TOTAL     ACCESS:    4219687  HIT:    4218542  MISS:       1145
cpu0_L1D LOAD      ACCESS:    2727074  HIT:    2726036  MISS:       1038
cpu0_L1D RFO       ACCESS:    1492607  HIT:    1492506  MISS:        101
cpu0_L1D PREFETCH  ACCESS:          0  HIT:          0  MISS:          0
cpu0_L1D WRITEBACK ACCESS:          0  HIT:          0  MISS:          0
cpu0_L2C TOTAL     ACCESS:       1242  HIT:        533  MISS:        709
cpu0_L2C LOAD      ACCESS:       1038  HIT:        391  MISS:        647
cpu0_L2C RFO       ACCESS:        101  HIT:         39  MISS:         62
cpu0_L2C PREFETCH  ACCESS:          0  HIT:          0  MISS:          0
cpu0_L2C WRITEBACK ACCESS:         97  HIT:         97  MISS:          0
LLC TOTAL     ACCESS:        709  HIT:          0  MISS:        709
LLC LOAD      ACCESS:        647  HIT:          0  MISS:        647
LLC RFO       ACCESS:         62  HIT:          0  MISS:         62
LLC PREFETCH  ACCESS:          0  HIT:          0  MISS:          0
LLC WRITEBACK ACCESS:          0  HIT:          0  MISS:          0
Heartbeat CPU 0 instructions: 74000004 cycles: 31108207 heartbeat IPC: 1.29159 cumulative IPC: 1.28976 (Simulation time: 0 hr 34 min 7 sec) 

Region of Interest Statistics
cpu0_DTLB TOTAL     ACCESS:    3460878  HIT:    3454384  MISS:       6494
cpu0_DTLB LOAD      ACCESS:    2566014  HIT:    2560215  MISS:       5799
cpu0_DTLB RFO       ACCESS:     894864  HIT:     894169  MISS:        695
cpu0_DTLB PREFETCH  ACCESS:          0  HIT:          0  MISS:          0
cpu0_DTLB WRITEBACK ACCESS:          0  HIT:          0  MISS:          0
cpu0_ITLB TOTAL     ACCESS:    2708999  HIT:    2708999  MISS:          0
cpu0_ITLB LOAD      ACCESS:    2708999  HIT:    2708999  MISS:          0
cpu0_ITLB RFO       ACCESS:          0  HIT:          0  MISS:          0
cpu0_ITLB PREFETCH  ACCESS:          0  HIT:          0  MISS:          0
cpu0_ITLB WRITEBACK ACCESS:          0  HIT:          0  MISS:          0
cpu0_L1I TOTAL     ACCESS:     274187  HIT:     274187  MISS:          0
cpu0_L1I LOAD      ACCESS:     274187  HIT:     274187  MISS:          0
cpu0_L1I RFO       ACCESS:          0  HIT:          0  MISS:          0
cpu0_L1I PREFETCH  ACCESS:          0  HIT:          0  MISS:          0
cpu0_L1I WRITEBACK ACCESS:          0  HIT:          0  MISS:          0
cpu0_STLB TOTAL     ACCESS:       6494  HIT:       6487  MISS:          7
cpu0_STLB LOAD      ACCESS:       5799  HIT:       5792  MISS:          7
cpu0_STLB RFO       ACCESS:        695  HIT:        695  MISS:          0
cpu0_STLB PREFETCH  ACCESS:          0  HIT:          0  MISS:          0
cpu0_STLB WRITEBACK ACCESS:          0  HIT:          0  MISS:          0
cpu0_L1D TOTAL     ACCESS:    4603261  HIT:    4602018  MISS:       1243
cpu0_L1D LOAD      ACCESS:    2974997  HIT:    2973870  MISS:       1127
cpu0_L1D RFO       ACCESS:    1628257  HIT:    1628148  MISS:        109
cpu0_L1D PREFETCH  ACCESS:          0  HIT:          0  MISS:          0
cpu0_L1D WRITEBACK ACCESS:          0  HIT:          0  MISS:          0
cpu0_L2C TOTAL     ACCESS:       1350  HIT:        604  MISS:        746
cpu0_L2C LOAD      ACCESS:       1127  HIT:        446  MISS:        681
cpu0_L2C RFO       ACCESS:        109  HIT:         44  MISS:         65
cpu0_L2C PREFETCH  ACCESS:          0  HIT:          0  MISS:          0
cpu0_L2C WRITEBACK ACCESS:        107  HIT:        107  MISS:          0
LLC TOTAL     ACCESS:        746  HIT:          0  MISS:        746
LLC LOAD      ACCESS:        681  HIT:          0  MISS:        681
LLC RFO       ACCESS:         65  HIT:          0  MISS:         65
LLC PREFETCH  ACCESS:          0  HIT:          0  MISS:          0
LLC WRITEBACK ACCESS:          0  HIT:          0  MISS:          0
Heartbeat CPU 0 instructions: 76000000 cycles: 32659242 heartbeat IPC: 1.28946 cumulative IPC: 1.28974 (Simulation time: 0 hr 34 min 56 sec) 

Region of Interest Statistics
cpu0_DTLB TOTAL     ACCESS:    3749322  HIT:    3742286  MISS:       7036
cpu0_DTLB LOAD      ACCESS:    2779890  HIT:    2773607  MISS:       6283
cpu0_DTLB RFO       ACCESS:     969432  HIT:     968679  MISS:        753
cpu0_DTLB PREFETCH  ACCESS:          0  HIT:          0  MISS:          0
cpu0_DTLB WRITEBACK ACCESS:          0  HIT:          0  MISS:          0
cpu0_ITLB TOTAL     ACCESS:    2934769  HIT:    2934769  MISS:          0
cpu0_ITLB LOAD      ACCESS:    2934769  HIT:    2934769  MISS:          0
cpu0_ITLB RFO       ACCESS:          0  HIT:          0  MISS:          0
cpu0_ITLB PREFETCH  ACCESS:          0  HIT:          0  MISS:          0
cpu0_ITLB WRITEBACK ACCESS:          0  HIT:          0  MISS:          0
cpu0_L1I TOTAL     ACCESS:     296993  HIT:     296993  MISS:          0
cpu0_L1I LOAD      ACCESS:     296993  HIT:     296993  MISS:          0
cpu0_L1I RFO       ACCESS:          0  HIT:          0  MISS:          0
cpu0_L1I PREFETCH  ACCESS:          0  HIT:          0  MISS:          0
cpu0_L1I WRITEBACK ACCESS:          0  HIT:          0  MISS:          0
cpu0_STLB TOTAL     ACCESS:       7036  HIT:       7029  MISS:          7
cpu0_STLB LOAD      ACCESS:       6283  HIT:       6276  MISS:          7
cpu0_STLB RFO       ACCESS:        753  HIT:        753  MISS:          0
cpu0_STLB PREFETCH  ACCESS:          0  HIT:          0  MISS:          0
cpu0_STLB WRITEBACK ACCESS:          0  HIT:          0  MISS:          0
cpu0_L1D TOTAL     ACCESS:    4986852  HIT:    4985481  MISS:       1371
cpu0_L1D LOAD      ACCESS:    3222936  HIT:    3221691  MISS:       1245
cpu0_L1D RFO       ACCESS:    1763909  HIT:    1763790  MISS:        119
cpu0_L1D PREFETCH  ACCESS:          0  HIT:          0  MISS:          0
cpu0_L1D WRITEBACK ACCESS:          0  HIT:          0  MISS:          0
cpu0_L2C TOTAL     ACCESS:       1490  HIT:        668  MISS:        822
cpu0_L2C LOAD      ACCESS:       1245  HIT:        495  MISS:        750
cpu0_L2C RFO       ACCESS:        119  HIT:         47  MISS:         72
cpu0_L2C PREFETCH  ACCESS:          0  HIT:          0  MISS:          0
cpu0_L2C WRITEBACK ACCESS:        119  HIT:        119  MISS:          0
LLC TOTAL     ACCESS:        822  HIT:          0  MISS:        822
LLC LOAD      ACCESS:        750  HIT:          0  MISS:        750
LLC RFO       ACCESS:         72  HIT:          0  MISS:         72
LLC PREFETCH  ACCESS:          0  HIT:          0  MISS:          0
LLC WRITEBACK ACCESS:          0  HIT:          0  MISS:          0
Heartbeat CPU 0 instructions: 78000001 cycles: 34208352 heartbeat IPC: 1.29106 cumulative IPC: 1.28983 (Simulation time: 0 hr 36 min 18 sec) 

Region of Interest Statistics
cpu0_DTLB TOTAL     ACCESS:    4037724  HIT:    4030146  MISS:       7578
cpu0_DTLB LOAD      ACCESS:    2993721  HIT:    2986954  MISS:       6767
cpu0_DTLB RFO       ACCESS:    1044003  HIT:    1043192  MISS:        811
cpu0_DTLB PREFETCH  ACCESS:          0  HIT:          0  MISS:          0
cpu0_DTLB WRITEBACK ACCESS:          0  HIT:          0  MISS:          0
cpu0_ITLB TOTAL     ACCESS:    3160522  HIT:    3160522  MISS:          0
cpu0_ITLB LOAD      ACCESS:    3160522  HIT:    3160522  MISS:          0
cpu0_ITLB RFO       ACCESS:          0  HIT:          0  MISS:          0
cpu0_ITLB PREFETCH  ACCESS:          0  HIT:          0  MISS:          0
cpu0_ITLB WRITEBACK ACCESS:          0  HIT:          0  MISS:          0
cpu0_L1I TOTAL     ACCESS:     319857  HIT:     319857  MISS:          0
cpu0_L1I LOAD      ACCESS:     319857  HIT:     319857  MISS:          0
cpu0_L1I RFO       ACCESS:          0  HIT:          0  MISS:          0
cpu0_L1I PREFETCH  ACCESS:          0  HIT:          0  MISS:          0
cpu0_L1I WRITEBACK ACCESS:          0  HIT:          0  MISS:          0
cpu0_STLB TOTAL     ACCESS:       7578  HIT:       7571  MISS:          7
cpu0_STLB LOAD      ACCESS:       6767  HIT:       6760  MISS:          7
cpu0_STLB RFO       ACCESS:        811  HIT:        811  MISS:          0
cpu0_STLB PREFETCH  ACCESS:          0  HIT:          0  MISS:          0
cpu0_STLB WRITEBACK ACCESS:          0  HIT:          0  MISS:          0
cpu0_L1D TOTAL     ACCESS:    5370426  HIT:    5368966  MISS:       1460
cpu0_L1D LOAD      ACCESS:    3470842  HIT:    3469514  MISS:       1328
cpu0_L1D RFO       ACCESS:    1899577  HIT:    1899452  MISS:        125
cpu0_L1D PREFETCH  ACCESS:          0  HIT:          0  MISS:          0
cpu0_L1D WRITEBACK ACCESS:          0  HIT:          0  MISS:          0
cpu0_L2C TOTAL     ACCESS:       1586  HIT:        727  MISS:        859
cpu0_L2C LOAD      ACCESS:       1328  HIT:        544  MISS:        784
cpu0_L2C RFO       ACCESS:        125  HIT:         50  MISS:         75
cpu0_L2C PREFETCH  ACCESS:          0  HIT:          0  MISS:          0
cpu0_L2C WRITEBACK ACCESS:        126  HIT:        126  MISS:          0
LLC TOTAL     ACCESS:        859  HIT:          0  MISS:        859
LLC LOAD      ACCESS:        784  HIT:          0  MISS:        784
LLC RFO       ACCESS:         75  HIT:          0  MISS:         75
LLC PREFETCH  ACCESS:          0  HIT:          0  MISS:          0
LLC WRITEBACK ACCESS:          0  HIT:          0  MISS:          0
Heartbeat CPU 0 instructions: 80000000 cycles: 35761548 heartbeat IPC: 1.28767 cumulative IPC: 1.28969 (Simulation time: 0 hr 37 min 10 sec) 

Region of Interest Statistics
cpu0_DTLB TOTAL     ACCESS:    4326143  HIT:    4318020  MISS:       8123
cpu0_DTLB LOAD      ACCESS:    3207580  HIT:    3200326  MISS:       7254
cpu0_DTLB RFO       ACCESS:    1118563  HIT:    1117694  MISS:        869
cpu0_DTLB PREFETCH  ACCESS:          0  HIT:          0  MISS:          0
cpu0_DTLB WRITEBACK ACCESS:          0  HIT:          0  MISS:          0
cpu0_ITLB TOTAL     ACCESS:    3386280  HIT:    3386280  MISS:          0
cpu0_ITLB LOAD      ACCESS:    3386280  HIT:    3386280  MISS:          0
cpu0_ITLB RFO       ACCESS:          0  HIT:          0  MISS:          0
cpu0_ITLB PREFETCH  ACCESS:          0  HIT:          0  MISS:          0
cpu0_ITLB WRITEBACK ACCESS:          0  HIT:          0  MISS:          0
cpu0_L1I TOTAL     ACCESS:     342704  HIT:     342704  MISS:          0
cpu0_L1I LOAD      ACCESS:     342704  HIT:     342704  MISS:          0
cpu0_L1I RFO       ACCESS:          0  HIT:          0  MISS:          0
cpu0_L1I PREFETCH  ACCESS:          0  HIT:          0  MISS:          0
cpu0_L1I WRITEBACK ACCESS:          0  HIT:          0  MISS:          0
cpu0_STLB TOTAL     ACCESS:       8123  HIT:       8112  MISS:         11
cpu0_STLB LOAD      ACCESS:       7254  HIT:       7243  MISS:         11
cpu0_STLB RFO       ACCESS:        869  HIT:        869  MISS:          0
cpu0_STLB PREFETCH  ACCESS:          0  HIT:          0  MISS:          0
cpu0_STLB WRITEBACK ACCESS:          0  HIT:          0  MISS:          0
cpu0_L1D TOTAL     ACCESS:    5754000  HIT:    5752397  MISS:       1603
cpu0_L1D LOAD      ACCESS:    3718759  HIT:    3717302  MISS:       1457
cpu0_L1D RFO       ACCESS:    2035230  HIT:    2035095  MISS:        135
cpu0_L1D PREFETCH  ACCESS:          0  HIT:          0  MISS:          0
cpu0_L1D WRITEBACK ACCESS:          0  HIT:          0  MISS:          0
cpu0_L2C TOTAL     ACCESS:       1737  HIT:        783  MISS:        954
cpu0_L2C LOAD      ACCESS:       1457  HIT:        586  MISS:        871
cpu0_L2C RFO       ACCESS:        135  HIT:         52  MISS:         83
cpu0_L2C PREFETCH  ACCESS:          0  HIT:          0  MISS:          0
cpu0_L2C WRITEBACK ACCESS:        134  HIT:        134  MISS:          0
LLC TOTAL     ACCESS:        954  HIT:          0  MISS:        954
LLC LOAD      ACCESS:        871  HIT:          0  MISS:        871
LLC RFO       ACCESS:         83  HIT:          0  MISS:         83
LLC PREFETCH  ACCESS:          0  HIT:          0  MISS:          0
LLC WRITEBACK ACCESS:          0  HIT:          0  MISS:          0
Heartbeat CPU 0 instructions: 82000000 cycles: 37309669 heartbeat IPC: 1.29189 cumulative IPC: 1.28982 (Simulation time: 0 hr 38 min 3 sec) 

Region of Interest Statistics
cpu0_DTLB TOTAL     ACCESS:    4614544  HIT:    4605876  MISS:       8668
cpu0_DTLB LOAD      ACCESS:    3421431  HIT:    3413690  MISS:       7741
cpu0_DTLB RFO       ACCESS:    1193113  HIT:    1192186  MISS:        927
cpu0_DTLB PREFETCH  ACCESS:          0  HIT:          0  MISS:          0
cpu0_DTLB WRITEBACK ACCESS:          0  HIT:          0  MISS:          0
cpu0_ITLB TOTAL     ACCESS:    3612037  HIT:    3612037  MISS:          0
cpu0_ITLB LOAD      ACCESS:    3612037  HIT:    3612037  MISS:          0
cpu0_ITLB RFO       ACCESS:          0  HIT:          0  MISS:          0
cpu0_ITLB PREFETCH  ACCESS:          0  HIT:          0  MISS:          0
cpu0_ITLB WRITEBACK ACCESS:          0  HIT:          0  MISS:          0
cpu0_L1I TOTAL     ACCESS:     365562  HIT:     365562  MISS:          0
cpu0_L1I LOAD      ACCESS:     365562  HIT:     365562  MISS:          0
cpu0_L1I RFO       ACCESS:          0  HIT:          0  MISS:          0
cpu0_L1I PREFETCH  ACCESS:          0  HIT:          0  MISS:          0
cpu0_L1I WRITEBACK ACCESS:          0  HIT:          0  MISS:          0
cpu0_STLB TOTAL     ACCESS:       8668  HIT:       8657  MISS:         11
cpu0_STLB LOAD      ACCESS:       7741  HIT:       7730  MISS:         11
cpu0_STLB RFO       ACCESS:        927  HIT:        927  MISS:          0
cpu0_STLB PREFETCH  ACCESS:          0  HIT:          0  MISS:          0
cpu0_STLB WRITEBACK ACCESS:          0  HIT:          0  MISS:          0
cpu0_L1D TOTAL     ACCESS:    6137558  HIT:    6135872  MISS:       1686
cpu0_L1D LOAD      ACCESS:    3966671  HIT:    3965140  MISS:       1531
cpu0_L1D RFO       ACCESS:    2170876  HIT:    2170732  MISS:        144
cpu0_L1D PREFETCH  ACCESS:          0  HIT:          0  MISS:          0
cpu0_L1D WRITEBACK ACCESS:          0  HIT:          0  MISS:          0
cpu0_L2C TOTAL     ACCESS:       1827  HIT:        843  MISS:        984
cpu0_L2C LOAD      ACCESS:       1531  HIT:        633  MISS:        898
cpu0_L2C RFO       ACCESS:        144  HIT:         58  MISS:         86
cpu0_L2C PREFETCH  ACCESS:          0  HIT:          0  MISS:          0
cpu0_L2C WRITEBACK ACCESS:        141  HIT:        141  MISS:          0
LLC TOTAL     ACCESS:        984  HIT:          0  MISS:        984
LLC LOAD      ACCESS:        898  HIT:          0  MISS:        898
LLC RFO       ACCESS:         86  HIT:          0  MISS:         86
LLC PREFETCH  ACCESS:          0  HIT:          0  MISS:          0
LLC WRITEBACK ACCESS:          0  HIT:          0  MISS:          0
Heartbeat CPU 0 instructions: 84000001 cycles: 38861288 heartbeat IPC: 1.28898 cumulative IPC: 1.28977 (Simulation time: 0 hr 38 min 53 sec) 

Region of Interest Statistics
cpu0_DTLB TOTAL     ACCESS:    4902973  HIT:    4893760  MISS:       9213
cpu0_DTLB LOAD      ACCESS:    3635276  HIT:    3627048  MISS:       8228
cpu0_DTLB RFO       ACCESS:    1267697  HIT:    1266712  MISS:        985
cpu0_DTLB PREFETCH  ACCESS:          0  HIT:          0  MISS:          0
cpu0_DTLB WRITEBACK ACCESS:          0  HIT:          0  MISS:          0
cpu0_ITLB TOTAL     ACCESS:    3837779  HIT:    3837779  MISS:          0
cpu0_ITLB LOAD      ACCESS:    3837779  HIT:    3837779  MISS:          0
cpu0_ITLB RFO       ACCESS:          0  HIT:          0  MISS:          0
cpu0_ITLB PREFETCH  ACCESS:          0  HIT:          0  MISS:          0
cpu0_ITLB WRITEBACK ACCESS:          0  HIT:          0  MISS:          0
cpu0_L1I TOTAL     ACCESS:     388423  HIT:     388423  MISS:          0
cpu0_L1I LOAD      ACCESS:     388423  HIT:     388423  MISS:          0
cpu0_L1I RFO       ACCESS:          0  HIT:          0  MISS:          0
cpu0_L1I PREFETCH  ACCESS:          0  HIT:          0  MISS:          0
cpu0_L1I WRITEBACK ACCESS:          0  HIT:          0  MISS:          0
cpu0_STLB TOTAL     ACCESS:       9213  HIT:       9201  MISS:         12
cpu0_STLB LOAD      ACCESS:       8228  HIT:       8216  MISS:         12
cpu0_STLB RFO       ACCESS:        985  HIT:        985  MISS:          0
cpu0_STLB PREFETCH  ACCESS:          0  HIT:          0  MISS:          0
cpu0_STLB WRITEBACK ACCESS:          0  HIT:          0  MISS:          0
cpu0_L1D TOTAL     ACCESS:    6521211  HIT:    6519414  MISS:       1797
cpu0_L1D LOAD      ACCESS:    4214606  HIT:    4212975  MISS:       1631
cpu0_L1D RFO       ACCESS:    2306593  HIT:    2306439  MISS:        154
cpu0_L1D PREFETCH  ACCESS:          0  HIT:          0  MISS:          0
cpu0_L1D WRITEBACK ACCESS:          0  HIT:          0  MISS:          0
cpu0_L2C TOTAL     ACCESS:       1948  HIT:        882  MISS:       1066
cpu0_L2C LOAD      ACCESS:       1631  HIT:        659  MISS:        972
cpu0_L2C RFO       ACCESS:        154  HIT:         60  MISS:         94
cpu0_L2C PREFETCH  ACCESS:          0  HIT:          0  MISS:          0
cpu0_L2C WRITEBACK ACCESS:        151  HIT:        151  MISS:          0
LLC TOTAL     ACCESS:       1068  HIT:          2  MISS:       1066
LLC LOAD      ACCESS:        972  HIT:          0  MISS:        972
LLC RFO       ACCESS:         94  HIT:          0  MISS:         94
LLC PREFETCH  ACCESS:          0  HIT:          0  MISS:          0
LLC WRITEBACK ACCESS:          2  HIT:          2  MISS:          0
Heartbeat CPU 0 instructions: 86000002 cycles: 40410291 heartbeat IPC: 1.29115 cumulative IPC: 1.28985 (Simulation time: 0 hr 39 min 45 sec) 

Region of Interest Statistics
cpu0_DTLB TOTAL     ACCESS:    5191378  HIT:    5181618  MISS:       9760
cpu0_DTLB LOAD      ACCESS:    3849103  HIT:    3840387  MISS:       8716
cpu0_DTLB RFO       ACCESS:    1342275  HIT:    1341231  MISS:       1044
cpu0_DTLB PREFETCH  ACCESS:          0  HIT:          0  MISS:          0
cpu0_DTLB WRITEBACK ACCESS:          0  HIT:          0  MISS:          0
cpu0_ITLB TOTAL     ACCESS:    4063511  HIT:    4063511  MISS:          0
cpu0_ITLB LOAD      ACCESS:    4063511  HIT:    4063511  MISS:          0
cpu0_ITLB RFO       ACCESS:          0  HIT:          0  MISS:          0
cpu0_ITLB PREFETCH  ACCESS:          0  HIT:          0  MISS:          0
cpu0_ITLB WRITEBACK ACCESS:          0  HIT:          0  MISS:          0
cpu0_L1I TOTAL     ACCESS:     411285  HIT:     411285  MISS:          0
cpu0_L1I LOAD      ACCESS:     411285  HIT:     411285  MISS:          0
cpu0_L1I RFO       ACCESS:          0  HIT:          0  MISS:          0
cpu0_L1I PREFETCH  ACCESS:          0  HIT:          0  MISS:          0
cpu0_L1I WRITEBACK ACCESS:          0  HIT:          0  MISS:          0
cpu0_STLB TOTAL     ACCESS:       9760  HIT:       9747  MISS:         13
cpu0_STLB LOAD      ACCESS:       8716  HIT:       8703  MISS:         13
cpu0_STLB RFO       ACCESS:       1044  HIT:       1044  MISS:          0
cpu0_STLB PREFETCH  ACCESS:          0  HIT:          0  MISS:          0
cpu0_STLB WRITEBACK ACCESS:          0  HIT:          0  MISS:          0
cpu0_L1D TOTAL     ACCESS:    6904902  HIT:    6903028  MISS:       1874
cpu0_L1D LOAD      ACCESS:    4462569  HIT:    4460869  MISS:       1700
cpu0_L1D RFO       ACCESS:    2442320  HIT:    2442159  MISS:        161
cpu0_L1D PREFETCH  ACCESS:          0  HIT:          0  MISS:          0
cpu0_L1D WRITEBACK ACCESS:          0  HIT:          0  MISS:          0
cpu0_L2C TOTAL     ACCESS:       2031  HIT:        925  MISS:       1106
cpu0_L2C LOAD      ACCESS:       1700  HIT:        691  MISS:       1009
cpu0_L2C RFO       ACCESS:        161  HIT:         64  MISS:         97
cpu0_L2C PREFETCH  ACCESS:          0  HIT:          0  MISS:          0
cpu0_L2C WRITEBACK ACCESS:        157  HIT:        157  MISS:          0
LLC TOTAL     ACCESS:       1108  HIT:          2  MISS:       1106
LLC LOAD      ACCESS:       1009  HIT:          0  MISS:       1009
LLC RFO       ACCESS:         97  HIT:          0  MISS:         97
LLC PREFETCH  ACCESS:          0  HIT:          0  MISS:          0
LLC WRITEBACK ACCESS:          2  HIT:          2  MISS:          0
Heartbeat CPU 0 instructions: 88000001 cycles: 41964212 heartbeat IPC: 1.28707 cumulative IPC: 1.2897 (Simulation time: 0 hr 40 min 36 sec) 

Region of Interest Statistics
cpu0_DTLB TOTAL     ACCESS:    5479789  HIT:    5469482  MISS:      10307
cpu0_DTLB LOAD      ACCESS:    4062929  HIT:    4053725  MISS:       9204
cpu0_DTLB RFO       ACCESS:    1416860  HIT:    1415757  MISS:       1103
cpu0_DTLB PREFETCH  ACCESS:          0  HIT:          0  MISS:          0
cpu0_DTLB WRITEBACK ACCESS:          0  HIT:          0  MISS:          0
cpu0_ITLB TOTAL     ACCESS:    4289243  HIT:    4289243  MISS:          0
cpu0_ITLB LOAD      ACCESS:    4289243  HIT:    4289243  MISS:          0
cpu0_ITLB RFO       ACCESS:          0  HIT:          0  MISS:          0
cpu0_ITLB PREFETCH  ACCESS:          0  HIT:          0  MISS:          0
cpu0_ITLB WRITEBACK ACCESS:          0  HIT:          0  MISS:          0
cpu0_L1I TOTAL     ACCESS:     434143  HIT:     434143  MISS:          0
cpu0_L1I LOAD      ACCESS:     434143  HIT:     434143  MISS:          0
cpu0_L1I RFO       ACCESS:          0  HIT:          0  MISS:          0
cpu0_L1I PREFETCH  ACCESS:          0  HIT:          0  MISS:          0
cpu0_L1I WRITEBACK ACCESS:          0  HIT:          0  MISS:          0
cpu0_STLB TOTAL     ACCESS:      10307  HIT:      10294  MISS:         13
cpu0_STLB LOAD      ACCESS:       9204  HIT:       9191  MISS:         13
cpu0_STLB RFO       ACCESS:       1103  HIT:       1103  MISS:          0
cpu0_STLB PREFETCH  ACCESS:          0  HIT:          0  MISS:          0
cpu0_STLB WRITEBACK ACCESS:          0  HIT:          0  MISS:          0
cpu0_L1D TOTAL     ACCESS:    7288581  HIT:    7286577  MISS:       2004
cpu0_L1D LOAD      ACCESS:    4710521  HIT:    4708703  MISS:       1818
cpu0_L1D RFO       ACCESS:    2578047  HIT:    2577874  MISS:        173
cpu0_L1D PREFETCH  ACCESS:          0  HIT:          0  MISS:          0
cpu0_L1D WRITEBACK ACCESS:          0  HIT:          0  MISS:          0
cpu0_L2C TOTAL     ACCESS:       2174  HIT:        973  MISS:       1201
cpu0_L2C LOAD      ACCESS:       1818  HIT:        722  MISS:       1096
cpu0_L2C RFO       ACCESS:        173  HIT:         68  MISS:        105
cpu0_L2C PREFETCH  ACCESS:          0  HIT:          0  MISS:          0
cpu0_L2C WRITEBACK ACCESS:        170  HIT:        170  MISS:          0
LLC TOTAL     ACCESS:       1203  HIT:          2  MISS:       1201
LLC LOAD      ACCESS:       1096  HIT:          0  MISS:       1096
LLC RFO       ACCESS:        105  HIT:          0  MISS:        105
LLC PREFETCH  ACCESS:          0  HIT:          0  MISS:          0
LLC WRITEBACK ACCESS:          2  HIT:          2  MISS:          0
Heartbeat CPU 0 instructions: 90000004 cycles: 43512510 heartbeat IPC: 1.29174 cumulative IPC: 1.28981 (Simulation time: 0 hr 41 min 25 sec) 

Region of Interest Statistics
cpu0_DTLB TOTAL     ACCESS:    5768190  HIT:    5757336  MISS:      10854
cpu0_DTLB LOAD      ACCESS:    4276760  HIT:    4267068  MISS:       9692
cpu0_DTLB RFO       ACCESS:    1491430  HIT:    1490268  MISS:       1162
cpu0_DTLB PREFETCH  ACCESS:          0  HIT:          0  MISS:          0
cpu0_DTLB WRITEBACK ACCESS:          0  HIT:          0  MISS:          0
cpu0_ITLB TOTAL     ACCESS:    4514989  HIT:    4514989  MISS:          0
cpu0_ITLB LOAD      ACCESS:    4514989  HIT:    4514989  MISS:          0
cpu0_ITLB RFO       ACCESS:          0  HIT:          0  MISS:          0
cpu0_ITLB PREFETCH  ACCESS:          0  HIT:          0  MISS:          0
cpu0_ITLB WRITEBACK ACCESS:          0  HIT:          0  MISS:          0
cpu0_L1I TOTAL     ACCESS:     456998  HIT:     456998  MISS:          0
cpu0_L1I LOAD      ACCESS:     456998  HIT:     456998  MISS:          0
cpu0_L1I RFO       ACCESS:          0  HIT:          0  MISS:          0
cpu0_L1I PREFETCH  ACCESS:          0  HIT:          0  MISS:          0
cpu0_L1I WRITEBACK ACCESS:          0  HIT:          0  MISS:          0
cpu0_STLB TOTAL     ACCESS:      10854  HIT:      10841  MISS:         13
cpu0_STLB LOAD      ACCESS:       9692  HIT:       9679  MISS:         13
cpu0_STLB RFO       ACCESS:       1162  HIT:       1162  MISS:          0
cpu0_STLB PREFETCH  ACCESS:          0  HIT:          0  MISS:          0
cpu0_STLB WRITEBACK ACCESS:          0  HIT:          0  MISS:          0
cpu0_L1D TOTAL     ACCESS:    7672228  HIT:    7670135  MISS:       2093
cpu0_L1D LOAD      ACCESS:    4958468  HIT:    4956568  MISS:       1900
cpu0_L1D RFO       ACCESS:    2713747  HIT:    2713567  MISS:        180
cpu0_L1D PREFETCH  ACCESS:          0  HIT:          0  MISS:          0
cpu0_L1D WRITEBACK ACCESS:          0  HIT:          0  MISS:          0
cpu0_L2C TOTAL     ACCESS:       2272  HIT:       1034  MISS:       1238
cpu0_L2C LOAD      ACCESS:       1900  HIT:        770  MISS:       1130
cpu0_L2C RFO       ACCESS:        180  HIT:         72  MISS:        108
cpu0_L2C PREFETCH  ACCESS:          0  HIT:          0  MISS:          0
cpu0_L2C WRITEBACK ACCESS:        179  HIT:        179  MISS:          0
LLC TOTAL     ACCESS:       1240  HIT:          2  MISS:       1238
LLC LOAD      ACCESS:       1130  HIT:          0  MISS:       1130
LLC RFO       ACCESS:        108  HIT:          0  MISS:        108
LLC PREFETCH  ACCESS:          0  HIT:          0  MISS:          0
LLC WRITEBACK ACCESS:          2  HIT:          2  MISS:          0
Heartbeat CPU 0 instructions: 92000004 cycles: 45063560 heartbeat IPC: 1.28945 cumulative IPC: 1.28979 (Simulation time: 0 hr 42 min 16 sec) 

Region of Interest Statistics
cpu0_DTLB TOTAL     ACCESS:    6056624  HIT:    6045225  MISS:      11399
cpu0_DTLB LOAD      ACCESS:    4490607  HIT:    4480429  MISS:      10178
cpu0_DTLB RFO       ACCESS:    1566017  HIT:    1564796  MISS:       1221
cpu0_DTLB PREFETCH  ACCESS:          0  HIT:          0  MISS:          0
cpu0_DTLB WRITEBACK ACCESS:          0  HIT:          0  MISS:          0
cpu0_ITLB TOTAL     ACCESS:    4740739  HIT:    4740739  MISS:          0
cpu0_ITLB LOAD      ACCESS:    4740739  HIT:    4740739  MISS:          0
cpu0_ITLB RFO       ACCESS:          0  HIT:          0  MISS:          0
cpu0_ITLB PREFETCH  ACCESS:          0  HIT:          0  MISS:          0
cpu0_ITLB WRITEBACK ACCESS:          0  HIT:          0  MISS:          0
cpu0_L1I TOTAL     ACCESS:     479857  HIT:     479857  MISS:          0
cpu0_L1I LOAD      ACCESS:     479857  HIT:     479857  MISS:          0
cpu0_L1I RFO       ACCESS:          0  HIT:          0  MISS:          0
cpu0_L1I PREFETCH  ACCESS:          0  HIT:          0  MISS:          0
cpu0_L1I WRITEBACK ACCESS:          0  HIT:          0  MISS:          0
cpu0_STLB TOTAL     ACCESS:      11399  HIT:      11386  MISS:         13
cpu0_STLB LOAD      ACCESS:      10178  HIT:      10165  MISS:         13
cpu0_STLB RFO       ACCESS:       1221  HIT:       1221  MISS:          0
cpu0_STLB PREFETCH  ACCESS:          0  HIT:          0  MISS:          0
cpu0_STLB WRITEBACK ACCESS:          0  HIT:          0  MISS:          0
cpu0_L1D TOTAL     ACCESS:    8055816  HIT:    8053618  MISS:       2198
cpu0_L1D LOAD      ACCESS:    5206350  HIT:    5204354  MISS:       1996
cpu0_L1D RFO       ACCESS:    2849453  HIT:    2849264  MISS:        189
cpu0_L1D PREFETCH  ACCESS:          0  HIT:          0  MISS:          0
cpu0_L1D WRITEBACK ACCESS:          0  HIT:          0  MISS:          0
cpu0_L2C TOTAL     ACCESS:       2387  HIT:       1073  MISS:       1314
cpu0_L2C LOAD      ACCESS:       1996  HIT:        797  MISS:       1199
cpu0_L2C RFO       ACCESS:        189  HIT:         74  MISS:        115
cpu0_L2C PREFETCH  ACCESS:          0  HIT:          0  MISS:          0
cpu0_L2C WRITEBACK ACCESS:        189  HIT:        189  MISS:          0
LLC TOTAL     ACCESS:       1316  HIT:          2  MISS:       1314
LLC LOAD      ACCESS:       1199  HIT:          0  MISS:       1199
LLC RFO       ACCESS:        115  HIT:          0  MISS:        115
LLC PREFETCH  ACCESS:          0  HIT:          0  MISS:          0
LLC WRITEBACK ACCESS:          2  HIT:          2  MISS:          0
Heartbeat CPU 0 instructions: 94000002 cycles: 46612772 heartbeat IPC: 1.29098 cumulative IPC: 1.28984 (Simulation time: 0 hr 43 min 8 sec) 

Region of Interest Statistics
cpu0_DTLB TOTAL     ACCESS:    6345030  HIT:    6333085  MISS:      11945
cpu0_DTLB LOAD      ACCESS:    4704431  HIT:    4693766  MISS:      10665
cpu0_DTLB RFO       ACCESS:    1640599  HIT:    1639319  MISS:       1280
cpu0_DTLB PREFETCH  ACCESS:          0  HIT:          0  MISS:          0
cpu0_DTLB WRITEBACK ACCESS:          0  HIT:          0  MISS:          0
cpu0_ITLB TOTAL     ACCESS:    4966506  HIT:    4966506  MISS:          0
cpu0_ITLB LOAD      ACCESS:    4966506  HIT:    4966506  MISS:          0
cpu0_ITLB RFO       ACCESS:          0  HIT:          0  MISS:          0
cpu0_ITLB PREFETCH  ACCESS:          0  HIT:          0  MISS:          0
cpu0_ITLB WRITEBACK ACCESS:          0  HIT:          0  MISS:          0
cpu0_L1I TOTAL     ACCESS:     502707  HIT:     502707  MISS:          0
cpu0_L1I LOAD      ACCESS:     502707  HIT:     502707  MISS:          0
cpu0_L1I RFO       ACCESS:          0  HIT:          0  MISS:          0
cpu0_L1I PREFETCH  ACCESS:          0  HIT:          0  MISS:          0
cpu0_L1I WRITEBACK ACCESS:          0  HIT:          0  MISS:          0
cpu0_STLB TOTAL     ACCESS:      11945  HIT:      11931  MISS:         14
cpu0_STLB LOAD      ACCESS:      10665  HIT:      10651  MISS:         14
cpu0_STLB RFO       ACCESS:       1280  HIT:       1280  MISS:          0
cpu0_STLB PREFETCH  ACCESS:          0  HIT:          0  MISS:          0
cpu0_STLB WRITEBACK ACCESS:          0  HIT:          0  MISS:          0
cpu0_L1D TOTAL     ACCESS:    8439397  HIT:    8437114  MISS:       2283
cpu0_L1D LOAD      ACCESS:    5454230  HIT:    5452159  MISS:       2071
cpu0_L1D RFO       ACCESS:    2985153  HIT:    2984955  MISS:        198
cpu0_L1D PREFETCH  ACCESS:          0  HIT:          0  MISS:          0
cpu0_L1D WRITEBACK ACCESS:          0  HIT:          0  MISS:          0
cpu0_L2C TOTAL     ACCESS:       2481  HIT:       1130  MISS:       1351
cpu0_L2C LOAD      ACCESS:       2071  HIT:        838  MISS:       1233
cpu0_L2C RFO       ACCESS:        198  HIT:         80  MISS:        118
cpu0_L2C PREFETCH  ACCESS:          0  HIT:          0  MISS:          0
cpu0_L2C WRITEBACK ACCESS:        198  HIT:        198  MISS:          0
LLC TOTAL     ACCESS:       1353  HIT:          2  MISS:       1351
LLC LOAD      ACCESS:       1233  HIT:          0  MISS:       1233
LLC RFO       ACCESS:        118  HIT:          0  MISS:        118
LLC PREFETCH  ACCESS:          0  HIT:          0  MISS:          0
LLC WRITEBACK ACCESS:          2  HIT:          2  MISS:          0
Heartbeat CPU 0 instructions: 96000001 cycles: 48165669 heartbeat IPC: 1.28791 cumulative IPC: 1.28976 (Simulation time: 0 hr 43 min 59 sec) 

Region of Interest Statistics
cpu0_DTLB TOTAL     ACCESS:    6633443  HIT:    6620953  MISS:      12490
cpu0_DTLB LOAD      ACCESS:    4918275  HIT:    4907124  MISS:      11151
cpu0_DTLB RFO       ACCESS:    1715168  HIT:    1713829  MISS:       1339
cpu0_DTLB PREFETCH  ACCESS:          0  HIT:          0  MISS:          0
cpu0_DTLB WRITEBACK ACCESS:          0  HIT:          0  MISS:          0
cpu0_ITLB TOTAL     ACCESS:    5192281  HIT:    5192281  MISS:          0
cpu0_ITLB LOAD      ACCESS:    5192281  HIT:    5192281  MISS:          0
cpu0_ITLB RFO       ACCESS:          0  HIT:          0  MISS:          0
cpu0_ITLB PREFETCH  ACCESS:          0  HIT:          0  MISS:          0
cpu0_ITLB WRITEBACK ACCESS:          0  HIT:          0  MISS:          0
cpu0_L1I TOTAL     ACCESS:     525543  HIT:     525543  MISS:          0
cpu0_L1I LOAD      ACCESS:     525543  HIT:     525543  MISS:          0
cpu0_L1I RFO       ACCESS:          0  HIT:          0  MISS:          0
cpu0_L1I PREFETCH  ACCESS:          0  HIT:          0  MISS:          0
cpu0_L1I WRITEBACK ACCESS:          0  HIT:          0  MISS:          0
cpu0_STLB TOTAL     ACCESS:      12490  HIT:      12475  MISS:         15
cpu0_STLB LOAD      ACCESS:      11151  HIT:      11136  MISS:         15
cpu0_STLB RFO       ACCESS:       1339  HIT:       1339  MISS:          0
cpu0_STLB PREFETCH  ACCESS:          0  HIT:          0  MISS:          0
cpu0_STLB WRITEBACK ACCESS:          0  HIT:          0  MISS:          0
cpu0_L1D TOTAL     ACCESS:    8822975  HIT:    8820546  MISS:       2429
cpu0_L1D LOAD      ACCESS:    5702154  HIT:    5699950  MISS:       2204
cpu0_L1D RFO       ACCESS:    3120806  HIT:    3120596  MISS:        210
cpu0_L1D PREFETCH  ACCESS:          0  HIT:          0  MISS:          0
cpu0_L1D WRITEBACK ACCESS:          0  HIT:          0  MISS:          0
cpu0_L2C TOTAL     ACCESS:       2637  HIT:       1191  MISS:       1446
cpu0_L2C LOAD      ACCESS:       2204  HIT:        884  MISS:       1320
cpu0_L2C RFO       ACCESS:        210  HIT:         84  MISS:        126
cpu0_L2C PREFETCH  ACCESS:          0  HIT:          0  MISS:          0
cpu0_L2C WRITEBACK ACCESS:        208  HIT:        208  MISS:          0
LLC TOTAL     ACCESS:       1448  HIT:          2  MISS:       1446
LLC LOAD      ACCESS:       1320  HIT:          0  MISS:       1320
LLC RFO       ACCESS:        126  HIT:          0  MISS:        126
LLC PREFETCH  ACCESS:          0  HIT:          0  MISS:          0
LLC WRITEBACK ACCESS:          2  HIT:          2  MISS:          0
Heartbeat CPU 0 instructions: 98000002 cycles: 49714057 heartbeat IPC: 1.29167 cumulative IPC: 1.28984 (Simulation time: 0 hr 44 min 53 sec) 

Region of Interest Statistics
cpu0_DTLB TOTAL     ACCESS:    6921886  HIT:    6908852  MISS:      13034
cpu0_DTLB LOAD      ACCESS:    5132158  HIT:    5120521  MISS:      11637
cpu0_DTLB RFO       ACCESS:    1789728  HIT:    1788331  MISS:       1397
cpu0_DTLB PREFETCH  ACCESS:          0  HIT:          0  MISS:          0
cpu0_DTLB WRITEBACK ACCESS:          0  HIT:          0  MISS:          0
cpu0_ITLB TOTAL     ACCESS:    5418052  HIT:    5418052  MISS:          0
cpu0_ITLB LOAD      ACCESS:    5418052  HIT:    5418052  MISS:          0
cpu0_ITLB RFO       ACCESS:          0  HIT:          0  MISS:          0
cpu0_ITLB PREFETCH  ACCESS:          0  HIT:          0  MISS:          0
cpu0_ITLB WRITEBACK ACCESS:          0  HIT:          0  MISS:          0
cpu0_L1I TOTAL     ACCESS:     548352  HIT:     548352  MISS:          0
cpu0_L1I LOAD      ACCESS:     548352  HIT:     548352  MISS:          0
cpu0_L1I RFO       ACCESS:          0  HIT:          0  MISS:          0
cpu0_L1I PREFETCH  ACCESS:          0  HIT:          0  MISS:          0
cpu0_L1I WRITEBACK ACCESS:          0  HIT:          0  MISS:          0
cpu0_STLB TOTAL     ACCESS:      13034  HIT:      13019  MISS:         15
cpu0_STLB LOAD      ACCESS:      11637  HIT:      11622  MISS:         15
cpu0_STLB RFO       ACCESS:       1397  HIT:       1397  MISS:          0
cpu0_STLB PREFETCH  ACCESS:          0  HIT:          0  MISS:          0
cpu0_STLB WRITEBACK ACCESS:          0  HIT:          0  MISS:          0
cpu0_L1D TOTAL     ACCESS:    9206557  HIT:    9204032  MISS:       2525
cpu0_L1D LOAD      ACCESS:    5950095  HIT:    5947804  MISS:       2291
cpu0_L1D RFO       ACCESS:    3256447  HIT:    3256228  MISS:        219
cpu0_L1D PREFETCH  ACCESS:          0  HIT:          0  MISS:          0
cpu0_L1D WRITEBACK ACCESS:          0  HIT:          0  MISS:          0
cpu0_L2C TOTAL     ACCESS:       2740  HIT:       1264  MISS:       1476
cpu0_L2C LOAD      ACCESS:       2291  HIT:        944  MISS:       1347
cpu0_L2C RFO       ACCESS:        219  HIT:         90  MISS:        129
cpu0_L2C PREFETCH  ACCESS:          0  HIT:          0  MISS:          0
cpu0_L2C WRITEBACK ACCESS:        215  HIT:        215  MISS:          0
LLC TOTAL     ACCESS:       1478  HIT:          2  MISS:       1476
LLC LOAD      ACCESS:       1347  HIT:          0  MISS:       1347
LLC RFO       ACCESS:        129  HIT:          0  MISS:        129
LLC PREFETCH  ACCESS:          0  HIT:          0  MISS:          0
LLC WRITEBACK ACCESS:          2  HIT:          2  MISS:          0
Heartbeat CPU 0 instructions: 100000002 cycles: 51265733 heartbeat IPC: 1.28893 cumulative IPC: 1.2898 (Simulation time: 0 hr 45 min 45 sec) 

Region of Interest Statistics
cpu0_DTLB TOTAL     ACCESS:    7210318  HIT:    7196739  MISS:      13579
cpu0_DTLB LOAD      ACCESS:    5346022  HIT:    5333899  MISS:      12123
cpu0_DTLB RFO       ACCESS:    1864296  HIT:    1862840  MISS:       1456
cpu0_DTLB PREFETCH  ACCESS:          0  HIT:          0  MISS:          0
cpu0_DTLB WRITEBACK ACCESS:          0  HIT:          0  MISS:          0
cpu0_ITLB TOTAL     ACCESS:    5643804  HIT:    5643804  MISS:          0
cpu0_ITLB LOAD      ACCESS:    5643804  HIT:    5643804  MISS:          0
cpu0_ITLB RFO       ACCESS:          0  HIT:          0  MISS:          0
cpu0_ITLB PREFETCH  ACCESS:          0  HIT:          0  MISS:          0
cpu0_ITLB WRITEBACK ACCESS:          0  HIT:          0  MISS:          0
cpu0_L1I TOTAL     ACCESS:     571211  HIT:     571211  MISS:          0
cpu0_L1I LOAD      ACCESS:     571211  HIT:     571211  MISS:          0
cpu0_L1I RFO       ACCESS:          0  HIT:          0  MISS:          0
cpu0_L1I PREFETCH  ACCESS:          0  HIT:          0  MISS:          0
cpu0_L1I WRITEBACK ACCESS:          0  HIT:          0  MISS:          0
cpu0_STLB TOTAL     ACCESS:      13579  HIT:      13563  MISS:         16
cpu0_STLB LOAD      ACCESS:      12123  HIT:      12107  MISS:         16
cpu0_STLB RFO       ACCESS:       1456  HIT:       1456  MISS:          0
cpu0_STLB PREFETCH  ACCESS:          0  HIT:          0  MISS:          0
cpu0_STLB WRITEBACK ACCESS:          0  HIT:          0  MISS:          0
cpu0_L1D TOTAL     ACCESS:    9590150  HIT:    9587500  MISS:       2650
cpu0_L1D LOAD      ACCESS:    6198002  HIT:    6195598  MISS:       2404
cpu0_L1D RFO       ACCESS:    3392132  HIT:    3391902  MISS:        230
cpu0_L1D PREFETCH  ACCESS:          0  HIT:          0  MISS:          0
cpu0_L1D WRITEBACK ACCESS:          0  HIT:          0  MISS:          0
cpu0_L2C TOTAL     ACCESS:       2878  HIT:       1319  MISS:       1559
cpu0_L2C LOAD      ACCESS:       2404  HIT:        983  MISS:       1421
cpu0_L2C RFO       ACCESS:        230  HIT:         93  MISS:        137
cpu0_L2C PREFETCH  ACCESS:          0  HIT:          0  MISS:          0
cpu0_L2C WRITEBACK ACCESS:        228  HIT:        228  MISS:          0
LLC TOTAL     ACCESS:       1562  HIT:          4  MISS:       1558
LLC LOAD      ACCESS:       1421  HIT:          0  MISS:       1421
LLC RFO       ACCESS:        137  HIT:          0  MISS:        137
LLC PREFETCH  ACCESS:          0  HIT:          0  MISS:          0
LLC WRITEBACK ACCESS:          3  HIT:          3  MISS:          0
Heartbeat CPU 0 instructions: 102000002 cycles: 52814647 heartbeat IPC: 1.29123 cumulative IPC: 1.28986 (Simulation time: 0 hr 46 min 36 sec) 

Region of Interest Statistics
cpu0_DTLB TOTAL     ACCESS:    7498743  HIT:    7484619  MISS:      14124
cpu0_DTLB LOAD      ACCESS:    5559901  HIT:    5547292  MISS:      12609
cpu0_DTLB RFO       ACCESS:    1938842  HIT:    1937327  MISS:       1515
cpu0_DTLB PREFETCH  ACCESS:          0  HIT:          0  MISS:          0
cpu0_DTLB WRITEBACK ACCESS:          0  HIT:          0  MISS:          0
cpu0_ITLB TOTAL     ACCESS:    5869562  HIT:    5869562  MISS:          0
cpu0_ITLB LOAD      ACCESS:    5869562  HIT:    5869562  MISS:          0
cpu0_ITLB RFO       ACCESS:          0  HIT:          0  MISS:          0
cpu0_ITLB PREFETCH  ACCESS:          0  HIT:          0  MISS:          0
cpu0_ITLB WRITEBACK ACCESS:          0  HIT:          0  MISS:          0
cpu0_L1I TOTAL     ACCESS:     594053  HIT:     594053  MISS:          0
cpu0_L1I LOAD      ACCESS:     594053  HIT:     594053  MISS:          0
cpu0_L1I RFO       ACCESS:          0  HIT:          0  MISS:          0
cpu0_L1I PREFETCH  ACCESS:          0  HIT:          0  MISS:          0
cpu0_L1I WRITEBACK ACCESS:          0  HIT:          0  MISS:          0
cpu0_STLB TOTAL     ACCESS:      14124  HIT:      14108  MISS:         16
cpu0_STLB LOAD      ACCESS:      12609  HIT:      12593  MISS:         16
cpu0_STLB RFO       ACCESS:       1515  HIT:       1515  MISS:          0
cpu0_STLB PREFETCH  ACCESS:          0  HIT:          0  MISS:          0
cpu0_STLB WRITEBACK ACCESS:          0  HIT:          0  MISS:          0
cpu0_L1D TOTAL     ACCESS:    9973727  HIT:    9970994  MISS:       2733
cpu0_L1D LOAD      ACCESS:    6445941  HIT:    6443461  MISS:       2480
cpu0_L1D RFO       ACCESS:    3527770  HIT:    3527533  MISS:        237
cpu0_L1D PREFETCH  ACCESS:          0  HIT:          0  MISS:          0
cpu0_L1D WRITEBACK ACCESS:          0  HIT:          0  MISS:          0
cpu0_L2C TOTAL     ACCESS:       2967  HIT:       1368  MISS:       1599
cpu0_L2C LOAD      ACCESS:       2480  HIT:       1022  MISS:       1458
cpu0_L2C RFO       ACCESS:        237  HIT:         97  MISS:        140
cpu0_L2C PREFETCH  ACCESS:          0  HIT:          0  MISS:          0
cpu0_L2C WRITEBACK ACCESS:        234  HIT:        234  MISS:          0
LLC TOTAL     ACCESS:       1602  HIT:          4  MISS:       1598
LLC LOAD      ACCESS:       1458  HIT:          0  MISS:       1458
LLC RFO       ACCESS:        140  HIT:          0  MISS:        140
LLC PREFETCH  ACCESS:          0  HIT:          0  MISS:          0
LLC WRITEBACK ACCESS:          3  HIT:          3  MISS:          0
Heartbeat CPU 0 instructions: 104000002 cycles: 54368468 heartbeat IPC: 1.28715 cumulative IPC: 1.28976 (Simulation time: 0 hr 47 min 26 sec) 

Region of Interest Statistics
cpu0_DTLB TOTAL     ACCESS:    7787141  HIT:    7772486  MISS:      14655
cpu0_DTLB LOAD      ACCESS:    5773741  HIT:    5760659  MISS:      13082
cpu0_DTLB RFO       ACCESS:    2013400  HIT:    2011827  MISS:       1573
cpu0_DTLB PREFETCH  ACCESS:          0  HIT:          0  MISS:          0
cpu0_DTLB WRITEBACK ACCESS:          0  HIT:          0  MISS:          0
cpu0_ITLB TOTAL     ACCESS:    6095383  HIT:    6095383  MISS:          0
cpu0_ITLB LOAD      ACCESS:    6095383  HIT:    6095383  MISS:          0
cpu0_ITLB RFO       ACCESS:          0  HIT:          0  MISS:          0
cpu0_ITLB PREFETCH  ACCESS:          0  HIT:          0  MISS:          0
cpu0_ITLB WRITEBACK ACCESS:          0  HIT:          0  MISS:          0
cpu0_L1I TOTAL     ACCESS:     616791  HIT:     616791  MISS:          0
cpu0_L1I LOAD      ACCESS:     616791  HIT:     616791  MISS:          0
cpu0_L1I RFO       ACCESS:          0  HIT:          0  MISS:          0
cpu0_L1I PREFETCH  ACCESS:          0  HIT:          0  MISS:          0
cpu0_L1I WRITEBACK ACCESS:          0  HIT:          0  MISS:          0
cpu0_STLB TOTAL     ACCESS:      14655  HIT:      14639  MISS:         16
cpu0_STLB LOAD      ACCESS:      13082  HIT:      13066  MISS:         16
cpu0_STLB RFO       ACCESS:       1573  HIT:       1573  MISS:          0
cpu0_STLB PREFETCH  ACCESS:          0  HIT:          0  MISS:          0
cpu0_STLB WRITEBACK ACCESS:          0  HIT:          0  MISS:          0
cpu0_L1D TOTAL     ACCESS:   10357333  HIT:   10354477  MISS:       2856
cpu0_L1D LOAD      ACCESS:    6693901  HIT:    6691309  MISS:       2592
cpu0_L1D RFO       ACCESS:    3663416  HIT:    3663168  MISS:        248
cpu0_L1D PREFETCH  ACCESS:          0  HIT:          0  MISS:          0
cpu0_L1D WRITEBACK ACCESS:          0  HIT:          0  MISS:          0
cpu0_L2C TOTAL     ACCESS:       3098  HIT:       1405  MISS:       1693
cpu0_L2C LOAD      ACCESS:       2592  HIT:       1048  MISS:       1544
cpu0_L2C RFO       ACCESS:        248  HIT:        100  MISS:        148
cpu0_L2C PREFETCH  ACCESS:          0  HIT:          0  MISS:          0
cpu0_L2C WRITEBACK ACCESS:        242  HIT:        242  MISS:          0
LLC TOTAL     ACCESS:       1696  HIT:          4  MISS:       1692
LLC LOAD      ACCESS:       1544  HIT:          0  MISS:       1544
LLC RFO       ACCESS:        148  HIT:          0  MISS:        148
LLC PREFETCH  ACCESS:          0  HIT:          0  MISS:          0
LLC WRITEBACK ACCESS:          3  HIT:          3  MISS:          0
Heartbeat CPU 0 instructions: 106000003 cycles: 55916727 heartbeat IPC: 1.29177 cumulative IPC: 1.28983 (Simulation time: 0 hr 48 min 17 sec) 

Region of Interest Statistics
cpu0_DTLB TOTAL     ACCESS:    8075583  HIT:    8060382  MISS:      15201
cpu0_DTLB LOAD      ACCESS:    5987622  HIT:    5974053  MISS:      13569
cpu0_DTLB RFO       ACCESS:    2087961  HIT:    2086329  MISS:       1632
cpu0_DTLB PREFETCH  ACCESS:          0  HIT:          0  MISS:          0
cpu0_DTLB WRITEBACK ACCESS:          0  HIT:          0  MISS:          0
cpu0_ITLB TOTAL     ACCESS:    6321140  HIT:    6321140  MISS:          0
cpu0_ITLB LOAD      ACCESS:    6321140  HIT:    6321140  MISS:          0
cpu0_ITLB RFO       ACCESS:          0  HIT:          0  MISS:          0
cpu0_ITLB PREFETCH  ACCESS:          0  HIT:          0  MISS:          0
cpu0_ITLB WRITEBACK ACCESS:          0  HIT:          0  MISS:          0
cpu0_L1I TOTAL     ACCESS:     639629  HIT:     639629  MISS:          0
cpu0_L1I LOAD      ACCESS:     639629  HIT:     639629  MISS:          0
cpu0_L1I RFO       ACCESS:          0  HIT:          0  MISS:          0
cpu0_L1I PREFETCH  ACCESS:          0  HIT:          0  MISS:          0
cpu0_L1I WRITEBACK ACCESS:          0  HIT:          0  MISS:          0
cpu0_STLB TOTAL     ACCESS:      15201  HIT:      15185  MISS:         16
cpu0_STLB LOAD      ACCESS:      13569  HIT:      13553  MISS:         16
cpu0_STLB RFO       ACCESS:       1632  HIT:       1632  MISS:          0
cpu0_STLB PREFETCH  ACCESS:          0  HIT:          0  MISS:          0
cpu0_STLB WRITEBACK ACCESS:          0  HIT:          0  MISS:          0
cpu0_L1D TOTAL     ACCESS:   10740979  HIT:   10738045  MISS:       2934
cpu0_L1D LOAD      ACCESS:    6941877  HIT:    6939216  MISS:       2661
cpu0_L1D RFO       ACCESS:    3799086  HIT:    3798829  MISS:        257
cpu0_L1D PREFETCH  ACCESS:          0  HIT:          0  MISS:          0
cpu0_L1D WRITEBACK ACCESS:          0  HIT:          0  MISS:          0
cpu0_L2C TOTAL     ACCESS:       3188  HIT:       1462  MISS:       1726
cpu0_L2C LOAD      ACCESS:       2661  HIT:       1086  MISS:       1575
cpu0_L2C RFO       ACCESS:        257  HIT:        107  MISS:        150
cpu0_L2C PREFETCH  ACCESS:          0  HIT:          0  MISS:          0
cpu0_L2C WRITEBACK ACCESS:        254  HIT:        254  MISS:          0
LLC TOTAL     ACCESS:       1730  HIT:          5  MISS:       1725
[...]
cpu0_STLB LOAD      ACCESS:    1088732  HIT:    1086087  MISS:       2645
cpu0_STLB RFO       ACCESS:     114397  HIT:     114367  MISS:         30
cpu0_STLB PREFETCH  ACCESS:          0  HIT:          0  MISS:          0
cpu0_STLB WRITEBACK ACCESS:          0  HIT:          0  MISS:          0
cpu0_L1D TOTAL     ACCESS:  291733808  HIT:  291267377  MISS:     466431
cpu0_L1D LOAD      ACCESS:  189912094  HIT:  189516937  MISS:     395157
cpu0_L1D RFO       ACCESS:  101819051  HIT:  101749468  MISS:      69583
cpu0_L1D PREFETCH  ACCESS:          0  HIT:          0  MISS:          0
cpu0_L1D WRITEBACK ACCESS:          0  HIT:          0  MISS:          0
cpu0_L2C TOTAL     ACCESS:     574137  HIT:     282648  MISS:     291489
cpu0_L2C LOAD      ACCESS:     395228  HIT:     167995  MISS:     227233
cpu0_L2C RFO       ACCESS:      69581  HIT:       6273  MISS:      63308
cpu0_L2C PREFETCH  ACCESS:          0  HIT:          0  MISS:          0
cpu0_L2C WRITEBACK ACCESS:     107637  HIT:     107487  MISS:        150
LLC TOTAL     ACCESS:     381340  HIT:     278337  MISS:     103003
LLC LOAD      ACCESS:     227233  HIT:     135381  MISS:      91852
LLC RFO       ACCESS:      63308  HIT:      52187  MISS:      11121
LLC PREFETCH  ACCESS:          0  HIT:          0  MISS:          0
LLC WRITEBACK ACCESS:      90001  HIT:      89985  MISS:         16
Finished CPU 0 instructions: 1500000003 cycles: 1159529281 cumulative IPC: 1.29363 (Simulation time: 11 hr 16 min 30 sec) 

ChampSim completed all CPUs

Region of Interest Statistics

CPU 0 cumulative IPC: 1.29363 instructions: 1500000003 cycles: 1159529281
cpu0_DTLB TOTAL     ACCESS:  220432746  HIT:  219229619  MISS:    1203127
cpu0_DTLB LOAD      ACCESS:  164427437  HIT:  163338707  MISS:    1088730
cpu0_DTLB RFO       ACCESS:   56005309  HIT:   55890912  MISS:     114397
cpu0_DTLB PREFETCH  ACCESS:          0  HIT:          0  MISS:          0
cpu0_DTLB WRITEBACK ACCESS:          0  HIT:          0  MISS:          0
cpu0_DTLB TRANSLATION ACCESS:          0  HIT:          0  MISS:          0
cpu0_DTLB PREFETCH  REQUESTED:          0  ISSUED:          0  USEFUL:          0  USELESS:          0
cpu0_DTLB AVERAGE MISS LATENCY: 9.64768 cycles
cpu0_ITLB TOTAL     ACCESS:  166146027  HIT:  166146025  MISS:          2
cpu0_ITLB LOAD      ACCESS:  166146027  HIT:  166146025  MISS:          2
cpu0_ITLB RFO       ACCESS:          0  HIT:          0  MISS:          0
cpu0_ITLB PREFETCH  ACCESS:          0  HIT:          0  MISS:          0
cpu0_ITLB WRITEBACK ACCESS:          0  HIT:          0  MISS:          0
cpu0_ITLB TRANSLATION ACCESS:          0  HIT:          0  MISS:          0
cpu0_ITLB PREFETCH  REQUESTED:          0  ISSUED:          0  USEFUL:          0  USELESS:          0
cpu0_ITLB AVERAGE MISS LATENCY: 217 cycles
cpu0_L1I TOTAL     ACCESS:   20899299  HIT:   20899225  MISS:         74
cpu0_L1I LOAD      ACCESS:   20899299  HIT:   20899225  MISS:         74
cpu0_L1I RFO       ACCESS:          0  HIT:          0  MISS:          0
cpu0_L1I PREFETCH  ACCESS:          0  HIT:          0  MISS:          0
cpu0_L1I WRITEBACK ACCESS:          0  HIT:          0  MISS:          0
cpu0_L1I TRANSLATION ACCESS:          0  HIT:          0  MISS:          0
cpu0_L1I PREFETCH  REQUESTED:          0  ISSUED:          0  USEFUL:          0  USELESS:          0
cpu0_L1I AVERAGE MISS LATENCY: 276.405 cycles
cpu0_STLB TOTAL     ACCESS:    1203129  HIT:    1200454  MISS:       2675
cpu0_STLB LOAD      ACCESS:    1088732  HIT:    1086087  MISS:       2645
cpu0_STLB RFO       ACCESS:     114397  HIT:     114367  MISS:         30
cpu0_STLB PREFETCH  ACCESS:          0  HIT:          0  MISS:          0
cpu0_STLB WRITEBACK ACCESS:          0  HIT:          0  MISS:          0
cpu0_STLB TRANSLATION ACCESS:          0  HIT:          0  MISS:          0
cpu0_STLB PREFETCH  REQUESTED:          0  ISSUED:          0  USEFUL:          0  USELESS:          0
cpu0_STLB AVERAGE MISS LATENCY: 219.449 cycles
cpu0_L1D TOTAL     ACCESS:  291733808  HIT:  291267377  MISS:     466431
cpu0_L1D LOAD      ACCESS:  189912094  HIT:  189516937  MISS:     395157
cpu0_L1D RFO       ACCESS:  101819051  HIT:  101749468  MISS:      69583
cpu0_L1D PREFETCH  ACCESS:          0  HIT:          0  MISS:          0
cpu0_L1D WRITEBACK ACCESS:          0  HIT:          0  MISS:          0
cpu0_L1D TRANSLATION ACCESS:       2663  HIT:        972  MISS:       1691
cpu0_L1D PREFETCH  REQUESTED:          0  ISSUED:          0  USEFUL:          0  USELESS:          0
cpu0_L1D AVERAGE MISS LATENCY: 73.1454 cycles
cpu0_L2C TOTAL     ACCESS:     574137  HIT:     282648  MISS:     291489
cpu0_L2C LOAD      ACCESS:     395228  HIT:     167995  MISS:     227233
cpu0_L2C RFO       ACCESS:      69581  HIT:       6273  MISS:      63308
cpu0_L2C PREFETCH  ACCESS:          0  HIT:          0  MISS:          0
cpu0_L2C WRITEBACK ACCESS:     107637  HIT:     107487  MISS:        150
cpu0_L2C TRANSLATION ACCESS:       1691  HIT:        893  MISS:        798
cpu0_L2C PREFETCH  REQUESTED:          0  ISSUED:          0  USEFUL:          0  USELESS:          0
cpu0_L2C AVERAGE MISS LATENCY: 99.4161 cycles
LLC TOTAL     ACCESS:     381340  HIT:     278337  MISS:     103003
LLC LOAD      ACCESS:     227233  HIT:     135381  MISS:      91852
LLC RFO       ACCESS:      63308  HIT:      52187  MISS:      11121
LLC PREFETCH  ACCESS:          0  HIT:          0  MISS:          0
LLC WRITEBACK ACCESS:      90001  HIT:      89985  MISS:         16
LLC TRANSLATION ACCESS:        798  HIT:        784  MISS:         14
LLC PREFETCH  REQUESTED:          0  ISSUED:          0  USEFUL:          0  USELESS:          0
LLC AVERAGE MISS LATENCY: 221.941 cycles
~~~~~~~~~~Reuse Distance Profiler output~~~~~~~~~~
0	68458336	21824496
1	40051536	33560192
2	40279936	33023680
3	24537760	18864320
4	19501472	16150432
5	10415552	7646336
6	10087840	6845456
7	6867520	4183088
8	5710512	4149152
9	4635856	3403648
10	2834240	1977200
11	4299216	2962288
12	3083680	1988080
13	3041408	2133440
14	2000672	1225488
15	1366368	771680
16	1575696	1121264
17	1032160	663344
18	956224	825824
19	749264	568304
20	1148448	694320
21	1259872	1042848
22	624176	279536
23	789872	377040
24	779376	477504
25	812176	490880
26	695328	205664
27	706560	668096
28	471904	279904
29	438192	278704
30	416272	247744
31	885616	718864
32	685552	510656
33	277472	241040
34	250560	164736
35	207840	162464
36	184144	41424
37	332880	306528
38	63584	53856
39	127312	103296
40	471680	82032
41	449184	193952
42	480128	385696
43	448080	357088
44	241280	212176
45	189056	92112
46	173184	127120
47	241792	220592
48	355648	262848
49	246864	169584
50	322912	102608
51	447472	134928
52	153296	80512
53	696448	273776
54	137264	72928
55	218256	75920
56	108064	92304
57	169280	105136
58	494032	370928
59	446960	176848
60	341680	302576
61	168144	64352
62	131888	95072
63	568704	434848
64	235664	154000
66	530352	456736
68	540160	391632
70	304144	168960
72	607600	476768
74	275056	266064
76	502448	109104
78	196416	127280
80	376656	153424
82	471488	274656
84	983472	609152
86	622032	527040
88	289776	207296
90	245168	159424
92	452416	255152
94	237632	116320
96	106080	5136
98	138608	69040
100	164992	147968
102	257936	84176
104	372256	210256
106	239392	122976
108	211280	208736
110	108544	46336
112	220720	155472
114	165712	70400
116	94432	85824
118	332128	259616
120	291088	210048
122	251248	144096
124	536064	310064
126	249456	80896
128	613920	410144
132	432496	349920
136	518464	402144
140	326544	172080
144	239648	178864
148	211088	60720
152	208800	31696
156	132848	44560
160	559392	439280
164	708176	617008
168	822672	675984
172	245152	92224
176	42240	40176
180	8960	7136
184	106736	18288
188	112592	61200
192	281264	125952
196	49312	6880
200	130576	46960
204	128880	125824
208	172272	109792
212	300544	203744
216	801328	742224
220	92512	69440
224	166272	131520
228	193168	77424
232	186096	148768
236	347712	287728
240	332544	332544
244	405600	405600
248	113968	113968
252	31136	31136
256	28592	0
264	28576	28576
272	2784	2016
280	2048	2032
288	32	32
296	1984	16
304	21568	544
312	59632	59072
320	117184	86912
328	33728	960
336	149520	60112
344	24496	2480
352	48880	31056
360	61776	60768
368	22640	1920
376	30112	29152
384	87888	57504
392	34064	0
400	1472	496
408	135104	105008
416	3136	2000
424	27360	16
432	20560	0
440	20816	16
448	1936	0
456	8416	16
464	496	0
472	55344	5008
480	9536	0
488	46144	0
496	60384	38416
504	66032	66032
512	44256	44256
528	16	16
544	32816	32304
560	17712	17152
576	9840	0
592	21312	0
608	157440	142096
624	44368	576
640	3056	3040
656	528	528
672	3856	3856
688	0	0
704	16	16
720	0	0
736	0	0
752	0	0
768	576	576
784	496	496
800	32	32
816	5040	5040
832	4960	4960
848	0	0
864	20896	20896
880	39680	39680
896	3568	3552
912	38016	38016
928	20800	20800
944	16	16
960	0	0
976	0	0
992	28560	28560
1008	76416	76416
1024	75104	75088
1056	22368	480
1088	203232	191168
1120	35232	16
1152	263520	118016
1184	61248	992
1216	103856	102832
1248	1088	48
1280	59296	48
1312	60480	976
1344	976	0
1376	31120	0
1408	57296	32
1440	58512	48
1472	5856	4544
1504	1872	912
1536	80	64
1568	944	16
1600	82400	976
1632	22128	1088
1664	11584	0
1696	40128	480
1728	2592	1520
1760	2464	976
1792	1600	32
1824	2976	16
1856	896	896
1888	2400	992
1920	58656	29568
1952	31904	2592
1984	55952	5552
2016	32224	2576
2048	115456	34880
2112	135312	52352
2176	199344	92320
2240	89664	71136
2304	158848	30608
2368	236096	146784
2432	77360	45584
2496	147552	88208
2560	104720	63104
2624	24304	20112
2688	101152	70144
2752	138592	80576
2816	117664	85776
2880	74512	4496
2944	47248	25504
3008	172784	153072
3072	178192	106352
3136	250144	67552
3200	90848	3488
3264	75264	67408
3328	69600	9552
3392	114224	6256
3456	5472	4080
3520	2896	2880
3584	1760	1760
3648	1696	688
3712	176	144
3776	1008	0
3840	64	32
3904	32	16
3968	48	32
4032	0	0
4096	96	96
4224	1056	16
4352	33456	992
4480	11584	48
4608	64	32
4736	1152	160
4864	163200	163040
4992	522112	465712
5120	45936	6000
5248	143408	48
5376	55232	0
5504	32	32
5632	29072	16
5760	96	48
5888	29440	48
6016	30416	32
6144	70256	41280
6272	162784	104960
6400	1312	64
6528	16	16
6656	48	48
6784	96	96
6912	80	80
7040	1120	160
7168	1040	80
7296	1968	992
7424	80	48
7552	2624	48
7680	19072	16
7808	2992	1536
7936	36640	26208
8064	16288	12064
8192	128	128
8448	60368	96
8704	58784	128
8960	29056	48
9216	221792	95616
9472	1397168	1042816
9728	48	48
9984	80	80
10240	144	144
10496	96	96
10752	48	48
11008	80	80
11264	96	96
11520	96	96
11776	128	128
12032	176	176
12288	208	208
12544	2000	2000
12800	11088	11088
13056	10480	10480
13312	3456	3456
13568	8208	8208
13824	53552	53552
14080	24528	24528
14336	976	976
14592	16	16
14848	16	16
15104	32	32
15360	16	16
15616	32	32
15872	32	32
16128	32	32
16384	64	64
16896	80	80
17408	80	80
17920	48	48
18432	16	16
18944	0	0
19456	0	0
19968	0	0
20480	0	0
20992	0	0
21504	32	32
22016	16	16
22528	0	0
23040	0	0
23552	0	0
24064	0	0
24576	16	16
25088	16	16
25600	48	48
26112	96	96
26624	48	48
27136	64	64
27648	80	80
28160	16	16
28672	96	96
29184	48	48
29696	80	80
30208	48	48
30720	96	96
31232	32	32
31744	80	80
32256	96	96
32768	96	96
33792	128	128
34816	80	80
35840	16	16
36864	0	0
37888	0	0
38912	0	0
39936	0	0
40960	48	48
41984	32	32
43008	144	128
44032	144	144
45056	160	160
46080	80	80
47104	128	128
48128	128	128
49152	160	160
50176	112	112
51200	176	176
52224	96	96
53248	32	32
54272	16	16
55296	0	0
56320	32	16
57344	0	0
58368	32	32
59392	48	48
60416	16	16
61440	160	160
62464	96	96
63488	224	208
64512	128	128
65536	272	272
67584	288	240
69632	272	224
71680	32	32
73728	16	16
75776	96	64
77824	224	224
79872	272	272
81920	368	368
83968	336	336
86016	240	240
88064	128	128
90112	0	0
92160	48	48
94208	112	112
96256	288	272
98304	240	240
100352	272	272
102400	256	256
104448	272	256
106496	80	80
108544	96	64
110592	224	176
112640	160	160
114688	272	272
116736	256	256
118784	288	256
120832	240	240
122880	272	240
124928	128	128
126976	48	48
129024	64	64
131072	1360	1344
135168	1552	1504
139264	480	448
143360	912	912
147456	1104	1104
151552	448	448
155648	352	352
159744	224	208
163840	208	192
167936	416	400
172032	464	448
176128	512	480
180224	144	128
184320	320	304
188416	448	416
192512	448	448
196608	224	192
200704	416	368
204800	480	448
208896	704	672
212992	304	272
217088	256	224
221184	432	432
225280	528	512
229376	448	416
233472	112	80
237568	480	448
241664	736	704
245760	480	464
249856	80	80
253952	320	320
258048	416	400
262144	704	640
270336	816	688
278528	1072	880
286720	448	384
294912	1104	1008
303104	448	368
311296	3680	3584
319488	8272	7232
327680	1184	1120
335872	592	496
344064	1232	1152
352256	432	368
360448	1216	1152
368640	75024	74960
376832	252352	226448
385024	768	656
393216	784	736
401408	976	928
409600	608	560
417792	1136	1024
425984	720	624
434176	1056	976
442368	688	576
450560	976	944
458752	832	640
466944	1216	1056
475136	672	592
483328	1072	976
491520	864	800
499712	768	624
507904	1072	896
516096	672	544
524288	1664	1488
540672	1936	1648
557056	1968	1584
573440	1856	1616
589824	2048	1728
606208	2208	1904
622592	1824	1536
638976	1648	1360
655360	1552	1392
671744	704	480
688128	704	432
704512	640	304
720896	832	544
737280	768	464
753664	1040	608
770048	688	384
786432	784	432
802816	608	480
819200	640	432
835584	608	416
851968	816	544
868352	688	384
884736	720	528
901120	848	464
917504	912	576
933888	640	336
950272	752	496
966656	688	544
983040	944	640
999424	848	480
1015808	512	304
1032192	528	352
1048576	1664	1008
1081344	1488	928
1114112	1824	1184
1146880	1376	880
1179648	1488	944
1212416	1504	960
1245184	1392	880
1277952	1552	880
1310720	1360	816
1343488	1680	1040
1376256	1328	832
1409024	1344	944
1441792	1584	976
1474560	1872	1264
1507328	1536	960
1540096	1296	848
1572864	1296	864
1605632	1440	832
1638400	1536	1024
1671168	1392	912
1703936	1472	1008
1736704	1424	896
1769472	1616	960
1802240	1456	1024
1835008	1280	944
1867776	1216	848
1900544	1696	1056
1933312	1584	1056
1966080	1344	928
1998848	1504	976
2031616	1232	704
2064384	1648	1056
2097152	2672	1872
2162688	2736	1856
2228224	3008	1840
2293760	2640	1712
2359296	2768	1952
2424832	3056	1936
2490368	3056	1888
2555904	2544	1648
2621440	2176	1408
2686976	2000	1280
2752512	1520	800
2818048	1376	752
2883584	1056	720
2949120	944	624
3014656	736	448
3080192	576	480
3145728	272	224
3211264	144	64
3276800	48	32
3342336	48	32
3407872	32	32
3473408	32	16
3538944	16	0
3604480	16	16
3670016	80	64
3735552	32	0
3801088	16	16
3866624	32	16
3932160	0	0
3997696	0	0
4063232	0	0
4128768	0	0
4194304	32	32
4325376	64	16
4456448	80	64
4587520	80	48
4718592	16	0
4849664	64	48
4980736	48	32
5111808	144	112
5242880	48	32
5373952	32	32
5505024	16	0
5636096	32	32
5767168	0	0
5898240	128	48
6029312	64	16
6160384	64	32
6291456	0	0
6422528	16	0
6553600	48	16
6684672	64	32
6815744	32	32
6946816	48	32
7077888	32	16
7208960	80	64
7340032	112	80
7471104	48	32
7602176	16	16
7733248	64	16
7864320	48	16
7995392	16	16
8126464	80	32
8257536	48	16
8388608	32	0
8650752	48	48
8912896	176	112
9175040	48	48
9437184	64	16
9699328	224	144
9961472	96	64
10223616	80	32
10485760	240	144
10747904	64	16
11010048	80	32
11272192	144	128
11534336	0	0
11796480	80	32
12058624	112	96
12320768	64	16
12582912	64	48
12845056	192	160
13107200	48	16
13369344	80	48
13631488	128	64
13893632	48	32
14155776	96	48
14417920	160	128
14680064	80	32
14942208	96	80
15204352	112	112
15466496	64	32
15728640	128	112
15990784	80	16
16252928	48	16
16515072	80	64
16777216	144	96
17301504	224	128
17825792	208	160
18350080	128	96
18874368	256	208
19398656	224	160
19922944	144	112
20447232	192	128
20971520	240	96
21495808	160	160
22020096	112	48
22544384	224	160
23068672	128	112
23592960	128	96
24117248	128	112
24641536	192	160
25165824	80	48
25690112	112	64
26214400	192	128
26738688	144	96
27262976	112	48
27787264	144	112
28311552	64	32
28835840	240	192
29360128	112	96
29884416	176	112
30408704	144	112
30932992	192	128
31457280	112	80
31981568	144	112
32505856	160	96
33030144	112	80
33554432	464	352
34603008	352	256
35651584	448	320
36700160	224	176
37748736	304	224
38797312	352	256
39845888	304	224
40894464	352	288
41943040	464	288
42991616	336	272
44040192	384	256
45088768	464	320
46137344	432	336
47185920	416	288
48234496	192	160
49283072	368	304
50331648	272	208
51380224	320	192
52428800	288	208
53477376	208	160
54525952	256	176
55574528	544	384
56623104	336	256
57671680	288	192
58720256	368	304
59768832	288	192
60817408	272	208
61865984	416	320
62914560	288	208
63963136	336	256
65011712	320	288
66060288	192	176
67108864	656	480
69206016	640	512
71303168	752	528
73400320	352	272
75497472	336	144
77594624	336	240
79691776	560	368
81788928	336	192
83886080	448	288
85983232	320	224
88080384	496	336
90177536	416	240
92274688	288	192
94371840	448	320
96468992	560	272
98566144	336	128
100663296	432	272
102760448	496	368
104857600	416	256
106954752	336	176
109051904	480	336
111149056	464	304
113246208	288	144
115343360	464	288
117440512	528	384
119537664	416	304
121634816	320	240
123731968	432	224
125829120	272	160
127926272	432	288
130023424	352	224
132120576	432	256
134217728	736	528
138412032	672	432
142606336	880	688
146800640	688	336
150994944	784	528
155189248	736	384
159383552	832	608
163577856	624	384
167772160	1008	736
171966464	544	336
176160768	752	480
180355072	640	464
184549376	912	672
188743680	880	528
192937984	576	352
197132288	0	0
201326592	0	0
205520896	0	0
209715200	0	0
213909504	0	0
218103808	0	0
222298112	0	0
226492416	0	0
230686720	0	0
234881024	0	0
239075328	0	0
243269632	0	0
247463936	0	0
251658240	0	0
255852544	0	0
260046848	0	0
264241152	0	0
268435456	0	0
276824064	0	0
285212672	0	0
293601280	0	0
301989888	0	0
310378496	0	0
318767104	0	0
327155712	0	0
335544320	0	0
343932928	0	0
352321536	0	0
360710144	0	0
369098752	0	0
377487360	0	0
385875968	0	0
394264576	0	0
402653184	0	0
411041792	0	0
419430400	0	0
427819008	0	0
436207616	0	0
444596224	0	0
452984832	0	0
461373440	0	0
469762048	0	0
478150656	0	0
486539264	0	0
494927872	0	0
503316480	0	0
511705088	0	0
520093696	0	0
528482304	0	0
536870912	0	0
553648128	0	0
570425344	0	0
587202560	0	0
603979776	0	0
620756992	0	0
637534208	0	0
654311424	0	0
671088640	0	0
687865856	0	0
704643072	0	0
721420288	0	0
738197504	0	0
754974720	0	0
771751936	0	0
788529152	0	0
805306368	0	0
822083584	0	0
838860800	0	0
855638016	0	0
872415232	0	0
889192448	0	0
905969664	0	0
922746880	0	0
939524096	0	0
956301312	0	0
973078528	0	0
989855744	0	0
1006632960	0	0
1023410176	0	0
1040187392	0	0
1056964608	0	0
1073741824	0	0
1107296256	0	0
1140850688	0	0
1174405120	0	0
1207959552	0	0
1241513984	0	0
1275068416	0	0
1308622848	0	0
1342177280	0	0
1375731712	0	0
1409286144	0	0
1442840576	0	0
1476395008	0	0
1509949440	0	0
1543503872	0	0
1577058304	0	0
1610612736	0	0
1644167168	0	0
1677721600	0	0
1711276032	0	0
1744830464	0	0
1778384896	0	0
1811939328	0	0
1845493760	0	0
1879048192	0	0
1912602624	0	0
1946157056	0	0
1979711488	0	0
2013265920	0	0
2046820352	0	0
2080374784	0	0
2113929216	0	0
2147483648	0	0
2214592512	0	0
2281701376	0	0
2348810240	0	0
2415919104	0	0
2483027968	0	0
2550136832	0	0
2617245696	0	0
2684354560	0	0
2751463424	0	0
2818572288	0	0
2885681152	0	0
2952790016	0	0
3019898880	0	0
3087007744	0	0
3154116608	0	0
3221225472	0	0
3288334336	0	0
3355443200	0	0
3422552064	0	0
3489660928	0	0
3556769792	0	0
3623878656	0	0
3690987520	0	0
3758096384	0	0
3825205248	0	0
3892314112	0	0
3959422976	0	0
4026531840	0	0
4093640704	0	0
4160749568	0	0
4227858432	0	0
~~~~~~~~~~Reuse Distance Profiler output end~~~~~~~~~~

Sampler size:6460

DRAM Statistics
 CHANNEL 0
 RQ ROW_BUFFER_HIT:        449  ROW_BUFFER_MISS:     102538
 DBUS AVG_CONGESTED_CYCLE:    3.95355
 WQ ROW_BUFFER_HIT:         85  ROW_BUFFER_MISS:       1064  FULL:          0


CPU 0 Branch Prediction Accuracy: 75.0223% MPKI: 40.1585 Average ROB Occupancy at Mispredict: 25.733
Branch type MPKI
BRANCH_DIRECT_JUMP: 6.66667e-07
BRANCH_INDIRECT: 0
BRANCH_CONDITIONAL: 40.1585
BRANCH_DIRECT_CALL: 4.66667e-06
BRANCH_INDIRECT_CALL: 0
BRANCH_RETURN: 4.66667e-06

