
*** ChampSim Multicore Out-of-Order Simulator ***

Warmup Instructions: 50000000
Simulation Instructions: 1500000000
Number of CPUs: 1
Off-chip DRAM Size: 4 GiB Channels: 1 Width: 64-bit Data Rate: 3200 MT/s

VirtualMemory physical capacity: 8588881920 num_ppages: 2096895
VirtualMemory page size: 4096 log2_page_size: 12

CPU 0 runs /s/traces/champsim_traces/654.roms_s-293B.champsimtrace.xz
CPU 0 Bimodal branch predictor
Basic BTB sets: 1024 ways: 8 indirect buffer size: 4096 RAS size: 64
Initializing LRU.
Initializing LRU.
Initializing LRU.
Initializing LRU.
Initializing rdLRU.
Initializing LRU.
Initializing mockingjay of size: 2048
Heartbeat CPU 0 instructions: 2000000 cycles: 529422 heartbeat IPC: 3.7777 cumulative IPC: 3.7777 (Simulation time: 0 hr 1 min 20 sec) 
Heartbeat CPU 0 instructions: 4000004 cycles: 1125742 heartbeat IPC: 3.35391 cumulative IPC: 3.55322 (Simulation time: 0 hr 2 min 46 sec) 
Heartbeat CPU 0 instructions: 6000000 cycles: 1781003 heartbeat IPC: 3.05221 cumulative IPC: 3.36889 (Simulation time: 0 hr 4 min 19 sec) 
Heartbeat CPU 0 instructions: 8000001 cycles: 2310292 heartbeat IPC: 3.77866 cumulative IPC: 3.46277 (Simulation time: 0 hr 5 min 36 sec) 
Heartbeat CPU 0 instructions: 10000001 cycles: 2839581 heartbeat IPC: 3.77865 cumulative IPC: 3.52165 (Simulation time: 0 hr 6 min 51 sec) 
Heartbeat CPU 0 instructions: 12000002 cycles: 3561886 heartbeat IPC: 2.76891 cumulative IPC: 3.369 (Simulation time: 0 hr 8 min 29 sec) 
Heartbeat CPU 0 instructions: 14000001 cycles: 4091174 heartbeat IPC: 3.77866 cumulative IPC: 3.422 (Simulation time: 0 hr 9 min 42 sec) 
Heartbeat CPU 0 instructions: 16000003 cycles: 4620459 heartbeat IPC: 3.77869 cumulative IPC: 3.46286 (Simulation time: 0 hr 10 min 56 sec) 
Heartbeat CPU 0 instructions: 18000003 cycles: 5266185 heartbeat IPC: 3.09729 cumulative IPC: 3.41803 (Simulation time: 0 hr 12 min 24 sec) 
Heartbeat CPU 0 instructions: 20000000 cycles: 5872055 heartbeat IPC: 3.30103 cumulative IPC: 3.40596 (Simulation time: 0 hr 13 min 48 sec) 
Heartbeat CPU 0 instructions: 22000003 cycles: 6401342 heartbeat IPC: 3.77867 cumulative IPC: 3.43678 (Simulation time: 0 hr 15 min 5 sec) 
Heartbeat CPU 0 instructions: 24000002 cycles: 6932874 heartbeat IPC: 3.76271 cumulative IPC: 3.46177 (Simulation time: 0 hr 16 min 16 sec) 
Heartbeat CPU 0 instructions: 26000000 cycles: 7652931 heartbeat IPC: 2.77756 cumulative IPC: 3.39739 (Simulation time: 0 hr 17 min 52 sec) 
Heartbeat CPU 0 instructions: 28000001 cycles: 8182220 heartbeat IPC: 3.77866 cumulative IPC: 3.42205 (Simulation time: 0 hr 19 min 7 sec) 
Heartbeat CPU 0 instructions: 30000001 cycles: 8711509 heartbeat IPC: 3.77865 cumulative IPC: 3.44372 (Simulation time: 0 hr 20 min 19 sec) 
Heartbeat CPU 0 instructions: 32000003 cycles: 9406631 heartbeat IPC: 2.8772 cumulative IPC: 3.40186 (Simulation time: 0 hr 21 min 53 sec) 
Heartbeat CPU 0 instructions: 34000001 cycles: 9963098 heartbeat IPC: 3.5941 cumulative IPC: 3.41259 (Simulation time: 0 hr 23 min 13 sec) 
Heartbeat CPU 0 instructions: 36000002 cycles: 10492386 heartbeat IPC: 3.77866 cumulative IPC: 3.43106 (Simulation time: 0 hr 24 min 27 sec) 
Heartbeat CPU 0 instructions: 38000004 cycles: 11050493 heartbeat IPC: 3.58355 cumulative IPC: 3.43876 (Simulation time: 0 hr 25 min 45 sec) 
Heartbeat CPU 0 instructions: 40000002 cycles: 11743966 heartbeat IPC: 2.88403 cumulative IPC: 3.406 (Simulation time: 0 hr 27 min 23 sec) 
Heartbeat CPU 0 instructions: 42000002 cycles: 12273255 heartbeat IPC: 3.77865 cumulative IPC: 3.42208 (Simulation time: 0 hr 28 min 35 sec) 
Heartbeat CPU 0 instructions: 44000001 cycles: 12802553 heartbeat IPC: 3.77859 cumulative IPC: 3.43681 (Simulation time: 0 hr 29 min 47 sec) 
Heartbeat CPU 0 instructions: 46000002 cycles: 13524031 heartbeat IPC: 2.77209 cumulative IPC: 3.40135 (Simulation time: 0 hr 31 min 20 sec) 
Heartbeat CPU 0 instructions: 48000004 cycles: 14054135 heartbeat IPC: 3.77285 cumulative IPC: 3.41537 (Simulation time: 0 hr 32 min 32 sec) 
Heartbeat CPU 0 instructions: 50000004 cycles: 14583424 heartbeat IPC: 3.77865 cumulative IPC: 3.42855 (Simulation time: 0 hr 33 min 44 sec) 

Warmup complete CPU 0 instructions: 50000004 cycles: 14583424 (Simulation time: 0 hr 33 min 44 sec) 

Heartbeat CPU 0 instructions: 52000004 cycles: 15736526 heartbeat IPC: 1.73445 cumulative IPC: 1.73445 (Simulation time: 0 hr 35 min 42 sec) 

Region of Interest Statistics
cpu0_DTLB TOTAL     ACCESS:     474565  HIT:     474144  MISS:        421
cpu0_DTLB LOAD      ACCESS:     360182  HIT:     359892  MISS:        290
cpu0_DTLB RFO       ACCESS:     114383  HIT:     114252  MISS:        131
cpu0_DTLB PREFETCH  ACCESS:          0  HIT:          0  MISS:          0
cpu0_DTLB WRITEBACK ACCESS:          0  HIT:          0  MISS:          0
cpu0_ITLB TOTAL     ACCESS:       2661  HIT:       2661  MISS:          0
cpu0_ITLB LOAD      ACCESS:       2661  HIT:       2661  MISS:          0
cpu0_ITLB RFO       ACCESS:          0  HIT:          0  MISS:          0
cpu0_ITLB PREFETCH  ACCESS:          0  HIT:          0  MISS:          0
cpu0_ITLB WRITEBACK ACCESS:          0  HIT:          0  MISS:          0
cpu0_L1I TOTAL     ACCESS:        997  HIT:        997  MISS:          0
cpu0_L1I LOAD      ACCESS:        997  HIT:        997  MISS:          0
cpu0_L1I RFO       ACCESS:          0  HIT:          0  MISS:          0
cpu0_L1I PREFETCH  ACCESS:          0  HIT:          0  MISS:          0
cpu0_L1I WRITEBACK ACCESS:          0  HIT:          0  MISS:          0
cpu0_STLB TOTAL     ACCESS:        421  HIT:        224  MISS:        197
cpu0_STLB LOAD      ACCESS:        290  HIT:        122  MISS:        168
cpu0_STLB RFO       ACCESS:        131  HIT:        102  MISS:         29
cpu0_STLB PREFETCH  ACCESS:          0  HIT:          0  MISS:          0
cpu0_STLB WRITEBACK ACCESS:          0  HIT:          0  MISS:          0
cpu0_L1D TOTAL     ACCESS:     511785  HIT:     488878  MISS:      22907
cpu0_L1D LOAD      ACCESS:     333003  HIT:     317729  MISS:      15274
cpu0_L1D RFO       ACCESS:     178589  HIT:     171029  MISS:       7560
cpu0_L1D PREFETCH  ACCESS:          0  HIT:          0  MISS:          0
cpu0_L1D WRITEBACK ACCESS:          0  HIT:          0  MISS:          0
cpu0_L2C TOTAL     ACCESS:      31026  HIT:      11994  MISS:      19032
cpu0_L2C LOAD      ACCESS:      15274  HIT:       3912  MISS:      11362
cpu0_L2C RFO       ACCESS:       7560  HIT:          1  MISS:       7559
cpu0_L2C PREFETCH  ACCESS:          0  HIT:          0  MISS:          0
cpu0_L2C WRITEBACK ACCESS:       8119  HIT:       8059  MISS:         60
LLC TOTAL     ACCESS:      31396  HIT:      23378  MISS:       8018
LLC LOAD      ACCESS:      11362  HIT:       5856  MISS:       5506
LLC RFO       ACCESS:       7559  HIT:       6023  MISS:       1536
LLC PREFETCH  ACCESS:          0  HIT:          0  MISS:          0
LLC WRITEBACK ACCESS:      12424  HIT:      11481  MISS:        943
Heartbeat CPU 0 instructions: 54000000 cycles: 17367359 heartbeat IPC: 1.22636 cumulative IPC: 1.43681 (Simulation time: 0 hr 38 min 3 sec) 

Region of Interest Statistics
cpu0_DTLB TOTAL     ACCESS:    1003052  HIT:    1001942  MISS:       1110
cpu0_DTLB LOAD      ACCESS:     789313  HIT:     788653  MISS:        660
cpu0_DTLB RFO       ACCESS:     213739  HIT:     213289  MISS:        450
cpu0_DTLB PREFETCH  ACCESS:          0  HIT:          0  MISS:          0
cpu0_DTLB WRITEBACK ACCESS:          0  HIT:          0  MISS:          0
cpu0_ITLB TOTAL     ACCESS:       5300  HIT:       5300  MISS:          0
cpu0_ITLB LOAD      ACCESS:       5300  HIT:       5300  MISS:          0
cpu0_ITLB RFO       ACCESS:          0  HIT:          0  MISS:          0
cpu0_ITLB PREFETCH  ACCESS:          0  HIT:          0  MISS:          0
cpu0_ITLB WRITEBACK ACCESS:          0  HIT:          0  MISS:          0
cpu0_L1I TOTAL     ACCESS:       1022  HIT:       1022  MISS:          0
cpu0_L1I LOAD      ACCESS:       1022  HIT:       1022  MISS:          0
cpu0_L1I RFO       ACCESS:          0  HIT:          0  MISS:          0
cpu0_L1I PREFETCH  ACCESS:          0  HIT:          0  MISS:          0
cpu0_L1I WRITEBACK ACCESS:          0  HIT:          0  MISS:          0
cpu0_STLB TOTAL     ACCESS:       1110  HIT:        587  MISS:        523
cpu0_STLB LOAD      ACCESS:        660  HIT:        389  MISS:        271
cpu0_STLB RFO       ACCESS:        450  HIT:        198  MISS:        252
cpu0_STLB PREFETCH  ACCESS:          0  HIT:          0  MISS:          0
cpu0_STLB WRITEBACK ACCESS:          0  HIT:          0  MISS:          0
cpu0_L1D TOTAL     ACCESS:    1006506  HIT:     943815  MISS:      62691
cpu0_L1D LOAD      ACCESS:     713376  HIT:     671062  MISS:      42314
cpu0_L1D RFO       ACCESS:     292617  HIT:     272413  MISS:      20204
cpu0_L1D PREFETCH  ACCESS:          0  HIT:          0  MISS:          0
cpu0_L1D WRITEBACK ACCESS:          0  HIT:          0  MISS:          0
cpu0_L2C TOTAL     ACCESS:      82979  HIT:      33356  MISS:      49623
cpu0_L2C LOAD      ACCESS:      42314  HIT:      12966  MISS:      29348
cpu0_L2C RFO       ACCESS:      20204  HIT:        127  MISS:      20077
cpu0_L2C PREFETCH  ACCESS:          0  HIT:          0  MISS:          0
cpu0_L2C WRITEBACK ACCESS:      20288  HIT:      20225  MISS:         63
LLC TOTAL     ACCESS:      70423  HIT:      44507  MISS:      25916
LLC LOAD      ACCESS:      29348  HIT:      20376  MISS:       8972
LLC RFO       ACCESS:      20077  HIT:      11105  MISS:       8972
LLC PREFETCH  ACCESS:          0  HIT:          0  MISS:          0
LLC WRITEBACK ACCESS:      20863  HIT:      12967  MISS:       7896
Heartbeat CPU 0 instructions: 56000003 cycles: 18252827 heartbeat IPC: 2.2587 cumulative IPC: 1.63514 (Simulation time: 0 hr 39 min 45 sec) 

Region of Interest Statistics
cpu0_DTLB TOTAL     ACCESS:    1414667  HIT:    1413312  MISS:       1355
cpu0_DTLB LOAD      ACCESS:    1069175  HIT:    1068422  MISS:        753
cpu0_DTLB RFO       ACCESS:     345492  HIT:     344890  MISS:        602
cpu0_DTLB PREFETCH  ACCESS:          0  HIT:          0  MISS:          0
cpu0_DTLB WRITEBACK ACCESS:          0  HIT:          0  MISS:          0
cpu0_ITLB TOTAL     ACCESS:       5942  HIT:       5942  MISS:          0
cpu0_ITLB LOAD      ACCESS:       5942  HIT:       5942  MISS:          0
cpu0_ITLB RFO       ACCESS:          0  HIT:          0  MISS:          0
cpu0_ITLB PREFETCH  ACCESS:          0  HIT:          0  MISS:          0
cpu0_ITLB WRITEBACK ACCESS:          0  HIT:          0  MISS:          0
cpu0_L1I TOTAL     ACCESS:       1022  HIT:       1022  MISS:          0
cpu0_L1I LOAD      ACCESS:       1022  HIT:       1022  MISS:          0
cpu0_L1I RFO       ACCESS:          0  HIT:          0  MISS:          0
cpu0_L1I PREFETCH  ACCESS:          0  HIT:          0  MISS:          0
cpu0_L1I WRITEBACK ACCESS:          0  HIT:          0  MISS:          0
cpu0_STLB TOTAL     ACCESS:       1355  HIT:        736  MISS:        619
cpu0_STLB LOAD      ACCESS:        753  HIT:        389  MISS:        364
cpu0_STLB RFO       ACCESS:        602  HIT:        347  MISS:        255
cpu0_STLB PREFETCH  ACCESS:          0  HIT:          0  MISS:          0
cpu0_STLB WRITEBACK ACCESS:          0  HIT:          0  MISS:          0
cpu0_L1D TOTAL     ACCESS:    1528611  HIT:    1452958  MISS:      75653
cpu0_L1D LOAD      ACCESS:    1033854  HIT:     988464  MISS:      45390
cpu0_L1D RFO       ACCESS:     494148  HIT:     464099  MISS:      30049
cpu0_L1D PREFETCH  ACCESS:          0  HIT:          0  MISS:          0
cpu0_L1D WRITEBACK ACCESS:          0  HIT:          0  MISS:          0
cpu0_L2C TOTAL     ACCESS:     105843  HIT:      43385  MISS:      62458
cpu0_L2C LOAD      ACCESS:      45390  HIT:      13078  MISS:      32312
cpu0_L2C RFO       ACCESS:      30049  HIT:        127  MISS:      29922
cpu0_L2C PREFETCH  ACCESS:          0  HIT:          0  MISS:          0
cpu0_L2C WRITEBACK ACCESS:      30190  HIT:      30127  MISS:         63
LLC TOTAL     ACCESS:      92470  HIT:      61920  MISS:      30550
LLC LOAD      ACCESS:      32312  HIT:      20376  MISS:      11936
LLC RFO       ACCESS:      29922  HIT:      20470  MISS:       9452
LLC PREFETCH  ACCESS:          0  HIT:          0  MISS:          0
LLC WRITEBACK ACCESS:      30075  HIT:      21001  MISS:       9074
Heartbeat CPU 0 instructions: 58000004 cycles: 19142071 heartbeat IPC: 2.2491 cumulative IPC: 1.75491 (Simulation time: 0 hr 41 min 29 sec) 

Region of Interest Statistics
cpu0_DTLB TOTAL     ACCESS:    1825964  HIT:    1824362  MISS:       1602
cpu0_DTLB LOAD      ACCESS:    1348692  HIT:    1347847  MISS:        845
cpu0_DTLB RFO       ACCESS:     477272  HIT:     476515  MISS:        757
cpu0_DTLB PREFETCH  ACCESS:          0  HIT:          0  MISS:          0
cpu0_DTLB WRITEBACK ACCESS:          0  HIT:          0  MISS:          0
cpu0_ITLB TOTAL     ACCESS:       6533  HIT:       6533  MISS:          0
cpu0_ITLB LOAD      ACCESS:       6533  HIT:       6533  MISS:          0
cpu0_ITLB RFO       ACCESS:          0  HIT:          0  MISS:          0
cpu0_ITLB PREFETCH  ACCESS:          0  HIT:          0  MISS:          0
cpu0_ITLB WRITEBACK ACCESS:          0  HIT:          0  MISS:          0
cpu0_L1I TOTAL     ACCESS:       1022  HIT:       1022  MISS:          0
cpu0_L1I LOAD      ACCESS:       1022  HIT:       1022  MISS:          0
cpu0_L1I RFO       ACCESS:          0  HIT:          0  MISS:          0
cpu0_L1I PREFETCH  ACCESS:          0  HIT:          0  MISS:          0
cpu0_L1I WRITEBACK ACCESS:          0  HIT:          0  MISS:          0
cpu0_STLB TOTAL     ACCESS:       1602  HIT:        889  MISS:        713
cpu0_STLB LOAD      ACCESS:        845  HIT:        389  MISS:        456
cpu0_STLB RFO       ACCESS:        757  HIT:        500  MISS:        257
cpu0_STLB PREFETCH  ACCESS:          0  HIT:          0  MISS:          0
cpu0_STLB WRITEBACK ACCESS:          0  HIT:          0  MISS:          0
cpu0_L1D TOTAL     ACCESS:    2050184  HIT:    1961591  MISS:      88593
cpu0_L1D LOAD      ACCESS:    1354341  HIT:    1305885  MISS:      48456
cpu0_L1D RFO       ACCESS:     695140  HIT:     655253  MISS:      39887
cpu0_L1D PREFETCH  ACCESS:          0  HIT:          0  MISS:          0
cpu0_L1D WRITEBACK ACCESS:          0  HIT:          0  MISS:          0
cpu0_L2C TOTAL     ACCESS:     128640  HIT:      53360  MISS:      75280
cpu0_L2C LOAD      ACCESS:      48456  HIT:      13183  MISS:      35273
cpu0_L2C RFO       ACCESS:      39887  HIT:        127  MISS:      39760
cpu0_L2C PREFETCH  ACCESS:          0  HIT:          0  MISS:          0
cpu0_L2C WRITEBACK ACCESS:      40047  HIT:      39984  MISS:         63
LLC TOTAL     ACCESS:     115317  HIT:      80590  MISS:      34727
LLC LOAD      ACCESS:      35273  HIT:      20376  MISS:      14897
LLC RFO       ACCESS:      39760  HIT:      29488  MISS:      10272
LLC PREFETCH  ACCESS:          0  HIT:          0  MISS:          0
LLC WRITEBACK ACCESS:      40100  HIT:      30644  MISS:       9456
Heartbeat CPU 0 instructions: 60000001 cycles: 21013581 heartbeat IPC: 1.06865 cumulative IPC: 1.55517 (Simulation time: 0 hr 44 min 12 sec) 

Region of Interest Statistics
cpu0_DTLB TOTAL     ACCESS:    2423089  HIT:    2420601  MISS:       2488
cpu0_DTLB LOAD      ACCESS:    1860260  HIT:    1858833  MISS:       1427
cpu0_DTLB RFO       ACCESS:     562829  HIT:     561768  MISS:       1061
cpu0_DTLB PREFETCH  ACCESS:          0  HIT:          0  MISS:          0
cpu0_DTLB WRITEBACK ACCESS:          0  HIT:          0  MISS:          0
cpu0_ITLB TOTAL     ACCESS:      11126  HIT:      11126  MISS:          0
cpu0_ITLB LOAD      ACCESS:      11126  HIT:      11126  MISS:          0
cpu0_ITLB RFO       ACCESS:          0  HIT:          0  MISS:          0
cpu0_ITLB PREFETCH  ACCESS:          0  HIT:          0  MISS:          0
cpu0_ITLB WRITEBACK ACCESS:          0  HIT:          0  MISS:          0
cpu0_L1I TOTAL     ACCESS:       2043  HIT:       2043  MISS:          0
cpu0_L1I LOAD      ACCESS:       2043  HIT:       2043  MISS:          0
cpu0_L1I RFO       ACCESS:          0  HIT:          0  MISS:          0
cpu0_L1I PREFETCH  ACCESS:          0  HIT:          0  MISS:          0
cpu0_L1I WRITEBACK ACCESS:          0  HIT:          0  MISS:          0
cpu0_STLB TOTAL     ACCESS:       2488  HIT:       1344  MISS:       1144
cpu0_STLB LOAD      ACCESS:       1427  HIT:        790  MISS:        637
cpu0_STLB RFO       ACCESS:       1061  HIT:        554  MISS:        507
cpu0_STLB PREFETCH  ACCESS:          0  HIT:          0  MISS:          0
cpu0_STLB WRITEBACK ACCESS:          0  HIT:          0  MISS:          0
cpu0_L1D TOTAL     ACCESS:    2541105  HIT:    2402806  MISS:     138299
cpu0_L1D LOAD      ACCESS:    1753276  HIT:    1665613  MISS:      87663
cpu0_L1D RFO       ACCESS:     786702  HIT:     736447  MISS:      50255
cpu0_L1D PREFETCH  ACCESS:          0  HIT:          0  MISS:          0
cpu0_L1D WRITEBACK ACCESS:          0  HIT:          0  MISS:          0
cpu0_L2C TOTAL     ACCESS:     188753  HIT:      76601  MISS:     112152
cpu0_L2C LOAD      ACCESS:      87663  HIT:      25970  MISS:      61693
cpu0_L2C RFO       ACCESS:      50255  HIT:        220  MISS:      50035
cpu0_L2C PREFETCH  ACCESS:          0  HIT:          0  MISS:          0
cpu0_L2C WRITEBACK ACCESS:      50454  HIT:      50327  MISS:        127
LLC TOTAL     ACCESS:     164379  HIT:     109897  MISS:      54482
LLC LOAD      ACCESS:      61693  HIT:      40684  MISS:      21009
LLC RFO       ACCESS:      50035  HIT:      31493  MISS:      18542
LLC PREFETCH  ACCESS:          0  HIT:          0  MISS:          0
LLC WRITEBACK ACCESS:      52354  HIT:      37588  MISS:      14766
Heartbeat CPU 0 instructions: 62000000 cycles: 21902254 heartbeat IPC: 2.25055 cumulative IPC: 1.63961 (Simulation time: 0 hr 45 min 51 sec) 

Region of Interest Statistics
cpu0_DTLB TOTAL     ACCESS:    2834227  HIT:    2831496  MISS:       2731
cpu0_DTLB LOAD      ACCESS:    2140416  HIT:    2138899  MISS:       1517
cpu0_DTLB RFO       ACCESS:     693811  HIT:     692597  MISS:       1214
cpu0_DTLB PREFETCH  ACCESS:          0  HIT:          0  MISS:          0
cpu0_DTLB WRITEBACK ACCESS:          0  HIT:          0  MISS:          0
cpu0_ITLB TOTAL     ACCESS:      11698  HIT:      11698  MISS:          0
cpu0_ITLB LOAD      ACCESS:      11698  HIT:      11698  MISS:          0
cpu0_ITLB RFO       ACCESS:          0  HIT:          0  MISS:          0
cpu0_ITLB PREFETCH  ACCESS:          0  HIT:          0  MISS:          0
cpu0_ITLB WRITEBACK ACCESS:          0  HIT:          0  MISS:          0
cpu0_L1I TOTAL     ACCESS:       2043  HIT:       2043  MISS:          0
cpu0_L1I LOAD      ACCESS:       2043  HIT:       2043  MISS:          0
cpu0_L1I RFO       ACCESS:          0  HIT:          0  MISS:          0
cpu0_L1I PREFETCH  ACCESS:          0  HIT:          0  MISS:          0
cpu0_L1I WRITEBACK ACCESS:          0  HIT:          0  MISS:          0
cpu0_STLB TOTAL     ACCESS:       2731  HIT:       1495  MISS:       1236
cpu0_STLB LOAD      ACCESS:       1517  HIT:        790  MISS:        727
cpu0_STLB RFO       ACCESS:       1214  HIT:        705  MISS:        509
cpu0_STLB PREFETCH  ACCESS:          0  HIT:          0  MISS:          0
cpu0_STLB WRITEBACK ACCESS:          0  HIT:          0  MISS:          0
cpu0_L1D TOTAL     ACCESS:    3061382  HIT:    2910142  MISS:     151240
cpu0_L1D LOAD      ACCESS:    2071829  HIT:    1981100  MISS:      90729
cpu0_L1D RFO       ACCESS:     988334  HIT:     928243  MISS:      60091
cpu0_L1D PREFETCH  ACCESS:          0  HIT:          0  MISS:          0
cpu0_L1D WRITEBACK ACCESS:          0  HIT:          0  MISS:          0
cpu0_L2C TOTAL     ACCESS:     211567  HIT:      86650  MISS:     124917
cpu0_L2C LOAD      ACCESS:      90729  HIT:      26075  MISS:      64654
cpu0_L2C RFO       ACCESS:      60091  HIT:        276  MISS:      59815
cpu0_L2C PREFETCH  ACCESS:          0  HIT:          0  MISS:          0
cpu0_L2C WRITEBACK ACCESS:      60327  HIT:      60200  MISS:        127
LLC TOTAL     ACCESS:     185005  HIT:     123771  MISS:      61234
LLC LOAD      ACCESS:      64654  HIT:      40684  MISS:      23970
LLC RFO       ACCESS:      59815  HIT:      40847  MISS:      18968
LLC PREFETCH  ACCESS:          0  HIT:          0  MISS:          0
LLC WRITEBACK ACCESS:      60215  HIT:      42097  MISS:      18118
Heartbeat CPU 0 instructions: 64000004 cycles: 22783929 heartbeat IPC: 2.26841 cumulative IPC: 1.70721 (Simulation time: 0 hr 47 min 34 sec) 

Region of Interest Statistics
cpu0_DTLB TOTAL     ACCESS:    3245401  HIT:    3242425  MISS:       2976
cpu0_DTLB LOAD      ACCESS:    2420637  HIT:    2419030  MISS:       1607
cpu0_DTLB RFO       ACCESS:     824764  HIT:     823395  MISS:       1369
cpu0_DTLB PREFETCH  ACCESS:          0  HIT:          0  MISS:          0
cpu0_DTLB WRITEBACK ACCESS:          0  HIT:          0  MISS:          0
cpu0_ITLB TOTAL     ACCESS:      12267  HIT:      12267  MISS:          0
cpu0_ITLB LOAD      ACCESS:      12267  HIT:      12267  MISS:          0
cpu0_ITLB RFO       ACCESS:          0  HIT:          0  MISS:          0
cpu0_ITLB PREFETCH  ACCESS:          0  HIT:          0  MISS:          0
cpu0_ITLB WRITEBACK ACCESS:          0  HIT:          0  MISS:          0
cpu0_L1I TOTAL     ACCESS:       2043  HIT:       2043  MISS:          0
cpu0_L1I LOAD      ACCESS:       2043  HIT:       2043  MISS:          0
cpu0_L1I RFO       ACCESS:          0  HIT:          0  MISS:          0
cpu0_L1I PREFETCH  ACCESS:          0  HIT:          0  MISS:          0
cpu0_L1I WRITEBACK ACCESS:          0  HIT:          0  MISS:          0
cpu0_STLB TOTAL     ACCESS:       2976  HIT:       1646  MISS:       1330
cpu0_STLB LOAD      ACCESS:       1607  HIT:        790  MISS:        817
cpu0_STLB RFO       ACCESS:       1369  HIT:        856  MISS:        513
cpu0_STLB PREFETCH  ACCESS:          0  HIT:          0  MISS:          0
cpu0_STLB WRITEBACK ACCESS:          0  HIT:          0  MISS:          0
cpu0_L1D TOTAL     ACCESS:    3581519  HIT:    3417339  MISS:     164180
cpu0_L1D LOAD      ACCESS:    2390372  HIT:    2296577  MISS:      93795
cpu0_L1D RFO       ACCESS:    1189834  HIT:    1119905  MISS:      69929
cpu0_L1D PREFETCH  ACCESS:          0  HIT:          0  MISS:          0
cpu0_L1D WRITEBACK ACCESS:          0  HIT:          0  MISS:          0
cpu0_L2C TOTAL     ACCESS:     234365  HIT:      96627  MISS:     137738
cpu0_L2C LOAD      ACCESS:      93795  HIT:      26180  MISS:      67615
cpu0_L2C RFO       ACCESS:      69929  HIT:        276  MISS:      69653
cpu0_L2C PREFETCH  ACCESS:          0  HIT:          0  MISS:          0
cpu0_L2C WRITEBACK ACCESS:      70185  HIT:      70058  MISS:        127
LLC TOTAL     ACCESS:     207597  HIT:     142541  MISS:      65056
LLC LOAD      ACCESS:      67615  HIT:      40684  MISS:      26931
LLC RFO       ACCESS:      69653  HIT:      50210  MISS:      19443
LLC PREFETCH  ACCESS:          0  HIT:          0  MISS:          0
LLC WRITEBACK ACCESS:      69986  HIT:      51493  MISS:      18493
Heartbeat CPU 0 instructions: 66000002 cycles: 24039706 heartbeat IPC: 1.59264 cumulative IPC: 1.692 (Simulation time: 0 hr 49 min 39 sec) 

Region of Interest Statistics
cpu0_DTLB TOTAL     ACCESS:    3764901  HIT:    3761086  MISS:       3815
cpu0_DTLB LOAD      ACCESS:    2841518  HIT:    2839301  MISS:       2217
cpu0_DTLB RFO       ACCESS:     923383  HIT:     921785  MISS:       1598
cpu0_DTLB PREFETCH  ACCESS:          0  HIT:          0  MISS:          0
cpu0_DTLB WRITEBACK ACCESS:          0  HIT:          0  MISS:          0
cpu0_ITLB TOTAL     ACCESS:      15319  HIT:      15319  MISS:          0
cpu0_ITLB LOAD      ACCESS:      15319  HIT:      15319  MISS:          0
cpu0_ITLB RFO       ACCESS:          0  HIT:          0  MISS:          0
cpu0_ITLB PREFETCH  ACCESS:          0  HIT:          0  MISS:          0
cpu0_ITLB WRITEBACK ACCESS:          0  HIT:          0  MISS:          0
cpu0_L1I TOTAL     ACCESS:       3034  HIT:       3034  MISS:          0
cpu0_L1I LOAD      ACCESS:       3034  HIT:       3034  MISS:          0
cpu0_L1I RFO       ACCESS:          0  HIT:          0  MISS:          0
cpu0_L1I PREFETCH  ACCESS:          0  HIT:          0  MISS:          0
cpu0_L1I WRITEBACK ACCESS:          0  HIT:          0  MISS:          0
cpu0_STLB TOTAL     ACCESS:       3815  HIT:       2254  MISS:       1561
cpu0_STLB LOAD      ACCESS:       2217  HIT:       1220  MISS:        997
cpu0_STLB RFO       ACCESS:       1598  HIT:       1034  MISS:        564
cpu0_STLB PREFETCH  ACCESS:          0  HIT:          0  MISS:          0
cpu0_STLB WRITEBACK ACCESS:          0  HIT:          0  MISS:          0
cpu0_L1D TOTAL     ACCESS:    4102442  HIT:    3908067  MISS:     194375
cpu0_L1D LOAD      ACCESS:    2761827  HIT:    2644777  MISS:     117050
cpu0_L1D RFO       ACCESS:    1339073  HIT:    1262283  MISS:      76790
cpu0_L1D PREFETCH  ACCESS:          0  HIT:          0  MISS:          0
cpu0_L1D WRITEBACK ACCESS:          0  HIT:          0  MISS:          0
cpu0_L2C TOTAL     ACCESS:     271981  HIT:     111679  MISS:     160302
cpu0_L2C LOAD      ACCESS:     117050  HIT:      33857  MISS:      83193
cpu0_L2C RFO       ACCESS:      76790  HIT:        276  MISS:      76514
cpu0_L2C PREFETCH  ACCESS:          0  HIT:          0  MISS:          0
cpu0_L2C WRITEBACK ACCESS:      77606  HIT:      77414  MISS:        192
LLC TOTAL     ACCESS:     242245  HIT:     167644  MISS:      74601
LLC LOAD      ACCESS:      83193  HIT:      50309  MISS:      32884
LLC RFO       ACCESS:      76514  HIT:      54853  MISS:      21661
LLC PREFETCH  ACCESS:          0  HIT:          0  MISS:          0
LLC WRITEBACK ACCESS:      82135  HIT:      62301  MISS:      19834
Heartbeat CPU 0 instructions: 68000004 cycles: 25541294 heartbeat IPC: 1.33192 cumulative IPC: 1.64266 (Simulation time: 0 hr 51 min 55 sec) 

Region of Interest Statistics
cpu0_DTLB TOTAL     ACCESS:    4246580  HIT:    4242131  MISS:       4449
cpu0_DTLB LOAD      ACCESS:    3208025  HIT:    3205499  MISS:       2526
cpu0_DTLB RFO       ACCESS:    1038555  HIT:    1036632  MISS:       1923
cpu0_DTLB PREFETCH  ACCESS:          0  HIT:          0  MISS:          0
cpu0_DTLB WRITEBACK ACCESS:          0  HIT:          0  MISS:          0
cpu0_ITLB TOTAL     ACCESS:      17653  HIT:      17653  MISS:          0
cpu0_ITLB LOAD      ACCESS:      17653  HIT:      17653  MISS:          0
cpu0_ITLB RFO       ACCESS:          0  HIT:          0  MISS:          0
cpu0_ITLB PREFETCH  ACCESS:          0  HIT:          0  MISS:          0
cpu0_ITLB WRITEBACK ACCESS:          0  HIT:          0  MISS:          0
cpu0_L1I TOTAL     ACCESS:       3059  HIT:       3059  MISS:          0
cpu0_L1I LOAD      ACCESS:       3059  HIT:       3059  MISS:          0
cpu0_L1I RFO       ACCESS:          0  HIT:          0  MISS:          0
cpu0_L1I PREFETCH  ACCESS:          0  HIT:          0  MISS:          0
cpu0_L1I WRITEBACK ACCESS:          0  HIT:          0  MISS:          0
cpu0_STLB TOTAL     ACCESS:       4449  HIT:       2594  MISS:       1855
cpu0_STLB LOAD      ACCESS:       2526  HIT:       1434  MISS:       1092
cpu0_STLB RFO       ACCESS:       1923  HIT:       1160  MISS:        763
cpu0_STLB PREFETCH  ACCESS:          0  HIT:          0  MISS:          0
cpu0_STLB WRITEBACK ACCESS:          0  HIT:          0  MISS:          0
cpu0_L1D TOTAL     ACCESS:    4588613  HIT:    4361753  MISS:     226860
cpu0_L1D LOAD      ACCESS:    3104170  HIT:    2968078  MISS:     136092
cpu0_L1D RFO       ACCESS:    1482612  HIT:    1392472  MISS:      90140
cpu0_L1D PREFETCH  ACCESS:          0  HIT:          0  MISS:          0
cpu0_L1D WRITEBACK ACCESS:          0  HIT:          0  MISS:          0
cpu0_L2C TOTAL     ACCESS:     317333  HIT:     130105  MISS:     187228
cpu0_L2C LOAD      ACCESS:     136092  HIT:      39248  MISS:      96844
cpu0_L2C RFO       ACCESS:      90140  HIT:        431  MISS:      89709
cpu0_L2C PREFETCH  ACCESS:          0  HIT:          0  MISS:          0
cpu0_L2C WRITEBACK ACCESS:      90473  HIT:      90278  MISS:        195
LLC TOTAL     ACCESS:     277679  HIT:     186238  MISS:      91441
LLC LOAD      ACCESS:      96844  HIT:      60774  MISS:      36070
LLC RFO       ACCESS:      89709  HIT:      61343  MISS:      28366
LLC PREFETCH  ACCESS:          0  HIT:          0  MISS:          0
LLC WRITEBACK ACCESS:      90646  HIT:      63908  MISS:      26738
Heartbeat CPU 0 instructions: 70000001 cycles: 26423551 heartbeat IPC: 2.26691 cumulative IPC: 1.68917 (Simulation time: 0 hr 53 min 36 sec) 

Region of Interest Statistics
cpu0_DTLB TOTAL     ACCESS:    4657893  HIT:    4653199  MISS:       4694
cpu0_DTLB LOAD      ACCESS:    3487562  HIT:    3484946  MISS:       2616
cpu0_DTLB RFO       ACCESS:    1170331  HIT:    1168253  MISS:       2078
cpu0_DTLB PREFETCH  ACCESS:          0  HIT:          0  MISS:          0
cpu0_DTLB WRITEBACK ACCESS:          0  HIT:          0  MISS:          0
cpu0_ITLB TOTAL     ACCESS:      18276  HIT:      18276  MISS:          0
cpu0_ITLB LOAD      ACCESS:      18276  HIT:      18276  MISS:          0
cpu0_ITLB RFO       ACCESS:          0  HIT:          0  MISS:          0
cpu0_ITLB PREFETCH  ACCESS:          0  HIT:          0  MISS:          0
cpu0_ITLB WRITEBACK ACCESS:          0  HIT:          0  MISS:          0
cpu0_L1I TOTAL     ACCESS:       3059  HIT:       3059  MISS:          0
cpu0_L1I LOAD      ACCESS:       3059  HIT:       3059  MISS:          0
cpu0_L1I RFO       ACCESS:          0  HIT:          0  MISS:          0
cpu0_L1I PREFETCH  ACCESS:          0  HIT:          0  MISS:          0
cpu0_L1I WRITEBACK ACCESS:          0  HIT:          0  MISS:          0
cpu0_STLB TOTAL     ACCESS:       4694  HIT:       2746  MISS:       1948
cpu0_STLB LOAD      ACCESS:       2616  HIT:       1434  MISS:       1182
cpu0_STLB RFO       ACCESS:       2078  HIT:       1312  MISS:        766
cpu0_STLB PREFETCH  ACCESS:          0  HIT:          0  MISS:          0
cpu0_STLB WRITEBACK ACCESS:          0  HIT:          0  MISS:          0
cpu0_L1D TOTAL     ACCESS:    5110951  HIT:    4871150  MISS:     239801
cpu0_L1D LOAD      ACCESS:    3424693  HIT:    3285535  MISS:     139158
cpu0_L1D RFO       ACCESS:    1684334  HIT:    1584357  MISS:      99977
cpu0_L1D PREFETCH  ACCESS:          0  HIT:          0  MISS:          0
cpu0_L1D WRITEBACK ACCESS:          0  HIT:          0  MISS:          0
cpu0_L2C TOTAL     ACCESS:     340150  HIT:     140101  MISS:     200049
cpu0_L2C LOAD      ACCESS:     139158  HIT:      39353  MISS:      99805
cpu0_L2C RFO       ACCESS:      99977  HIT:        431  MISS:      99546
cpu0_L2C PREFETCH  ACCESS:          0  HIT:          0  MISS:          0
cpu0_L2C WRITEBACK ACCESS:     100349  HIT:     100154  MISS:        195
LLC TOTAL     ACCESS:     300033  HIT:     204241  MISS:      95792
LLC LOAD      ACCESS:      99805  HIT:      60774  MISS:      39031
LLC RFO       ACCESS:      99546  HIT:      70780  MISS:      28766
LLC PREFETCH  ACCESS:          0  HIT:          0  MISS:          0
LLC WRITEBACK ACCESS:     100179  HIT:      72461  MISS:      27718
Heartbeat CPU 0 instructions: 72000004 cycles: 27357988 heartbeat IPC: 2.14033 cumulative IPC: 1.72217 (Simulation time: 0 hr 55 min 27 sec) 

Region of Interest Statistics
cpu0_DTLB TOTAL     ACCESS:    5074633  HIT:    5069670  MISS:       4963
cpu0_DTLB LOAD      ACCESS:    3772989  HIT:    3770253  MISS:       2736
cpu0_DTLB RFO       ACCESS:    1301644  HIT:    1299417  MISS:       2227
cpu0_DTLB PREFETCH  ACCESS:          0  HIT:          0  MISS:          0
cpu0_DTLB WRITEBACK ACCESS:          0  HIT:          0  MISS:          0
cpu0_ITLB TOTAL     ACCESS:      19091  HIT:      19091  MISS:          0
cpu0_ITLB LOAD      ACCESS:      19091  HIT:      19091  MISS:          0
cpu0_ITLB RFO       ACCESS:          0  HIT:          0  MISS:          0
cpu0_ITLB PREFETCH  ACCESS:          0  HIT:          0  MISS:          0
cpu0_ITLB WRITEBACK ACCESS:          0  HIT:          0  MISS:          0
cpu0_L1I TOTAL     ACCESS:       3059  HIT:       3059  MISS:          0
cpu0_L1I LOAD      ACCESS:       3059  HIT:       3059  MISS:          0
cpu0_L1I RFO       ACCESS:          0  HIT:          0  MISS:          0
cpu0_L1I PREFETCH  ACCESS:          0  HIT:          0  MISS:          0
cpu0_L1I WRITEBACK ACCESS:          0  HIT:          0  MISS:          0
cpu0_STLB TOTAL     ACCESS:       4963  HIT:       2901  MISS:       2062
cpu0_STLB LOAD      ACCESS:       2736  HIT:       1446  MISS:       1290
cpu0_STLB RFO       ACCESS:       2227  HIT:       1455  MISS:        772
cpu0_STLB PREFETCH  ACCESS:          0  HIT:          0  MISS:          0
cpu0_STLB WRITEBACK ACCESS:          0  HIT:          0  MISS:          0
cpu0_L1D TOTAL     ACCESS:    5628552  HIT:    5374954  MISS:     253598
cpu0_L1D LOAD      ACCESS:    3740394  HIT:    3597019  MISS:     143375
cpu0_L1D RFO       ACCESS:    1886122  HIT:    1776610  MISS:     109512
cpu0_L1D PREFETCH  ACCESS:          0  HIT:          0  MISS:          0
cpu0_L1D WRITEBACK ACCESS:          0  HIT:          0  MISS:          0
cpu0_L2C TOTAL     ACCESS:     363961  HIT:     150721  MISS:     213240
cpu0_L2C LOAD      ACCESS:     143375  HIT:      39946  MISS:     103429
cpu0_L2C RFO       ACCESS:     109512  HIT:        431  MISS:     109081
cpu0_L2C PREFETCH  ACCESS:          0  HIT:          0  MISS:          0
cpu0_L2C WRITEBACK ACCESS:     110363  HIT:     110165  MISS:        198
LLC TOTAL     ACCESS:     323178  HIT:     222458  MISS:     100720
LLC LOAD      ACCESS:     103430  HIT:      60900  MISS:      42530
LLC RFO       ACCESS:     109081  HIT:      79414  MISS:      29667
LLC PREFETCH  ACCESS:          0  HIT:          0  MISS:          0
LLC WRITEBACK ACCESS:     110135  HIT:      81908  MISS:      28227
Heartbeat CPU 0 instructions: 74000002 cycles: 29212888 heartbeat IPC: 1.07822 cumulative IPC: 1.64052 (Simulation time: 0 hr 58 min 3 sec) 

Region of Interest Statistics
cpu0_DTLB TOTAL     ACCESS:    5665028  HIT:    5658893  MISS:       6135
cpu0_DTLB LOAD      ACCESS:    4278015  HIT:    4274569  MISS:       3446
cpu0_DTLB RFO       ACCESS:    1387013  HIT:    1384324  MISS:       2689
cpu0_DTLB PREFETCH  ACCESS:          0  HIT:          0  MISS:          0
cpu0_DTLB WRITEBACK ACCESS:          0  HIT:          0  MISS:          0
cpu0_ITLB TOTAL     ACCESS:      23619  HIT:      23619  MISS:          0
cpu0_ITLB LOAD      ACCESS:      23619  HIT:      23619  MISS:          0
cpu0_ITLB RFO       ACCESS:          0  HIT:          0  MISS:          0
cpu0_ITLB PREFETCH  ACCESS:          0  HIT:          0  MISS:          0
cpu0_ITLB WRITEBACK ACCESS:          0  HIT:          0  MISS:          0
cpu0_L1I TOTAL     ACCESS:       4085  HIT:       4085  MISS:          0
cpu0_L1I LOAD      ACCESS:       4085  HIT:       4085  MISS:          0
cpu0_L1I RFO       ACCESS:          0  HIT:          0  MISS:          0
cpu0_L1I PREFETCH  ACCESS:          0  HIT:          0  MISS:          0
cpu0_L1I WRITEBACK ACCESS:          0  HIT:          0  MISS:          0
cpu0_STLB TOTAL     ACCESS:       6135  HIT:       3664  MISS:       2471
cpu0_STLB LOAD      ACCESS:       3446  HIT:       1993  MISS:       1453
cpu0_STLB RFO       ACCESS:       2689  HIT:       1671  MISS:       1018
cpu0_STLB PREFETCH  ACCESS:          0  HIT:          0  MISS:          0
cpu0_STLB WRITEBACK ACCESS:          0  HIT:          0  MISS:          0
cpu0_L1D TOTAL     ACCESS:    6123044  HIT:    5820583  MISS:     302461
cpu0_L1D LOAD      ACCESS:    4143597  HIT:    3962152  MISS:     181445
cpu0_L1D RFO       ACCESS:    1977008  HIT:    1856826  MISS:     120182
cpu0_L1D PREFETCH  ACCESS:          0  HIT:          0  MISS:          0
cpu0_L1D WRITEBACK ACCESS:          0  HIT:          0  MISS:          0
cpu0_L2C TOTAL     ACCESS:     423089  HIT:     173622  MISS:     249467
cpu0_L2C LOAD      ACCESS:     181445  HIT:      52429  MISS:     129016
cpu0_L2C RFO       ACCESS:     120182  HIT:        603  MISS:     119579
cpu0_L2C PREFETCH  ACCESS:          0  HIT:          0  MISS:          0
cpu0_L2C WRITEBACK ACCESS:     120628  HIT:     120395  MISS:        233
LLC TOTAL     ACCESS:     370736  HIT:     250577  MISS:     120159
LLC LOAD      ACCESS:     129016  HIT:      81037  MISS:      47979
LLC RFO       ACCESS:     119579  HIT:      81797  MISS:      37782
LLC PREFETCH  ACCESS:          0  HIT:          0  MISS:          0
LLC WRITEBACK ACCESS:     121502  HIT:      87458  MISS:      34044
Heartbeat CPU 0 instructions: 76000003 cycles: 30096939 heartbeat IPC: 2.26231 cumulative IPC: 1.67596 (Simulation time: 0 hr 59 min 45 sec) 

Region of Interest Statistics
cpu0_DTLB TOTAL     ACCESS:    6075923  HIT:    6069538  MISS:       6385
cpu0_DTLB LOAD      ACCESS:    4557819  HIT:    4554278  MISS:       3541
cpu0_DTLB RFO       ACCESS:    1518104  HIT:    1515260  MISS:       2844
cpu0_DTLB PREFETCH  ACCESS:          0  HIT:          0  MISS:          0
cpu0_DTLB WRITEBACK ACCESS:          0  HIT:          0  MISS:          0
cpu0_ITLB TOTAL     ACCESS:      24244  HIT:      24244  MISS:          0
cpu0_ITLB LOAD      ACCESS:      24244  HIT:      24244  MISS:          0
cpu0_ITLB RFO       ACCESS:          0  HIT:          0  MISS:          0
cpu0_ITLB PREFETCH  ACCESS:          0  HIT:          0  MISS:          0
cpu0_ITLB WRITEBACK ACCESS:          0  HIT:          0  MISS:          0
cpu0_L1I TOTAL     ACCESS:       4085  HIT:       4085  MISS:          0
cpu0_L1I LOAD      ACCESS:       4085  HIT:       4085  MISS:          0
cpu0_L1I RFO       ACCESS:          0  HIT:          0  MISS:          0
cpu0_L1I PREFETCH  ACCESS:          0  HIT:          0  MISS:          0
cpu0_L1I WRITEBACK ACCESS:          0  HIT:          0  MISS:          0
cpu0_STLB TOTAL     ACCESS:       6385  HIT:       3818  MISS:       2567
cpu0_STLB LOAD      ACCESS:       3541  HIT:       1994  MISS:       1547
cpu0_STLB RFO       ACCESS:       2844  HIT:       1824  MISS:       1020
cpu0_STLB PREFETCH  ACCESS:          0  HIT:          0  MISS:          0
cpu0_STLB WRITEBACK ACCESS:          0  HIT:          0  MISS:          0
cpu0_L1D TOTAL     ACCESS:    6643513  HIT:    6328086  MISS:     315427
cpu0_L1D LOAD      ACCESS:    4462366  HIT:    4277845  MISS:     184521
cpu0_L1D RFO       ACCESS:    2178612  HIT:    2048585  MISS:     130027
cpu0_L1D PREFETCH  ACCESS:          0  HIT:          0  MISS:          0
cpu0_L1D WRITEBACK ACCESS:          0  HIT:          0  MISS:          0
cpu0_L2C TOTAL     ACCESS:     445949  HIT:     183702  MISS:     262247
cpu0_L2C LOAD      ACCESS:     184521  HIT:      52541  MISS:     131980
cpu0_L2C RFO       ACCESS:     130027  HIT:        657  MISS:     129370
cpu0_L2C PREFETCH  ACCESS:          0  HIT:          0  MISS:          0
cpu0_L2C WRITEBACK ACCESS:     130522  HIT:     130289  MISS:        233
LLC TOTAL     ACCESS:     392235  HIT:     265893  MISS:     126342
LLC LOAD      ACCESS:     131980  HIT:      81037  MISS:      50943
LLC RFO       ACCESS:     129370  HIT:      91170  MISS:      38200
LLC PREFETCH  ACCESS:          0  HIT:          0  MISS:          0
LLC WRITEBACK ACCESS:     130221  HIT:      93390  MISS:      36831
Heartbeat CPU 0 instructions: 78000001 cycles: 30983765 heartbeat IPC: 2.25523 cumulative IPC: 1.70728 (Simulation time: 1 hr 1 min 28 sec) 

Region of Interest Statistics
cpu0_DTLB TOTAL     ACCESS:    6487506  HIT:    6480878  MISS:       6628
cpu0_DTLB LOAD      ACCESS:    4838579  HIT:    4834948  MISS:       3631
cpu0_DTLB RFO       ACCESS:    1648927  HIT:    1645930  MISS:       2997
cpu0_DTLB PREFETCH  ACCESS:          0  HIT:          0  MISS:          0
cpu0_DTLB WRITEBACK ACCESS:          0  HIT:          0  MISS:          0
cpu0_ITLB TOTAL     ACCESS:      24831  HIT:      24831  MISS:          0
cpu0_ITLB LOAD      ACCESS:      24831  HIT:      24831  MISS:          0
cpu0_ITLB RFO       ACCESS:          0  HIT:          0  MISS:          0
cpu0_ITLB PREFETCH  ACCESS:          0  HIT:          0  MISS:          0
cpu0_ITLB WRITEBACK ACCESS:          0  HIT:          0  MISS:          0
cpu0_L1I TOTAL     ACCESS:       4085  HIT:       4085  MISS:          0
cpu0_L1I LOAD      ACCESS:       4085  HIT:       4085  MISS:          0
cpu0_L1I RFO       ACCESS:          0  HIT:          0  MISS:          0
cpu0_L1I PREFETCH  ACCESS:          0  HIT:          0  MISS:          0
cpu0_L1I WRITEBACK ACCESS:          0  HIT:          0  MISS:          0
cpu0_STLB TOTAL     ACCESS:       6628  HIT:       3968  MISS:       2660
cpu0_STLB LOAD      ACCESS:       3631  HIT:       1994  MISS:       1637
cpu0_STLB RFO       ACCESS:       2997  HIT:       1974  MISS:       1023
cpu0_STLB PREFETCH  ACCESS:          0  HIT:          0  MISS:          0
cpu0_STLB WRITEBACK ACCESS:          0  HIT:          0  MISS:          0
cpu0_L1D TOTAL     ACCESS:    7163270  HIT:    6834901  MISS:     328369
cpu0_L1D LOAD      ACCESS:    4780694  HIT:    4593104  MISS:     187590
cpu0_L1D RFO       ACCESS:    2379948  HIT:    2240084  MISS:     139864
cpu0_L1D PREFETCH  ACCESS:          0  HIT:          0  MISS:          0
cpu0_L1D WRITEBACK ACCESS:          0  HIT:          0  MISS:          0
cpu0_L2C TOTAL     ACCESS:     468745  HIT:     193674  MISS:     275071
cpu0_L2C LOAD      ACCESS:     187590  HIT:      52646  MISS:     134944
cpu0_L2C RFO       ACCESS:     139864  HIT:        657  MISS:     139207
cpu0_L2C PREFETCH  ACCESS:          0  HIT:          0  MISS:          0
cpu0_L2C WRITEBACK ACCESS:     140376  HIT:     140143  MISS:        233
LLC TOTAL     ACCESS:     414821  HIT:     284710  MISS:     130111
LLC LOAD      ACCESS:     134944  HIT:      81037  MISS:      53907
LLC RFO       ACCESS:     139207  HIT:     100417  MISS:      38790
LLC PREFETCH  ACCESS:          0  HIT:          0  MISS:          0
LLC WRITEBACK ACCESS:     139983  HIT:     102949  MISS:      37034
Heartbeat CPU 0 instructions: 80000003 cycles: 32376341 heartbeat IPC: 1.43619 cumulative IPC: 1.68606 (Simulation time: 1 hr 3 min 38 sec) 

Region of Interest Statistics
cpu0_DTLB TOTAL     ACCESS:    7054002  HIT:    7046787  MISS:       7215
cpu0_DTLB LOAD      ACCESS:    5321838  HIT:    5317752  MISS:       4086
cpu0_DTLB RFO       ACCESS:    1732164  HIT:    1729035  MISS:       3129
cpu0_DTLB PREFETCH  ACCESS:          0  HIT:          0  MISS:          0
cpu0_DTLB WRITEBACK ACCESS:          0  HIT:          0  MISS:          0
cpu0_ITLB TOTAL     ACCESS:      28122  HIT:      28122  MISS:          0
cpu0_ITLB LOAD      ACCESS:      28122  HIT:      28122  MISS:          0
cpu0_ITLB RFO       ACCESS:          0  HIT:          0  MISS:          0
cpu0_ITLB PREFETCH  ACCESS:          0  HIT:          0  MISS:          0
cpu0_ITLB WRITEBACK ACCESS:          0  HIT:          0  MISS:          0
cpu0_L1I TOTAL     ACCESS:       5081  HIT:       5081  MISS:          0
cpu0_L1I LOAD      ACCESS:       5081  HIT:       5081  MISS:          0
cpu0_L1I RFO       ACCESS:          0  HIT:          0  MISS:          0
cpu0_L1I PREFETCH  ACCESS:          0  HIT:          0  MISS:          0
cpu0_L1I WRITEBACK ACCESS:          0  HIT:          0  MISS:          0
cpu0_STLB TOTAL     ACCESS:       7215  HIT:       4291  MISS:       2924
cpu0_STLB LOAD      ACCESS:       4086  HIT:       2261  MISS:       1825
cpu0_STLB RFO       ACCESS:       3129  HIT:       2030  MISS:       1099
cpu0_STLB PREFETCH  ACCESS:          0  HIT:          0  MISS:          0
cpu0_STLB WRITEBACK ACCESS:          0  HIT:          0  MISS:          0
cpu0_L1D TOTAL     ACCESS:    7692819  HIT:    7326936  MISS:     365883
cpu0_L1D LOAD      ACCESS:    5190106  HIT:    4971249  MISS:     218857
cpu0_L1D RFO       ACCESS:    2499823  HIT:    2353805  MISS:     146018
cpu0_L1D PREFETCH  ACCESS:          0  HIT:          0  MISS:          0
cpu0_L1D WRITEBACK ACCESS:          0  HIT:          0  MISS:          0
cpu0_L2C TOTAL     ACCESS:     512976  HIT:     211889  MISS:     301087
cpu0_L2C LOAD      ACCESS:     218857  HIT:      64121  MISS:     154736
cpu0_L2C RFO       ACCESS:     146018  HIT:        657  MISS:     145361
cpu0_L2C PREFETCH  ACCESS:          0  HIT:          0  MISS:          0
cpu0_L2C WRITEBACK ACCESS:     147093  HIT:     146857  MISS:        236
LLC TOTAL     ACCESS:     452328  HIT:     310971  MISS:     141357
LLC LOAD      ACCESS:     154736  HIT:      94652  MISS:      60084
LLC RFO       ACCESS:     145361  HIT:     103745  MISS:      41616
LLC PREFETCH  ACCESS:          0  HIT:          0  MISS:          0
LLC WRITEBACK ACCESS:     151477  HIT:     112231  MISS:      39246
Heartbeat CPU 0 instructions: 82000004 cycles: 33763398 heartbeat IPC: 1.4419 cumulative IPC: 1.66841 (Simulation time: 1 hr 5 min 51 sec) 

Region of Interest Statistics
cpu0_DTLB TOTAL     ACCESS:    7490378  HIT:    7482639  MISS:       7739
cpu0_DTLB LOAD      ACCESS:    5627384  HIT:    5623092  MISS:       4292
cpu0_DTLB RFO       ACCESS:    1862994  HIT:    1859547  MISS:       3447
cpu0_DTLB PREFETCH  ACCESS:          0  HIT:          0  MISS:          0
cpu0_DTLB WRITEBACK ACCESS:          0  HIT:          0  MISS:          0
cpu0_ITLB TOTAL     ACCESS:      30155  HIT:      30155  MISS:          0
cpu0_ITLB LOAD      ACCESS:      30155  HIT:      30155  MISS:          0
cpu0_ITLB RFO       ACCESS:          0  HIT:          0  MISS:          0
cpu0_ITLB PREFETCH  ACCESS:          0  HIT:          0  MISS:          0
cpu0_ITLB WRITEBACK ACCESS:          0  HIT:          0  MISS:          0
cpu0_L1I TOTAL     ACCESS:       5106  HIT:       5106  MISS:          0
cpu0_L1I LOAD      ACCESS:       5106  HIT:       5106  MISS:          0
cpu0_L1I RFO       ACCESS:          0  HIT:          0  MISS:          0
cpu0_L1I PREFETCH  ACCESS:          0  HIT:          0  MISS:          0
cpu0_L1I WRITEBACK ACCESS:          0  HIT:          0  MISS:          0
cpu0_STLB TOTAL     ACCESS:       7739  HIT:       4555  MISS:       3184
cpu0_STLB LOAD      ACCESS:       4292  HIT:       2383  MISS:       1909
cpu0_STLB RFO       ACCESS:       3447  HIT:       2172  MISS:       1275
cpu0_STLB PREFETCH  ACCESS:          0  HIT:          0  MISS:          0
cpu0_STLB WRITEBACK ACCESS:          0  HIT:          0  MISS:          0
cpu0_L1D TOTAL     ACCESS:    8170300  HIT:    7779241  MISS:     391059
cpu0_L1D LOAD      ACCESS:    5494559  HIT:    5264655  MISS:     229904
cpu0_L1D RFO       ACCESS:    2672598  HIT:    2512531  MISS:     160067
cpu0_L1D PREFETCH  ACCESS:          0  HIT:          0  MISS:          0
cpu0_L1D WRITEBACK ACCESS:          0  HIT:          0  MISS:          0
cpu0_L2C TOTAL     ACCESS:     551715  HIT:     227042  MISS:     324673
cpu0_L2C LOAD      ACCESS:     229904  HIT:      65593  MISS:     164311
cpu0_L2C RFO       ACCESS:     160067  HIT:        767  MISS:     159300
cpu0_L2C PREFETCH  ACCESS:          0  HIT:          0  MISS:          0
cpu0_L2C WRITEBACK ACCESS:     160656  HIT:     160417  MISS:        239
LLC TOTAL     ACCESS:     484868  HIT:     328242  MISS:     156626
LLC LOAD      ACCESS:     164311  HIT:     101441  MISS:      62870
LLC RFO       ACCESS:     159300  HIT:     111568  MISS:      47732
LLC PREFETCH  ACCESS:          0  HIT:          0  MISS:          0
LLC WRITEBACK ACCESS:     160434  HIT:     114867  MISS:      45567
Heartbeat CPU 0 instructions: 84000004 cycles: 34645895 heartbeat IPC: 2.2663 cumulative IPC: 1.69471 (Simulation time: 1 hr 7 min 35 sec) 

Region of Interest Statistics
cpu0_DTLB TOTAL     ACCESS:    7901721  HIT:    7893738  MISS:       7983
cpu0_DTLB LOAD      ACCESS:    5906938  HIT:    5902555  MISS:       4383
cpu0_DTLB RFO       ACCESS:    1994783  HIT:    1991183  MISS:       3600
cpu0_DTLB PREFETCH  ACCESS:          0  HIT:          0  MISS:          0
cpu0_DTLB WRITEBACK ACCESS:          0  HIT:          0  MISS:          0
cpu0_ITLB TOTAL     ACCESS:      30756  HIT:      30756  MISS:          0
cpu0_ITLB LOAD      ACCESS:      30756  HIT:      30756  MISS:          0
cpu0_ITLB RFO       ACCESS:          0  HIT:          0  MISS:          0
cpu0_ITLB PREFETCH  ACCESS:          0  HIT:          0  MISS:          0
cpu0_ITLB WRITEBACK ACCESS:          0  HIT:          0  MISS:          0
cpu0_L1I TOTAL     ACCESS:       5106  HIT:       5106  MISS:          0
cpu0_L1I LOAD      ACCESS:       5106  HIT:       5106  MISS:          0
cpu0_L1I RFO       ACCESS:          0  HIT:          0  MISS:          0
cpu0_L1I PREFETCH  ACCESS:          0  HIT:          0  MISS:          0
cpu0_L1I WRITEBACK ACCESS:          0  HIT:          0  MISS:          0
cpu0_STLB TOTAL     ACCESS:       7983  HIT:       4703  MISS:       3280
cpu0_STLB LOAD      ACCESS:       4383  HIT:       2383  MISS:       2000
cpu0_STLB RFO       ACCESS:       3600  HIT:       2320  MISS:       1280
cpu0_STLB PREFETCH  ACCESS:          0  HIT:          0  MISS:          0
cpu0_STLB WRITEBACK ACCESS:          0  HIT:          0  MISS:          0
cpu0_L1D TOTAL     ACCESS:    8692428  HIT:    8288424  MISS:     404004
cpu0_L1D LOAD      ACCESS:    5815081  HIT:    5582108  MISS:     232973
cpu0_L1D RFO       ACCESS:    2874108  HIT:    2704204  MISS:     169904
cpu0_L1D PREFETCH  ACCESS:          0  HIT:          0  MISS:          0
cpu0_L1D WRITEBACK ACCESS:          0  HIT:          0  MISS:          0
cpu0_L2C TOTAL     ACCESS:     574521  HIT:     237024  MISS:     337497
cpu0_L2C LOAD      ACCESS:     232973  HIT:      65698  MISS:     167275
cpu0_L2C RFO       ACCESS:     169904  HIT:        767  MISS:     169137
cpu0_L2C PREFETCH  ACCESS:          0  HIT:          0  MISS:          0
cpu0_L2C WRITEBACK ACCESS:     170517  HIT:     170278  MISS:        239
LLC TOTAL     ACCESS:     507326  HIT:     346460  MISS:     160866
LLC LOAD      ACCESS:     167275  HIT:     101441  MISS:      65834
LLC RFO       ACCESS:     169137  HIT:     120959  MISS:      48178
LLC PREFETCH  ACCESS:          0  HIT:          0  MISS:          0
LLC WRITEBACK ACCESS:     170068  HIT:     123681  MISS:      46387
Heartbeat CPU 0 instructions: 86000001 cycles: 35698411 heartbeat IPC: 1.90021 cumulative IPC: 1.70495 (Simulation time: 1 hr 9 min 31 sec) 

Region of Interest Statistics
cpu0_DTLB TOTAL     ACCESS:    8339489  HIT:    8331156  MISS:       8333
cpu0_DTLB LOAD      ACCESS:    6216222  HIT:    6211618  MISS:       4604
cpu0_DTLB RFO       ACCESS:    2123267  HIT:    2119538  MISS:       3729
cpu0_DTLB PREFETCH  ACCESS:          0  HIT:          0  MISS:          0
cpu0_DTLB WRITEBACK ACCESS:          0  HIT:          0  MISS:          0
cpu0_ITLB TOTAL     ACCESS:      33215  HIT:      33215  MISS:          0
cpu0_ITLB LOAD      ACCESS:      33215  HIT:      33215  MISS:          0
cpu0_ITLB RFO       ACCESS:          0  HIT:          0  MISS:          0
cpu0_ITLB PREFETCH  ACCESS:          0  HIT:          0  MISS:          0
cpu0_ITLB WRITEBACK ACCESS:          0  HIT:          0  MISS:          0
cpu0_L1I TOTAL     ACCESS:       6099  HIT:       6099  MISS:          0
cpu0_L1I LOAD      ACCESS:       6099  HIT:       6099  MISS:          0
cpu0_L1I RFO       ACCESS:          0  HIT:          0  MISS:          0
cpu0_L1I PREFETCH  ACCESS:          0  HIT:          0  MISS:          0
cpu0_L1I WRITEBACK ACCESS:          0  HIT:          0  MISS:          0
cpu0_STLB TOTAL     ACCESS:       8333  HIT:       4886  MISS:       3447
cpu0_STLB LOAD      ACCESS:       4604  HIT:       2445  MISS:       2159
cpu0_STLB RFO       ACCESS:       3729  HIT:       2441  MISS:       1288
cpu0_STLB PREFETCH  ACCESS:          0  HIT:          0  MISS:          0
cpu0_STLB WRITEBACK ACCESS:          0  HIT:          0  MISS:          0
cpu0_L1D TOTAL     ACCESS:    9200278  HIT:    8779408  MISS:     420870
cpu0_L1D LOAD      ACCESS:    6119961  HIT:    5878323  MISS:     241638
cpu0_L1D RFO       ACCESS:    3076913  HIT:    2898869  MISS:     178044
cpu0_L1D PREFETCH  ACCESS:          0  HIT:          0  MISS:          0
cpu0_L1D WRITEBACK ACCESS:          0  HIT:          0  MISS:          0
cpu0_L2C TOTAL     ACCESS:     600076  HIT:     246457  MISS:     353619
cpu0_L2C LOAD      ACCESS:     241638  HIT:      66431  MISS:     175207
cpu0_L2C RFO       ACCESS:     178044  HIT:        767  MISS:     177277
cpu0_L2C PREFETCH  ACCESS:          0  HIT:          0  MISS:          0
cpu0_L2C WRITEBACK ACCESS:     179206  HIT:     178961  MISS:        245
LLC TOTAL     ACCESS:     535645  HIT:     367638  MISS:     168007
LLC LOAD      ACCESS:     175207  HIT:     104130  MISS:      71077
LLC RFO       ACCESS:     177277  HIT:     128046  MISS:      49231
LLC PREFETCH  ACCESS:          0  HIT:          0  MISS:          0
LLC WRITEBACK ACCESS:     182271  HIT:     135072  MISS:      47199
Heartbeat CPU 0 instructions: 88000001 cycles: 37441767 heartbeat IPC: 1.14721 cumulative IPC: 1.66241 (Simulation time: 1 hr 12 min 12 sec) 

Region of Interest Statistics
cpu0_DTLB TOTAL     ACCESS:    8909585  HIT:    8900468  MISS:       9117
cpu0_DTLB LOAD      ACCESS:    6697671  HIT:    6692613  MISS:       5058
cpu0_DTLB RFO       ACCESS:    2211914  HIT:    2207855  MISS:       4059
cpu0_DTLB PREFETCH  ACCESS:          0  HIT:          0  MISS:          0
cpu0_DTLB WRITEBACK ACCESS:          0  HIT:          0  MISS:          0
cpu0_ITLB TOTAL     ACCESS:      36031  HIT:      36031  MISS:          0
cpu0_ITLB LOAD      ACCESS:      36031  HIT:      36031  MISS:          0
cpu0_ITLB RFO       ACCESS:          0  HIT:          0  MISS:          0
cpu0_ITLB PREFETCH  ACCESS:          0  HIT:          0  MISS:          0
cpu0_ITLB WRITEBACK ACCESS:          0  HIT:          0  MISS:          0
cpu0_L1I TOTAL     ACCESS:       6124  HIT:       6124  MISS:          0
cpu0_L1I LOAD      ACCESS:       6124  HIT:       6124  MISS:          0
cpu0_L1I RFO       ACCESS:          0  HIT:          0  MISS:          0
cpu0_L1I PREFETCH  ACCESS:          0  HIT:          0  MISS:          0
cpu0_L1I WRITEBACK ACCESS:          0  HIT:          0  MISS:          0
cpu0_STLB TOTAL     ACCESS:       9117  HIT:       5313  MISS:       3804
cpu0_STLB LOAD      ACCESS:       5058  HIT:       2785  MISS:       2273
cpu0_STLB RFO       ACCESS:       4059  HIT:       2528  MISS:       1531
cpu0_STLB PREFETCH  ACCESS:          0  HIT:          0  MISS:          0
cpu0_STLB WRITEBACK ACCESS:          0  HIT:          0  MISS:          0
cpu0_L1D TOTAL     ACCESS:    9704176  HIT:    9237509  MISS:     466667
cpu0_L1D LOAD      ACCESS:    6533906  HIT:    6258657  MISS:     275249
cpu0_L1D RFO       ACCESS:    3166516  HIT:    2976399  MISS:     190117
cpu0_L1D PREFETCH  ACCESS:          0  HIT:          0  MISS:          0
cpu0_L1D WRITEBACK ACCESS:          0  HIT:          0  MISS:          0
cpu0_L2C TOTAL     ACCESS:     657470  HIT:     270524  MISS:     386946
cpu0_L2C LOAD      ACCESS:     275249  HIT:      78734  MISS:     196515
cpu0_L2C RFO       ACCESS:     190117  HIT:        917  MISS:     189200
cpu0_L2C PREFETCH  ACCESS:          0  HIT:          0  MISS:          0
cpu0_L2C WRITEBACK ACCESS:     190803  HIT:     190555  MISS:        248
LLC TOTAL     ACCESS:     577916  HIT:     391314  MISS:     186602
LLC LOAD      ACCESS:     196515  HIT:     121682  MISS:      74833
LLC RFO       ACCESS:     189200  HIT:     131857  MISS:      57343
LLC PREFETCH  ACCESS:          0  HIT:          0  MISS:          0
LLC WRITEBACK ACCESS:     191218  HIT:     137337  MISS:      53881
Heartbeat CPU 0 instructions: 90000004 cycles: 38325782 heartbeat IPC: 2.26241 cumulative IPC: 1.68475 (Simulation time: 1 hr 13 min 53 sec) 

Region of Interest Statistics
cpu0_DTLB TOTAL     ACCESS:    9321164  HIT:    9311804  MISS:       9360
cpu0_DTLB LOAD      ACCESS:    6978406  HIT:    6973257  MISS:       5149
cpu0_DTLB RFO       ACCESS:    2342758  HIT:    2338547  MISS:       4211
cpu0_DTLB PREFETCH  ACCESS:          0  HIT:          0  MISS:          0
cpu0_DTLB WRITEBACK ACCESS:          0  HIT:          0  MISS:          0
cpu0_ITLB TOTAL     ACCESS:      36607  HIT:      36607  MISS:          0
cpu0_ITLB LOAD      ACCESS:      36607  HIT:      36607  MISS:          0
cpu0_ITLB RFO       ACCESS:          0  HIT:          0  MISS:          0
cpu0_ITLB PREFETCH  ACCESS:          0  HIT:          0  MISS:          0
cpu0_ITLB WRITEBACK ACCESS:          0  HIT:          0  MISS:          0
cpu0_L1I TOTAL     ACCESS:       6124  HIT:       6124  MISS:          0
cpu0_L1I LOAD      ACCESS:       6124  HIT:       6124  MISS:          0
cpu0_L1I RFO       ACCESS:          0  HIT:          0  MISS:          0
cpu0_L1I PREFETCH  ACCESS:          0  HIT:          0  MISS:          0
cpu0_L1I WRITEBACK ACCESS:          0  HIT:          0  MISS:          0
cpu0_STLB TOTAL     ACCESS:       9360  HIT:       5464  MISS:       3896
cpu0_STLB LOAD      ACCESS:       5149  HIT:       2785  MISS:       2364
cpu0_STLB RFO       ACCESS:       4211  HIT:       2679  MISS:       1532
cpu0_STLB PREFETCH  ACCESS:          0  HIT:          0  MISS:          0
cpu0_STLB WRITEBACK ACCESS:          0  HIT:          0  MISS:          0
cpu0_L1D TOTAL     ACCESS:   10223991  HIT:    9744375  MISS:     479616
cpu0_L1D LOAD      ACCESS:    6852227  HIT:    6573906  MISS:     278321
cpu0_L1D RFO       ACCESS:    3367918  HIT:    3167963  MISS:     199955
cpu0_L1D PREFETCH  ACCESS:          0  HIT:          0  MISS:          0
cpu0_L1D WRITEBACK ACCESS:          0  HIT:          0  MISS:          0
cpu0_L2C TOTAL     ACCESS:     680316  HIT:     280557  MISS:     399759
cpu0_L2C LOAD      ACCESS:     278321  HIT:      78839  MISS:     199482
cpu0_L2C RFO       ACCESS:     199955  HIT:        932  MISS:     199023
cpu0_L2C PREFETCH  ACCESS:          0  HIT:          0  MISS:          0
cpu0_L2C WRITEBACK ACCESS:     200700  HIT:     200452  MISS:        248
LLC TOTAL     ACCESS:     599690  HIT:     407861  MISS:     191829
LLC LOAD      ACCESS:     199482  HIT:     121682  MISS:      77800
LLC RFO       ACCESS:     199023  HIT:     141105  MISS:      57918
LLC PREFETCH  ACCESS:          0  HIT:          0  MISS:          0
LLC WRITEBACK ACCESS:     200179  HIT:     144626  MISS:      55553
Heartbeat CPU 0 instructions: 92000001 cycles: 39211207 heartbeat IPC: 2.2588 cumulative IPC: 1.70539 (Simulation time: 1 hr 15 min 42 sec) 

Region of Interest Statistics
cpu0_DTLB TOTAL     ACCESS:    9732509  HIT:    9722905  MISS:       9604
cpu0_DTLB LOAD      ACCESS:    7258838  HIT:    7253598  MISS:       5240
cpu0_DTLB RFO       ACCESS:    2473671  HIT:    2469307  MISS:       4364
cpu0_DTLB PREFETCH  ACCESS:          0  HIT:          0  MISS:          0
cpu0_DTLB WRITEBACK ACCESS:          0  HIT:          0  MISS:          0
cpu0_ITLB TOTAL     ACCESS:      37179  HIT:      37179  MISS:          0
cpu0_ITLB LOAD      ACCESS:      37179  HIT:      37179  MISS:          0
cpu0_ITLB RFO       ACCESS:          0  HIT:          0  MISS:          0
cpu0_ITLB PREFETCH  ACCESS:          0  HIT:          0  MISS:          0
cpu0_ITLB WRITEBACK ACCESS:          0  HIT:          0  MISS:          0
cpu0_L1I TOTAL     ACCESS:       6124  HIT:       6124  MISS:          0
cpu0_L1I LOAD      ACCESS:       6124  HIT:       6124  MISS:          0
cpu0_L1I RFO       ACCESS:          0  HIT:          0  MISS:          0
cpu0_L1I PREFETCH  ACCESS:          0  HIT:          0  MISS:          0
cpu0_L1I WRITEBACK ACCESS:          0  HIT:          0  MISS:          0
cpu0_STLB TOTAL     ACCESS:       9604  HIT:       5615  MISS:       3989
cpu0_STLB LOAD      ACCESS:       5240  HIT:       2785  MISS:       2455
cpu0_STLB RFO       ACCESS:       4364  HIT:       2830  MISS:       1534
cpu0_STLB PREFETCH  ACCESS:          0  HIT:          0  MISS:          0
cpu0_STLB WRITEBACK ACCESS:          0  HIT:          0  MISS:          0
cpu0_L1D TOTAL     ACCESS:   10743595  HIT:   10251040  MISS:     492555
cpu0_L1D LOAD      ACCESS:    7170696  HIT:    6889309  MISS:     281387
cpu0_L1D RFO       ACCESS:    3568960  HIT:    3359168  MISS:     209792
cpu0_L1D PREFETCH  ACCESS:          0  HIT:          0  MISS:          0
cpu0_L1D WRITEBACK ACCESS:          0  HIT:          0  MISS:          0
cpu0_L2C TOTAL     ACCESS:     703119  HIT:     290538  MISS:     412581
cpu0_L2C LOAD      ACCESS:     281387  HIT:      78944  MISS:     202443
cpu0_L2C RFO       ACCESS:     209792  HIT:        932  MISS:     208860
cpu0_L2C PREFETCH  ACCESS:          0  HIT:          0  MISS:          0
cpu0_L2C WRITEBACK ACCESS:     210564  HIT:     210316  MISS:        248
LLC TOTAL     ACCESS:     622217  HIT:     426154  MISS:     196063
LLC LOAD      ACCESS:     202443  HIT:     121682  MISS:      80761
LLC RFO       ACCESS:     208860  HIT:     150177  MISS:      58683
LLC PREFETCH  ACCESS:          0  HIT:          0  MISS:          0
LLC WRITEBACK ACCESS:     209884  HIT:     153837  MISS:      56047
Heartbeat CPU 0 instructions: 94000004 cycles: 41001118 heartbeat IPC: 1.11738 cumulative IPC: 1.66555 (Simulation time: 1 hr 18 min 19 sec) 

Region of Interest Statistics
cpu0_DTLB TOTAL     ACCESS:   10321893  HIT:   10311091  MISS:      10802
cpu0_DTLB LOAD      ACCESS:    7766608  HIT:    7760543  MISS:       6065
cpu0_DTLB RFO       ACCESS:    2555285  HIT:    2550548  MISS:       4737
cpu0_DTLB PREFETCH  ACCESS:          0  HIT:          0  MISS:          0
cpu0_DTLB WRITEBACK ACCESS:          0  HIT:          0  MISS:          0
cpu0_ITLB TOTAL     ACCESS:      41722  HIT:      41722  MISS:          0
cpu0_ITLB LOAD      ACCESS:      41722  HIT:      41722  MISS:          0
cpu0_ITLB RFO       ACCESS:          0  HIT:          0  MISS:          0
cpu0_ITLB PREFETCH  ACCESS:          0  HIT:          0  MISS:          0
cpu0_ITLB WRITEBACK ACCESS:          0  HIT:          0  MISS:          0
cpu0_L1I TOTAL     ACCESS:       7116  HIT:       7116  MISS:          0
cpu0_L1I LOAD      ACCESS:       7116  HIT:       7116  MISS:          0
cpu0_L1I RFO       ACCESS:          0  HIT:          0  MISS:          0
cpu0_L1I PREFETCH  ACCESS:          0  HIT:          0  MISS:          0
cpu0_L1I WRITEBACK ACCESS:          0  HIT:          0  MISS:          0
cpu0_STLB TOTAL     ACCESS:      10802  HIT:       6415  MISS:       4387
cpu0_STLB LOAD      ACCESS:       6065  HIT:       3429  MISS:       2636
cpu0_STLB RFO       ACCESS:       4737  HIT:       2986  MISS:       1751
cpu0_STLB PREFETCH  ACCESS:          0  HIT:          0  MISS:          0
cpu0_STLB WRITEBACK ACCESS:          0  HIT:          0  MISS:          0
cpu0_L1D TOTAL     ACCESS:   11238352  HIT:   10697917  MISS:     540435
cpu0_L1D LOAD      ACCESS:    7570192  HIT:    7250566  MISS:     319626
cpu0_L1D RFO       ACCESS:    3663837  HIT:    3444527  MISS:     219310
cpu0_L1D PREFETCH  ACCESS:          0  HIT:          0  MISS:          0
cpu0_L1D WRITEBACK ACCESS:          0  HIT:          0  MISS:          0
cpu0_L2C TOTAL     ACCESS:     760759  HIT:     313134  MISS:     447625
cpu0_L2C LOAD      ACCESS:     319626  HIT:      91780  MISS:     227846
cpu0_L2C RFO       ACCESS:     219310  HIT:        932  MISS:     218378
cpu0_L2C PREFETCH  ACCESS:          0  HIT:          0  MISS:          0
cpu0_L2C WRITEBACK ACCESS:     220324  HIT:     220057  MISS:        267
LLC TOTAL     ACCESS:     669454  HIT:     455715  MISS:     213739
LLC LOAD      ACCESS:     227846  HIT:     140961  MISS:      86885
LLC RFO       ACCESS:     218378  HIT:     152316  MISS:      66062
LLC PREFETCH  ACCESS:          0  HIT:          0  MISS:          0
LLC WRITEBACK ACCESS:     222096  HIT:     161933  MISS:      60163
Heartbeat CPU 0 instructions: 96000000 cycles: 41992709 heartbeat IPC: 2.01696 cumulative IPC: 1.67826 (Simulation time: 1 hr 20 min 13 sec) 

Region of Interest Statistics
cpu0_DTLB TOTAL     ACCESS:   10734704  HIT:   10723600  MISS:      11104
cpu0_DTLB LOAD      ACCESS:    8046838  HIT:    8040664  MISS:       6174
cpu0_DTLB RFO       ACCESS:    2687866  HIT:    2682936  MISS:       4930
cpu0_DTLB PREFETCH  ACCESS:          0  HIT:          0  MISS:          0
cpu0_DTLB WRITEBACK ACCESS:          0  HIT:          0  MISS:          0
cpu0_ITLB TOTAL     ACCESS:      42590  HIT:      42590  MISS:          0
cpu0_ITLB LOAD      ACCESS:      42590  HIT:      42590  MISS:          0
cpu0_ITLB RFO       ACCESS:          0  HIT:          0  MISS:          0
cpu0_ITLB PREFETCH  ACCESS:          0  HIT:          0  MISS:          0
cpu0_ITLB WRITEBACK ACCESS:          0  HIT:          0  MISS:          0
cpu0_L1I TOTAL     ACCESS:       7128  HIT:       7128  MISS:          0
cpu0_L1I LOAD      ACCESS:       7128  HIT:       7128  MISS:          0
cpu0_L1I RFO       ACCESS:          0  HIT:          0  MISS:          0
cpu0_L1I PREFETCH  ACCESS:          0  HIT:          0  MISS:          0
cpu0_L1I WRITEBACK ACCESS:          0  HIT:          0  MISS:          0
cpu0_STLB TOTAL     ACCESS:      11104  HIT:       6592  MISS:       4512
cpu0_STLB LOAD      ACCESS:       6174  HIT:       3449  MISS:       2725
cpu0_STLB RFO       ACCESS:       4930  HIT:       3143  MISS:       1787
cpu0_STLB PREFETCH  ACCESS:          0  HIT:          0  MISS:          0
cpu0_STLB WRITEBACK ACCESS:          0  HIT:          0  MISS:          0
cpu0_L1D TOTAL     ACCESS:   11751530  HIT:   11196301  MISS:     555229
cpu0_L1D LOAD      ACCESS:    7885137  HIT:    7561449  MISS:     323688
cpu0_L1D RFO       ACCESS:    3861945  HIT:    3631950  MISS:     229995
cpu0_L1D PREFETCH  ACCESS:          0  HIT:          0  MISS:          0
cpu0_L1D WRITEBACK ACCESS:          0  HIT:          0  MISS:          0
cpu0_L2C TOTAL     ACCESS:     786071  HIT:     323922  MISS:     462149
cpu0_L2C LOAD      ACCESS:     323688  HIT:      91919  MISS:     231769
cpu0_L2C RFO       ACCESS:     229995  HIT:       1052  MISS:     228943
cpu0_L2C PREFETCH  ACCESS:          0  HIT:          0  MISS:          0
cpu0_L2C WRITEBACK ACCESS:     230842  HIT:     230572  MISS:        270
LLC TOTAL     ACCESS:     692142  HIT:     469377  MISS:     222765
LLC LOAD      ACCESS:     231769  HIT:     141977  MISS:      89792
LLC RFO       ACCESS:     228943  HIT:     161403  MISS:      67540
LLC PREFETCH  ACCESS:          0  HIT:          0  MISS:          0
LLC WRITEBACK ACCESS:     230263  HIT:     165480  MISS:      64783
Heartbeat CPU 0 instructions: 98000003 cycles: 42888462 heartbeat IPC: 2.23276 cumulative IPC: 1.69581 (Simulation time: 1 hr 21 min 59 sec) 

Region of Interest Statistics
cpu0_DTLB TOTAL     ACCESS:   11146384  HIT:   11135033  MISS:      11351
cpu0_DTLB LOAD      ACCESS:    8326769  HIT:    8320501  MISS:       6268
cpu0_DTLB RFO       ACCESS:    2819615  HIT:    2814532  MISS:       5083
cpu0_DTLB PREFETCH  ACCESS:          0  HIT:          0  MISS:          0
cpu0_DTLB WRITEBACK ACCESS:          0  HIT:          0  MISS:          0
cpu0_ITLB TOTAL     ACCESS:      43250  HIT:      43250  MISS:          0
cpu0_ITLB LOAD      ACCESS:      43250  HIT:      43250  MISS:          0
cpu0_ITLB RFO       ACCESS:          0  HIT:          0  MISS:          0
cpu0_ITLB PREFETCH  ACCESS:          0  HIT:          0  MISS:          0
cpu0_ITLB WRITEBACK ACCESS:          0  HIT:          0  MISS:          0
cpu0_L1I TOTAL     ACCESS:       7128  HIT:       7128  MISS:          0
cpu0_L1I LOAD      ACCESS:       7128  HIT:       7128  MISS:          0
cpu0_L1I RFO       ACCESS:          0  HIT:          0  MISS:          0
cpu0_L1I PREFETCH  ACCESS:          0  HIT:          0  MISS:          0
cpu0_L1I WRITEBACK ACCESS:          0  HIT:          0  MISS:          0
cpu0_STLB TOTAL     ACCESS:      11351  HIT:       6743  MISS:       4608
cpu0_STLB LOAD      ACCESS:       6268  HIT:       3449  MISS:       2819
cpu0_STLB RFO       ACCESS:       5083  HIT:       3294  MISS:       1789
cpu0_STLB PREFETCH  ACCESS:          0  HIT:          0  MISS:          0
cpu0_STLB WRITEBACK ACCESS:          0  HIT:          0  MISS:          0
cpu0_L1D TOTAL     ACCESS:   12273518  HIT:   11705333  MISS:     568185
cpu0_L1D LOAD      ACCESS:    8205633  HIT:    7878869  MISS:     326764
cpu0_L1D RFO       ACCESS:    4063341  HIT:    3823502  MISS:     239839
cpu0_L1D PREFETCH  ACCESS:          0  HIT:          0  MISS:          0
cpu0_L1D WRITEBACK ACCESS:          0  HIT:          0  MISS:          0
cpu0_L2C TOTAL     ACCESS:     808904  HIT:     333922  MISS:     474982
cpu0_L2C LOAD      ACCESS:     326764  HIT:      92031  MISS:     234733
cpu0_L2C RFO       ACCESS:     239839  HIT:       1052  MISS:     238787
cpu0_L2C PREFETCH  ACCESS:          0  HIT:          0  MISS:          0
cpu0_L2C WRITEBACK ACCESS:     240719  HIT:     240449  MISS:        270
LLC TOTAL     ACCESS:     714670  HIT:     487943  MISS:     226727
LLC LOAD      ACCESS:     234733  HIT:     141977  MISS:      92756
LLC RFO       ACCESS:     238787  HIT:     170659  MISS:      68128
LLC PREFETCH  ACCESS:          0  HIT:          0  MISS:          0
LLC WRITEBACK ACCESS:     239958  HIT:     174776  MISS:      65182
Heartbeat CPU 0 instructions: 100000003 cycles: 44056601 heartbeat IPC: 1.71213 cumulative IPC: 1.69646 (Simulation time: 1 hr 24 min 2 sec) 

Region of Interest Statistics
cpu0_DTLB TOTAL     ACCESS:   11631554  HIT:   11619770  MISS:      11784
cpu0_DTLB LOAD      ACCESS:    8698596  HIT:    8692026  MISS:       6570
cpu0_DTLB RFO       ACCESS:    2932958  HIT:    2927744  MISS:       5214
cpu0_DTLB PREFETCH  ACCESS:          0  HIT:          0  MISS:          0
cpu0_DTLB WRITEBACK ACCESS:          0  HIT:          0  MISS:          0
cpu0_ITLB TOTAL     ACCESS:      45953  HIT:      45953  MISS:          0
cpu0_ITLB LOAD      ACCESS:      45953  HIT:      45953  MISS:          0
cpu0_ITLB RFO       ACCESS:          0  HIT:          0  MISS:          0
cpu0_ITLB PREFETCH  ACCESS:          0  HIT:          0  MISS:          0
cpu0_ITLB WRITEBACK ACCESS:          0  HIT:          0  MISS:          0
cpu0_L1I TOTAL     ACCESS:       8129  HIT:       8129  MISS:          0
cpu0_L1I LOAD      ACCESS:       8129  HIT:       8129  MISS:          0
cpu0_L1I RFO       ACCESS:          0  HIT:          0  MISS:          0
cpu0_L1I PREFETCH  ACCESS:          0  HIT:          0  MISS:          0
cpu0_L1I WRITEBACK ACCESS:          0  HIT:          0  MISS:          0
cpu0_STLB TOTAL     ACCESS:      11784  HIT:       6976  MISS:       4808
cpu0_STLB LOAD      ACCESS:       6570  HIT:       3583  MISS:       2987
cpu0_STLB RFO       ACCESS:       5214  HIT:       3393  MISS:       1821
cpu0_STLB PREFETCH  ACCESS:          0  HIT:          0  MISS:          0
cpu0_STLB WRITEBACK ACCESS:          0  HIT:          0  MISS:          0
cpu0_L1D TOTAL     ACCESS:   12790746  HIT:   12198403  MISS:     592343
cpu0_L1D LOAD      ACCESS:    8549135  HIT:    8205717  MISS:     343418
cpu0_L1D RFO       ACCESS:    4236870  HIT:    3989597  MISS:     247273
cpu0_L1D PREFETCH  ACCESS:          0  HIT:          0  MISS:          0
cpu0_L1D WRITEBACK ACCESS:          0  HIT:          0  MISS:          0
cpu0_L2C TOTAL     ACCESS:     841036  HIT:     346521  MISS:     494515
cpu0_L2C LOAD      ACCESS:     343418  HIT:      96651  MISS:     246767
cpu0_L2C RFO       ACCESS:     247273  HIT:       1052  MISS:     246221
cpu0_L2C PREFETCH  ACCESS:          0  HIT:          0  MISS:          0
cpu0_L2C WRITEBACK ACCESS:     248693  HIT:     248409  MISS:        284
LLC TOTAL     ACCESS:     746828  HIT:     512009  MISS:     234819
LLC LOAD      ACCESS:     246767  HIT:     148452  MISS:      98315
LLC RFO       ACCESS:     246221  HIT:     176462  MISS:      69759
LLC PREFETCH  ACCESS:          0  HIT:          0  MISS:          0
LLC WRITEBACK ACCESS:     252597  HIT:     186545  MISS:      66052
Heartbeat CPU 0 instructions: 102000002 cycles: 45666649 heartbeat IPC: 1.2422 cumulative IPC: 1.67293 (Simulation time: 1 hr 26 min 32 sec) 

Region of Interest Statistics
cpu0_DTLB TOTAL     ACCESS:   12153616  HIT:   12140818  MISS:      12798
cpu0_DTLB LOAD      ACCESS:    9117400  HIT:    9110297  MISS:       7103
cpu0_DTLB RFO       ACCESS:    3036216  HIT:    3030521  MISS:       5695
cpu0_DTLB PREFETCH  ACCESS:          0  HIT:          0  MISS:          0
cpu0_DTLB WRITEBACK ACCESS:          0  HIT:          0  MISS:          0
cpu0_ITLB TOTAL     ACCESS:      48705  HIT:      48705  MISS:          0
cpu0_ITLB LOAD      ACCESS:      48705  HIT:      48705  MISS:          0
cpu0_ITLB RFO       ACCESS:          0  HIT:          0  MISS:          0
cpu0_ITLB PREFETCH  ACCESS:          0  HIT:          0  MISS:          0
cpu0_ITLB WRITEBACK ACCESS:          0  HIT:          0  MISS:          0
cpu0_L1I TOTAL     ACCESS:       8154  HIT:       8154  MISS:          0
cpu0_L1I LOAD      ACCESS:       8154  HIT:       8154  MISS:          0
cpu0_L1I RFO       ACCESS:          0  HIT:          0  MISS:          0
cpu0_L1I PREFETCH  ACCESS:          0  HIT:          0  MISS:          0
cpu0_L1I WRITEBACK ACCESS:          0  HIT:          0  MISS:          0
cpu0_STLB TOTAL     ACCESS:      12798  HIT:       7667  MISS:       5131
cpu0_STLB LOAD      ACCESS:       7103  HIT:       4012  MISS:       3091
cpu0_STLB RFO       ACCESS:       5695  HIT:       3655  MISS:       2040
cpu0_STLB PREFETCH  ACCESS:          0  HIT:          0  MISS:          0
cpu0_STLB WRITEBACK ACCESS:          0  HIT:          0  MISS:          0
cpu0_L1D TOTAL     ACCESS:   13285172  HIT:   12654336  MISS:     630836
cpu0_L1D LOAD      ACCESS:    8924166  HIT:    8555125  MISS:     369041
cpu0_L1D RFO       ACCESS:    4355950  HIT:    4095906  MISS:     260044
cpu0_L1D PREFETCH  ACCESS:          0  HIT:          0  MISS:          0
cpu0_L1D WRITEBACK ACCESS:          0  HIT:          0  MISS:          0
cpu0_L2C TOTAL     ACCESS:     891824  HIT:     367515  MISS:     524309
cpu0_L2C LOAD      ACCESS:     369041  HIT:     105128  MISS:     263913
cpu0_L2C RFO       ACCESS:     260044  HIT:       1262  MISS:     258782
cpu0_L2C PREFETCH  ACCESS:          0  HIT:          0  MISS:          0
cpu0_L2C WRITEBACK ACCESS:     260988  HIT:     260701  MISS:        287
LLC TOTAL     ACCESS:     784702  HIT:     531979  MISS:     252723
LLC LOAD      ACCESS:     263913  HIT:     162204  MISS:     101709
LLC RFO       ACCESS:     258782  HIT:     181602  MISS:      77180
LLC PREFETCH  ACCESS:          0  HIT:          0  MISS:          0
LLC WRITEBACK ACCESS:     260680  HIT:     187586  MISS:      73094
Heartbeat CPU 0 instructions: 104000002 cycles: 46554853 heartbeat IPC: 2.25173 cumulative IPC: 1.68901 (Simulation time: 1 hr 28 min 14 sec) 

Region of Interest Statistics
cpu0_DTLB TOTAL     ACCESS:   12565011  HIT:   12551969  MISS:      13042
cpu0_DTLB LOAD      ACCESS:    9397876  HIT:    9390683  MISS:       7193
cpu0_DTLB RFO       ACCESS:    3167135  HIT:    3161286  MISS:       5849
cpu0_DTLB PREFETCH  ACCESS:          0  HIT:          0  MISS:          0
cpu0_DTLB WRITEBACK ACCESS:          0  HIT:          0  MISS:          0
cpu0_ITLB TOTAL     ACCESS:      49291  HIT:      49291  MISS:          0
cpu0_ITLB LOAD      ACCESS:      49291  HIT:      49291  MISS:          0
cpu0_ITLB RFO       ACCESS:          0  HIT:          0  MISS:          0
cpu0_ITLB PREFETCH  ACCESS:          0  HIT:          0  MISS:          0
cpu0_ITLB WRITEBACK ACCESS:          0  HIT:          0  MISS:          0
cpu0_L1I TOTAL     ACCESS:       8154  HIT:       8154  MISS:          0
cpu0_L1I LOAD      ACCESS:       8154  HIT:       8154  MISS:          0
cpu0_L1I RFO       ACCESS:          0  HIT:          0  MISS:          0
cpu0_L1I PREFETCH  ACCESS:          0  HIT:          0  MISS:          0
cpu0_L1I WRITEBACK ACCESS:          0  HIT:          0  MISS:          0
cpu0_STLB TOTAL     ACCESS:      13042  HIT:       7817  MISS:       5225
cpu0_STLB LOAD      ACCESS:       7193  HIT:       4012  MISS:       3181
cpu0_STLB RFO       ACCESS:       5849  HIT:       3805  MISS:       2044
cpu0_STLB PREFETCH  ACCESS:          0  HIT:          0  MISS:          0
cpu0_STLB WRITEBACK ACCESS:          0  HIT:          0  MISS:          0
cpu0_L1D TOTAL     ACCESS:   13804952  HIT:   13161170  MISS:     643782
cpu0_L1D LOAD      ACCESS:    9242614  HIT:    8870504  MISS:     372110
cpu0_L1D RFO       ACCESS:    4557188  HIT:    4287306  MISS:     269882
cpu0_L1D PREFETCH  ACCESS:          0  HIT:          0  MISS:          0
cpu0_L1D WRITEBACK ACCESS:          0  HIT:          0  MISS:          0
cpu0_L2C TOTAL     ACCESS:     914648  HIT:     377518  MISS:     537130
cpu0_L2C LOAD      ACCESS:     372110  HIT:     105233  MISS:     266877
cpu0_L2C RFO       ACCESS:     269882  HIT:       1266  MISS:     268616
cpu0_L2C PREFETCH  ACCESS:          0  HIT:          0  MISS:          0
cpu0_L2C WRITEBACK ACCESS:     270866  HIT:     270579  MISS:        287
LLC TOTAL     ACCESS:     806888  HIT:     549454  MISS:     257434
LLC LOAD      ACCESS:     266877  HIT:     162204  MISS:     104673
LLC RFO       ACCESS:     268616  HIT:     190800  MISS:      77816
LLC PREFETCH  ACCESS:          0  HIT:          0  MISS:          0
LLC WRITEBACK ACCESS:     270045  HIT:     195851  MISS:      74194
Heartbeat CPU 0 instructions: 106000000 cycles: 47440661 heartbeat IPC: 2.25782 cumulative IPC: 1.70434 (Simulation time: 1 hr 29 min 59 sec) 

Region of Interest Statistics
cpu0_DTLB TOTAL     ACCESS:   12976413  HIT:   12963125  MISS:      13288
cpu0_DTLB LOAD      ACCESS:    9678355  HIT:    9671071  MISS:       7284
cpu0_DTLB RFO       ACCESS:    3298058  HIT:    3292054  MISS:       6004
cpu0_DTLB PREFETCH  ACCESS:          0  HIT:          0  MISS:          0
cpu0_DTLB WRITEBACK ACCESS:          0  HIT:          0  MISS:          0
cpu0_ITLB TOTAL     ACCESS:      49878  HIT:      49878  MISS:          0
cpu0_ITLB LOAD      ACCESS:      49878  HIT:      49878  MISS:          0
cpu0_ITLB RFO       ACCESS:          0  HIT:          0  MISS:          0
cpu0_ITLB PREFETCH  ACCESS:          0  HIT:          0  MISS:          0
cpu0_ITLB WRITEBACK ACCESS:          0  HIT:          0  MISS:          0
cpu0_L1I TOTAL     ACCESS:       8154  HIT:       8154  MISS:          0
cpu0_L1I LOAD      ACCESS:       8154  HIT:       8154  MISS:          0
cpu0_L1I RFO       ACCESS:          0  HIT:          0  MISS:          0
cpu0_L1I PREFETCH  ACCESS:          0  HIT:          0  MISS:          0
cpu0_L1I WRITEBACK ACCESS:          0  HIT:          0  MISS:          0
cpu0_STLB TOTAL     ACCESS:      13288  HIT:       7970  MISS:       5318
cpu0_STLB LOAD      ACCESS:       7284  HIT:       4012  MISS:       3272
cpu0_STLB RFO       ACCESS:       6004  HIT:       3958  MISS:       2046
cpu0_STLB PREFETCH  ACCESS:          0  HIT:          0  MISS:          0
cpu0_STLB WRITEBACK ACCESS:          0  HIT:          0  MISS:          0
cpu0_L1D TOTAL     ACCESS:   14324674  HIT:   13667950  MISS:     656724
cpu0_L1D LOAD      ACCESS:    9561300  HIT:    9186124  MISS:     375176
cpu0_L1D RFO       ACCESS:    4758131  HIT:    4478413  MISS:     279718
cpu0_L1D PREFETCH  ACCESS:          0  HIT:          0  MISS:          0
cpu0_L1D WRITEBACK ACCESS:          0  HIT:          0  MISS:          0
cpu0_L2C TOTAL     ACCESS:     937460  HIT:     387509  MISS:     549951
cpu0_L2C LOAD      ACCESS:     375176  HIT:     105338  MISS:     269838
cpu0_L2C RFO       ACCESS:     279718  HIT:       1266  MISS:     278452
cpu0_L2C PREFETCH  ACCESS:          0  HIT:          0  MISS:          0
[...]
cpu0_L2C RFO       ACCESS:    5807187  HIT:      12619  MISS:    5794568
cpu0_L2C PREFETCH  ACCESS:          0  HIT:          0  MISS:          0
cpu0_L2C WRITEBACK ACCESS:    5889479  HIT:    5824466  MISS:      65013
LLC TOTAL     ACCESS:   30965599  HIT:    8607504  MISS:   22358095
LLC LOAD      ACCESS:   19261064  HIT:    4171657  MISS:   15089407
LLC RFO       ACCESS:    5794568  HIT:    2114914  MISS:    3679654
LLC PREFETCH  ACCESS:          0  HIT:          0  MISS:          0
LLC WRITEBACK ACCESS:    5840697  HIT:    2265196  MISS:    3575501
Finished CPU 0 instructions: 1500000004 cycles: 1815672777 cumulative IPC: 0.82614 (Simulation time: 23 hr 33 min 13 sec) 

ChampSim completed all CPUs

Region of Interest Statistics

CPU 0 cumulative IPC: 0.82614 instructions: 1500000004 cycles: 1815672777
cpu0_DTLB TOTAL     ACCESS:  367300548  HIT:  366486579  MISS:     813969
cpu0_DTLB LOAD      ACCESS:  305272617  HIT:  304646856  MISS:     625761
cpu0_DTLB RFO       ACCESS:   62027931  HIT:   61839723  MISS:     188208
cpu0_DTLB PREFETCH  ACCESS:          0  HIT:          0  MISS:          0
cpu0_DTLB WRITEBACK ACCESS:          0  HIT:          0  MISS:          0
cpu0_DTLB TRANSLATION ACCESS:          0  HIT:          0  MISS:          0
cpu0_DTLB PREFETCH  REQUESTED:          0  ISSUED:          0  USEFUL:          0  USELESS:          0
cpu0_DTLB AVERAGE MISS LATENCY: 189.549 cycles
cpu0_ITLB TOTAL     ACCESS:    2235409  HIT:    2235391  MISS:         18
cpu0_ITLB LOAD      ACCESS:    2235409  HIT:    2235391  MISS:         18
cpu0_ITLB RFO       ACCESS:          0  HIT:          0  MISS:          0
cpu0_ITLB PREFETCH  ACCESS:          0  HIT:          0  MISS:          0
cpu0_ITLB WRITEBACK ACCESS:          0  HIT:          0  MISS:          0
cpu0_ITLB TRANSLATION ACCESS:          0  HIT:          0  MISS:          0
cpu0_ITLB PREFETCH  REQUESTED:          0  ISSUED:          0  USEFUL:          0  USELESS:          0
cpu0_ITLB AVERAGE MISS LATENCY: 217.944 cycles
cpu0_L1I TOTAL     ACCESS:     210012  HIT:     209650  MISS:        362
cpu0_L1I LOAD      ACCESS:     210012  HIT:     209650  MISS:        362
cpu0_L1I RFO       ACCESS:          0  HIT:          0  MISS:          0
cpu0_L1I PREFETCH  ACCESS:          0  HIT:          0  MISS:          0
cpu0_L1I WRITEBACK ACCESS:          0  HIT:          0  MISS:          0
cpu0_L1I TRANSLATION ACCESS:          0  HIT:          0  MISS:          0
cpu0_L1I PREFETCH  REQUESTED:          0  ISSUED:          0  USEFUL:          0  USELESS:          0
cpu0_L1I AVERAGE MISS LATENCY: 405.39 cycles
cpu0_STLB TOTAL     ACCESS:     813987  HIT:     172437  MISS:     641550
cpu0_STLB LOAD      ACCESS:     625779  HIT:      91052  MISS:     534727
cpu0_STLB RFO       ACCESS:     188208  HIT:      81385  MISS:     106823
cpu0_STLB PREFETCH  ACCESS:          0  HIT:          0  MISS:          0
cpu0_STLB WRITEBACK ACCESS:          0  HIT:          0  MISS:          0
cpu0_STLB TRANSLATION ACCESS:          0  HIT:          0  MISS:          0
cpu0_STLB PREFETCH  REQUESTED:          0  ISSUED:          0  USEFUL:          0  USELESS:          0
cpu0_STLB AVERAGE MISS LATENCY: 229.041 cycles
cpu0_L1D TOTAL     ACCESS:  334452427  HIT:  308054558  MISS:   26397869
cpu0_L1D LOAD      ACCESS:  255707589  HIT:  235191885  MISS:   20515704
cpu0_L1D RFO       ACCESS:   78137738  HIT:   72330551  MISS:    5807187
cpu0_L1D PREFETCH  ACCESS:          0  HIT:          0  MISS:          0
cpu0_L1D WRITEBACK ACCESS:          0  HIT:          0  MISS:          0
cpu0_L1D TRANSLATION ACCESS:     607100  HIT:     532122  MISS:      74978
cpu0_L1D PREFETCH  REQUESTED:          0  ISSUED:          0  USEFUL:          0  USELESS:          0
cpu0_L1D AVERAGE MISS LATENCY: 273.624 cycles
cpu0_L2C TOTAL     ACCESS:   32287571  HIT:    7097654  MISS:   25189917
cpu0_L2C LOAD      ACCESS:   20515927  HIT:    1254861  MISS:   19261066
cpu0_L2C RFO       ACCESS:    5807187  HIT:      12619  MISS:    5794568
cpu0_L2C PREFETCH  ACCESS:          0  HIT:          0  MISS:          0
cpu0_L2C WRITEBACK ACCESS:    5889479  HIT:    5824466  MISS:      65013
cpu0_L2C TRANSLATION ACCESS:      74978  HIT:       5708  MISS:      69270
cpu0_L2C PREFETCH  REQUESTED:          0  ISSUED:          0  USEFUL:          0  USELESS:          0
cpu0_L2C AVERAGE MISS LATENCY: 275.152 cycles
LLC TOTAL     ACCESS:   30965600  HIT:    8607505  MISS:   22358095
LLC LOAD      ACCESS:   19261064  HIT:    4171657  MISS:   15089407
LLC RFO       ACCESS:    5794568  HIT:    2114914  MISS:    3679654
LLC PREFETCH  ACCESS:          0  HIT:          0  MISS:          0
LLC WRITEBACK ACCESS:    5840698  HIT:    2265197  MISS:    3575501
LLC TRANSLATION ACCESS:      69270  HIT:      55737  MISS:      13533
LLC PREFETCH  REQUESTED:          0  ISSUED:          0  USEFUL:          0  USELESS:          0
LLC AVERAGE MISS LATENCY: 286.402 cycles
~~~~~~~~~~Reuse Distance Profiler output~~~~~~~~~~
0	20889824	7500048
1	21503872	10968096
2	17749712	11298800
3	14064704	10395600
4	14573104	12366016
5	17213328	13919760
6	16723520	13843056
7	17490496	13703408
8	13550960	11177504
9	14287504	12410576
10	9918032	8835072
11	9762816	9483680
12	9962544	9333104
13	8913088	8777360
14	9092080	8787696
15	5275936	4765216
16	6056128	5829184
17	5417456	5004240
18	5243504	4618272
19	5507216	5256432
20	5872512	5552816
21	4931136	4528064
22	4761264	4090640
23	2993744	2331920
24	2999536	2511984
25	2622800	2277648
26	2006672	1757280
27	1170720	1099264
28	1084000	965568
29	942992	857152
30	1361296	1137424
31	1392896	772720
32	1017648	895328
33	818368	623504
34	370848	264480
35	551280	442464
36	563520	514048
37	808336	686688
38	1012208	706560
39	944112	711920
40	893200	652176
41	922656	874064
42	521392	404000
43	758816	582768
44	663280	529280
45	676608	520768
46	710992	524896
47	575456	436128
48	768448	482832
49	733328	546448
50	569968	241424
51	502832	329984
52	467760	270560
53	850768	306096
54	1108976	358096
55	1165808	426592
56	730768	249472
57	1379216	416432
58	1357216	436400
59	1052672	448512
60	1479056	749760
61	1145968	550096
62	627376	404064
63	1013552	561760
64	2389056	1527040
66	1907904	1015072
68	968832	866944
70	1231712	1028336
72	710784	282304
74	1635744	209968
76	1064368	215408
78	1185536	57600
80	550240	67712
82	84176	13696
84	75136	11328
86	71136	6512
88	66416	5760
90	207632	56736
92	151792	99280
94	193776	96976
96	10768	8400
98	46800	46304
100	1296	1296
102	320	320
104	144	144
106	400	400
108	688	672
110	16	16
112	96	96
114	80	80
116	0	0
118	16	16
120	32	32
122	16	16
124	64	64
126	32	32
128	16	16
132	176	176
136	784	784
140	272	240
144	0	0
148	0	0
152	16	0
156	16	0
160	16	16
164	0	0
168	0	0
172	64	64
176	48	48
180	16	16
184	16	16
188	16	16
192	208	208
196	560	560
200	480	480
204	304	304
208	192	192
212	96	96
216	80	80
220	128	128
224	224	224
228	176	176
232	224	144
236	544	400
240	576	352
244	272	160
248	160	144
252	288	256
256	112	112
264	80	80
272	304	304
280	176	176
288	192	192
296	144	144
304	336	336
312	1056	1056
320	1552	1552
328	1712	1712
336	1824	1824
344	1872	1872
352	928	928
360	784	784
368	496	496
376	144	144
384	144	144
392	112	112
400	112	112
408	80	80
416	64	64
424	192	192
432	80	80
440	32	32
448	48	48
456	288	288
464	176	176
472	368	368
480	784	784
488	1376	1376
496	2960	2960
504	4096	4096
512	19392	19392
528	45968	45968
544	73680	73680
560	115360	115360
576	153200	153200
592	132704	132704
608	95376	95376
624	74992	74992
640	69072	69072
656	77104	77104
672	74464	74464
688	62480	62480
704	74896	74896
720	93808	93808
736	65344	65344
752	31008	31008
768	24608	24608
784	25024	25024
800	30624	30624
816	49296	49296
832	61920	61920
848	48688	48688
864	23296	23264
880	7216	7216
896	1408	1408
912	400	400
928	288	288
944	352	352
960	336	336
976	432	432
992	400	400
1008	448	448
1024	1152	1152
1056	864	864
1088	944	896
1120	848	848
1152	896	896
1184	1056	1056
1216	832	816
1248	1136	1136
1280	1040	1040
1312	912	912
1344	1136	1136
1376	944	944
1408	1264	1264
1440	1040	1040
1472	912	912
1504	1088	1088
1536	1040	1040
1568	1056	1056
1600	1312	1312
1632	1136	1136
1664	1200	1200
1696	1760	1760
1728	6928	6928
1760	15632	15632
1792	34160	34160
1824	85584	85584
1856	100672	100672
1888	101968	101968
1920	78848	78848
1952	36896	36896
1984	11824	11824
2016	3072	3072
2048	2176	2176
2112	2352	2352
2176	17024	17024
2240	35824	35824
2304	49296	49296
2368	5904	5904
2432	1152	1152
2496	1040	1040
2560	960	960
2624	864	864
2688	752	736
2752	880	880
2816	992	992
2880	1120	1120
2944	800	800
3008	784	784
3072	832	832
3136	960	960
3200	784	784
3264	960	960
3328	976	976
3392	1040	1040
3456	9696	9696
3520	17280	17280
3584	10704	10704
3648	2128	2128
3712	1248	1248
3776	1248	1248
3840	896	896
3904	928	928
3968	864	864
4032	688	688
4096	1664	1664
4224	1584	1584
4352	1344	1344
4480	1568	1568
4608	1552	1552
4736	1424	1424
4864	1376	1376
4992	1664	1664
5120	1744	1744
5248	1520	1520
5376	1536	1536
5504	1504	1504
5632	1552	1552
5760	1248	1248
5888	1568	1568
6016	1472	1472
6144	1808	1808
6272	1632	1632
6400	1424	1424
6528	1680	1680
6656	3120	3120
6784	3184	3184
6912	46464	46464
7040	377664	377664
7168	3441200	3441200
7296	1193776	1193776
7424	36016	36016
7552	736	736
7680	144	144
7808	32	32
7936	16	16
8064	16	16
8192	32	32
8448	32	32
8704	96	96
8960	16	16
9216	80	80
9472	16	16
9728	112	112
9984	32	32
10240	96	96
10496	32	32
10752	960	960
11008	85072	85072
11264	448	448
11520	64	64
11776	176	176
12032	16	16
12288	112	112
12544	0	0
12800	112	112
13056	0	0
13312	320	320
13568	464	320
13824	240	112
14080	160	16
14336	208	176
14592	1312	1024
14848	1600	1456
15104	1344	1216
15360	1600	1520
15616	1696	1584
15872	1456	1376
16128	1632	1536
16384	2432	2288
16896	1024	848
17408	608	448
17920	736	576
18432	624	560
18944	736	448
19456	496	368
19968	704	512
20480	592	496
20992	736	480
21504	576	384
22016	688	560
22528	576	464
23040	832	656
23552	688	592
24064	704	496
24576	608	464
25088	640	496
25600	736	512
26112	704	608
26624	736	496
27136	608	464
27648	640	496
28160	736	528
28672	736	480
29184	720	592
29696	624	512
30208	832	624
30720	2352	2144
31232	848	688
31744	752	592
32256	848	752
32768	1712	1360
33792	25232	24736
34816	1264	864
35840	1152	656
36864	1472	1136
37888	1136	816
38912	1392	1056
39936	1392	944
40960	1264	880
41984	1488	1088
43008	1296	1072
44032	1408	1024
45056	1376	1072
46080	1296	1104
47104	1648	1120
48128	1584	1216
49152	1424	1056
50176	1264	928
51200	1520	1120
52224	1216	896
53248	1200	880
54272	1344	1072
55296	1200	992
56320	1312	928
57344	1584	1152
58368	1728	1232
59392	1472	1088
60416	1296	944
61440	1312	1120
62464	1312	1008
63488	1312	976
64512	1408	1056
65536	2480	1776
67584	2544	1920
69632	2352	1664
71680	2272	1792
73728	2960	2192
75776	3472	2640
77824	3008	2336
79872	3344	2464
81920	2784	2224
83968	3248	2464
86016	2576	1920
88064	3088	2304
90112	2768	1984
92160	2928	2192
94208	3072	2304
96256	2736	2000
98304	2896	2128
100352	2976	2208
102400	3008	2336
104448	2768	2000
106496	2320	1600
108544	2624	1920
110592	3056	2432
112640	2848	2208
114688	3104	2336
116736	3024	2272
118784	3008	2144
120832	3072	2464
122880	3408	2640
124928	3056	2352
126976	3376	2464
129024	3248	2432
131072	5648	4080
135168	5632	4080
139264	5936	4384
143360	5584	4128
147456	6064	4336
151552	5504	4032
155648	5952	4560
159744	6240	4752
163840	5424	4016
167936	5856	4384
172032	5472	4272
176128	5584	4176
180224	6448	4512
184320	5488	4160
188416	5728	4416
192512	6016	4448
196608	5696	4240
200704	5440	4064
204800	5872	4512
208896	5776	4240
212992	5552	4144
217088	6080	4608
221184	5344	3936
225280	5776	4352
229376	5232	3808
233472	5824	4384
237568	5680	4384
241664	6272	4656
245760	6320	4688
249856	5168	3488
253952	5632	4128
258048	5216	3888
262144	11488	8544
270336	23040	20352
278528	56208	53056
286720	1436416	1433136
294912	230416	226272
303104	134144	125888
311296	98256	89888
319488	118944	110768
327680	155168	146576
335872	151120	143136
344064	150736	143248
352256	151632	144032
360448	100896	92640
368640	71472	63552
376832	62208	53264
385024	50528	42352
393216	58000	50000
401408	53760	45568
409600	41296	33120
417792	37888	30320
425984	18736	10304
434176	17968	10336
442368	18048	10224
450560	20544	12000
458752	19840	11008
466944	18928	10928
475136	19152	10800
483328	19152	10416
491520	19360	10992
499712	18880	10864
507904	19088	10928
516096	20112	11728
524288	38272	21408
540672	39616	22304
557056	71008	54112
573440	97200	79168
589824	220976	204000
606208	231504	214096
622592	264480	246016
638976	492656	475440
655360	580496	563440
671744	296848	279840
688128	255872	238416
704512	238144	219792
720896	205520	187504
737280	90240	73280
753664	72080	55264
770048	56448	39088
786432	39472	22080
802816	39472	22016
819200	39520	21536
835584	41184	23248
851968	37904	21184
868352	39392	22112
884736	38880	21936
901120	39712	21488
917504	38944	22272
933888	38080	21568
950272	39072	22368
966656	39280	22192
983040	41680	22960
999424	40016	22368
1015808	38816	21776
1032192	38704	22256
1048576	81936	45728
1081344	79360	44176
1114112	78640	43104
1146880	79152	43776
1179648	78832	44400
1212416	77760	42832
1245184	76448	43840
1277952	76816	44896
1310720	76112	43200
1343488	89568	43744
1376256	55408	40944
1409024	33536	33536
1441792	7904	7904
1474560	336	336
1507328	0	0
1540096	16	16
1572864	80	80
1605632	80	64
1638400	2160	128
1671168	3376	144
1703936	24176	144
1736704	1096272	528
1769472	448	448
1802240	128	128
1835008	128	128
1867776	128	112
1900544	78176	80
1933312	6640	16
1966080	80	80
1998848	64	64
2031616	32	32
2064384	288	288
2097152	128	80
2162688	32	0
2228224	128	128
2293760	176	176
2359296	432	352
2424832	224	176
2490368	288	288
2555904	64	64
2621440	576	512
2686976	192	176
2752512	0	0
2818048	80	80
2883584	128	96
2949120	400	384
3014656	80	80
3080192	112	112
3145728	192	144
3211264	352	352
3276800	256	256
3342336	80	80
3407872	64	16
3473408	336	336
3538944	208	208
3604480	128	128
3670016	288	208
3735552	112	112
3801088	816	816
3866624	144	144
3932160	240	176
3997696	192	192
4063232	384	384
4128768	32	32
4194304	288	256
4325376	544	544
4456448	432	352
4587520	592	592
4718592	176	112
4849664	320	320
4980736	576	544
5111808	528	528
5242880	544	384
5373952	288	288
5505024	608	528
5636096	304	304
5767168	592	528
5898240	320	320
6029312	240	176
6160384	496	496
6291456	416	320
6422528	880	880
6553600	320	224
6684672	320	320
6815744	624	496
6946816	496	496
7077888	640	544
7208960	672	672
7340032	192	160
7471104	336	336
7602176	672	608
7733248	400	400
7864320	576	560
7995392	128	112
8126464	800	720
8257536	288	272
8388608	1328	1248
8650752	784	736
8912896	896	816
9175040	816	752
9437184	1056	1008
9699328	1376	1296
9961472	640	560
10223616	1120	1024
10485760	976	864
10747904	1216	1200
11010048	784	736
11272192	944	896
11534336	1072	976
11796480	912	880
12058624	832	832
12320768	880	720
12582912	1088	1008
12845056	1248	1248
13107200	1008	944
13369344	928	912
13631488	1408	1360
13893632	992	880
14155776	960	896
14417920	1104	960
14680064	1088	1024
14942208	880	880
15204352	944	848
15466496	1440	1376
15728640	1184	1056
15990784	1296	1216
16252928	1312	1312
16515072	848	784
16777216	2224	2048
17301504	2208	2080
17825792	2400	2400
18350080	2480	2416
18874368	2304	2224
19398656	2128	2080
19922944	2176	1952
20447232	2080	2016
20971520	2144	2096
21495808	2528	2464
22020096	2160	2016
22544384	2048	2000
23068672	2752	2656
23592960	2224	2048
24117248	2480	2432
24641536	2224	2176
25165824	2288	2064
25690112	2672	2576
26214400	2368	2128
26738688	2624	1296
27262976	8480	1360
27787264	11424	1120
28311552	7648	1392
28835840	2240	1536
29360128	1488	1376
29884416	1536	1472
30408704	1232	1104
30932992	1712	1584
31457280	1728	1648
31981568	1616	1552
32505856	1712	1584
33030144	1120	1120
33554432	3248	3104
34603008	3408	3104
35651584	3504	3296
36700160	3520	3280
37748736	3056	2688
38797312	3248	2960
39845888	2976	2736
40894464	3072	2880
41943040	2912	2832
42991616	2992	2688
44040192	3232	3136
45088768	3376	3184
46137344	2944	2944
47185920	3248	3088
48234496	2944	2736
49283072	3504	3136
50331648	2896	2656
51380224	3408	3152
52428800	2816	2512
53477376	3216	2912
54525952	3504	3152
55574528	3264	3024
56623104	3008	2768
57671680	3296	3104
58720256	2768	2736
59768832	3248	3056
60817408	3120	2800
61865984	3136	2928
62914560	3104	2880
63963136	3504	3136
65011712	3248	2864
66060288	3376	3136
67108864	6192	5616
69206016	5904	5680
71303168	6704	6144
73400320	6816	6224
75497472	6608	6160
77594624	6352	5776
79691776	5904	5424
81788928	6192	5936
83886080	6592	6096
85983232	5648	5120
88080384	6704	6256
90177536	6448	5856
92274688	6192	5536
94371840	6976	6480
96468992	6400	6096
98566144	6304	5792
100663296	6000	5424
102760448	5808	5248
104857600	6576	6144
106954752	6608	6032
109051904	6176	5664
111149056	6176	5712
113246208	5840	5328
115343360	6784	6480
117440512	5664	5664
119537664	6208	6208
121634816	5824	5824
123731968	5888	5888
125829120	6464	6464
127926272	5936	5936
130023424	5216	5216
132120576	5408	5408
134217728	10480	10480
138412032	10752	10736
142606336	9296	9296
146800640	8336	8336
150994944	21344	21312
155189248	24640	24640
159383552	24912	24912
163577856	24864	24864
167772160	19360	19360
171966464	20688	20688
176160768	15184	14912
180355072	240	176
184549376	320	192
188743680	224	112
192937984	240	64
197132288	160	96
201326592	208	96
205520896	320	160
209715200	208	112
213909504	256	176
218103808	272	128
222298112	224	80
226492416	352	160
230686720	112	48
234881024	304	160
239075328	304	144
243269632	304	192
247463936	240	112
251658240	144	96
255852544	240	144
260046848	192	112
264241152	288	176
268435456	544	288
276824064	512	256
285212672	400	224
293601280	0	0
301989888	0	0
310378496	0	0
318767104	0	0
327155712	0	0
335544320	0	0
343932928	0	0
352321536	0	0
360710144	0	0
369098752	0	0
377487360	0	0
385875968	0	0
394264576	0	0
402653184	0	0
411041792	0	0
419430400	0	0
427819008	0	0
436207616	0	0
444596224	0	0
452984832	0	0
461373440	0	0
469762048	0	0
478150656	0	0
486539264	0	0
494927872	0	0
503316480	0	0
511705088	0	0
520093696	0	0
528482304	0	0
536870912	0	0
553648128	0	0
570425344	0	0
587202560	0	0
603979776	0	0
620756992	0	0
637534208	0	0
654311424	0	0
671088640	0	0
687865856	0	0
704643072	0	0
721420288	0	0
738197504	0	0
754974720	0	0
771751936	0	0
788529152	0	0
805306368	0	0
822083584	0	0
838860800	0	0
855638016	0	0
872415232	0	0
889192448	0	0
905969664	0	0
922746880	0	0
939524096	0	0
956301312	0	0
973078528	0	0
989855744	0	0
1006632960	0	0
1023410176	0	0
1040187392	0	0
1056964608	0	0
1073741824	0	0
1107296256	0	0
1140850688	0	0
1174405120	0	0
1207959552	0	0
1241513984	0	0
1275068416	0	0
1308622848	0	0
1342177280	0	0
1375731712	0	0
1409286144	0	0
1442840576	0	0
1476395008	0	0
1509949440	0	0
1543503872	0	0
1577058304	0	0
1610612736	0	0
1644167168	0	0
1677721600	0	0
1711276032	0	0
1744830464	0	0
1778384896	0	0
1811939328	0	0
1845493760	0	0
1879048192	0	0
1912602624	0	0
1946157056	0	0
1979711488	0	0
2013265920	0	0
2046820352	0	0
2080374784	0	0
2113929216	0	0
2147483648	0	0
2214592512	0	0
2281701376	0	0
2348810240	0	0
2415919104	0	0
2483027968	0	0
2550136832	0	0
2617245696	0	0
2684354560	0	0
2751463424	0	0
2818572288	0	0
2885681152	0	0
2952790016	0	0
3019898880	0	0
3087007744	0	0
3154116608	0	0
3221225472	0	0
3288334336	0	0
3355443200	0	0
3422552064	0	0
3489660928	0	0
3556769792	0	0
3623878656	0	0
3690987520	0	0
3758096384	0	0
3825205248	0	0
3892314112	0	0
3959422976	0	0
4026531840	0	0
4093640704	0	0
4160749568	0	0
4227858432	0	0
~~~~~~~~~~Reuse Distance Profiler output end~~~~~~~~~~

Sampler size:951224

DRAM Statistics
 CHANNEL 0
 RQ ROW_BUFFER_HIT:     121752  ROW_BUFFER_MISS:   18660633
 DBUS AVG_CONGESTED_CYCLE:    3.92731
 WQ ROW_BUFFER_HIT:     230635  ROW_BUFFER_MISS:    3509648  FULL:       7410


CPU 0 Branch Prediction Accuracy: 99.7396% MPKI: 0.105147 Average ROB Occupancy at Mispredict: 297.197
Branch type MPKI
BRANCH_DIRECT_JUMP: 1.2e-05
BRANCH_INDIRECT: 0
BRANCH_CONDITIONAL: 0.105061
BRANCH_DIRECT_CALL: 3.73333e-05
BRANCH_INDIRECT_CALL: 0
BRANCH_RETURN: 3.73333e-05

