
*** ChampSim Multicore Out-of-Order Simulator ***

Warmup Instructions: 50000000
Simulation Instructions: 1500000000
Number of CPUs: 1
Off-chip DRAM Size: 4 GiB Channels: 1 Width: 64-bit Data Rate: 3200 MT/s

VirtualMemory physical capacity: 8588881920 num_ppages: 2096895
VirtualMemory page size: 4096 log2_page_size: 12

CPU 0 runs /s/traces/champsim_traces/436.cactusADM-1804B.champsimtrace.xz
CPU 0 Bimodal branch predictor
Basic BTB sets: 1024 ways: 8 indirect buffer size: 4096 RAS size: 64
Initializing LRU.
Initializing LRU.
Initializing LRU.
Initializing LRU.
Initializing rdLRU.
Initializing LRU.
Initializing LRU.
Heartbeat CPU 0 instructions: 2000003 cycles: 822253 heartbeat IPC: 2.43234 cumulative IPC: 2.43234 (Simulation time: 0 hr 2 min 12 sec) 
Heartbeat CPU 0 instructions: 4000000 cycles: 1644370 heartbeat IPC: 2.43274 cumulative IPC: 2.43254 (Simulation time: 0 hr 4 min 25 sec) 
Heartbeat CPU 0 instructions: 6000001 cycles: 2466425 heartbeat IPC: 2.43293 cumulative IPC: 2.43267 (Simulation time: 0 hr 6 min 32 sec) 
Heartbeat CPU 0 instructions: 8000004 cycles: 3288673 heartbeat IPC: 2.43236 cumulative IPC: 2.43259 (Simulation time: 0 hr 8 min 36 sec) 
Heartbeat CPU 0 instructions: 10000001 cycles: 4110848 heartbeat IPC: 2.43257 cumulative IPC: 2.43259 (Simulation time: 0 hr 10 min 38 sec) 
Heartbeat CPU 0 instructions: 12000003 cycles: 4932901 heartbeat IPC: 2.43294 cumulative IPC: 2.43265 (Simulation time: 0 hr 12 min 39 sec) 
Heartbeat CPU 0 instructions: 14000001 cycles: 5755077 heartbeat IPC: 2.43257 cumulative IPC: 2.43263 (Simulation time: 0 hr 14 min 40 sec) 
Heartbeat CPU 0 instructions: 16000003 cycles: 6577137 heartbeat IPC: 2.43291 cumulative IPC: 2.43267 (Simulation time: 0 hr 16 min 42 sec) 
Heartbeat CPU 0 instructions: 18000001 cycles: 7369152 heartbeat IPC: 2.5252 cumulative IPC: 2.44262 (Simulation time: 0 hr 18 min 41 sec) 
Heartbeat CPU 0 instructions: 20000001 cycles: 8143413 heartbeat IPC: 2.58311 cumulative IPC: 2.45597 (Simulation time: 0 hr 20 min 38 sec) 
Heartbeat CPU 0 instructions: 22000003 cycles: 8966006 heartbeat IPC: 2.43134 cumulative IPC: 2.45371 (Simulation time: 0 hr 22 min 36 sec) 
Heartbeat CPU 0 instructions: 24000000 cycles: 9788378 heartbeat IPC: 2.43199 cumulative IPC: 2.45189 (Simulation time: 0 hr 24 min 36 sec) 
Heartbeat CPU 0 instructions: 26000004 cycles: 10610871 heartbeat IPC: 2.43164 cumulative IPC: 2.45032 (Simulation time: 0 hr 26 min 34 sec) 
Heartbeat CPU 0 instructions: 28000002 cycles: 11433319 heartbeat IPC: 2.43176 cumulative IPC: 2.44898 (Simulation time: 0 hr 28 min 32 sec) 
Heartbeat CPU 0 instructions: 30000002 cycles: 12255701 heartbeat IPC: 2.43196 cumulative IPC: 2.44784 (Simulation time: 0 hr 30 min 27 sec) 
Heartbeat CPU 0 instructions: 32000004 cycles: 13078108 heartbeat IPC: 2.43189 cumulative IPC: 2.44684 (Simulation time: 0 hr 32 min 23 sec) 
Heartbeat CPU 0 instructions: 34000000 cycles: 13900519 heartbeat IPC: 2.43187 cumulative IPC: 2.44595 (Simulation time: 0 hr 34 min 20 sec) 
Heartbeat CPU 0 instructions: 36000001 cycles: 14722865 heartbeat IPC: 2.43207 cumulative IPC: 2.44518 (Simulation time: 0 hr 36 min 14 sec) 
Heartbeat CPU 0 instructions: 38000000 cycles: 15545303 heartbeat IPC: 2.43179 cumulative IPC: 2.44447 (Simulation time: 0 hr 38 min 6 sec) 
Heartbeat CPU 0 instructions: 40000003 cycles: 16367786 heartbeat IPC: 2.43166 cumulative IPC: 2.44383 (Simulation time: 0 hr 40 min 2 sec) 
Heartbeat CPU 0 instructions: 42000001 cycles: 17111703 heartbeat IPC: 2.68847 cumulative IPC: 2.45446 (Simulation time: 0 hr 41 min 46 sec) 
Heartbeat CPU 0 instructions: 44000003 cycles: 17933848 heartbeat IPC: 2.43266 cumulative IPC: 2.45346 (Simulation time: 0 hr 43 min 37 sec) 
Heartbeat CPU 0 instructions: 46000003 cycles: 18755998 heartbeat IPC: 2.43265 cumulative IPC: 2.45255 (Simulation time: 0 hr 45 min 28 sec) 
Heartbeat CPU 0 instructions: 48000001 cycles: 19578075 heartbeat IPC: 2.43286 cumulative IPC: 2.45172 (Simulation time: 0 hr 47 min 19 sec) 
Heartbeat CPU 0 instructions: 50000002 cycles: 20400260 heartbeat IPC: 2.43254 cumulative IPC: 2.45095 (Simulation time: 0 hr 49 min 11 sec) 

Warmup complete CPU 0 instructions: 50000002 cycles: 20400260 (Simulation time: 0 hr 49 min 11 sec) 

Heartbeat CPU 0 instructions: 52000001 cycles: 22128775 heartbeat IPC: 1.15706 cumulative IPC: 1.15706 (Simulation time: 0 hr 51 min 59 sec) 

Region of Interest Statistics
cpu0_DTLB TOTAL     ACCESS:     564753  HIT:     528823  MISS:      35930
cpu0_DTLB LOAD      ACCESS:     446527  HIT:     418946  MISS:      27581
cpu0_DTLB RFO       ACCESS:     118226  HIT:     109877  MISS:       8349
cpu0_DTLB PREFETCH  ACCESS:          0  HIT:          0  MISS:          0
cpu0_DTLB WRITEBACK ACCESS:          0  HIT:          0  MISS:          0
cpu0_ITLB TOTAL     ACCESS:      28813  HIT:      28813  MISS:          0
cpu0_ITLB LOAD      ACCESS:      28813  HIT:      28813  MISS:          0
cpu0_ITLB RFO       ACCESS:          0  HIT:          0  MISS:          0
cpu0_ITLB PREFETCH  ACCESS:          0  HIT:          0  MISS:          0
cpu0_ITLB WRITEBACK ACCESS:          0  HIT:          0  MISS:          0
cpu0_L1I TOTAL     ACCESS:     193616  HIT:     193616  MISS:          0
cpu0_L1I LOAD      ACCESS:     193616  HIT:     193616  MISS:          0
cpu0_L1I RFO       ACCESS:          0  HIT:          0  MISS:          0
cpu0_L1I PREFETCH  ACCESS:          0  HIT:          0  MISS:          0
cpu0_L1I WRITEBACK ACCESS:          0  HIT:          0  MISS:          0
cpu0_STLB TOTAL     ACCESS:      35930  HIT:      22715  MISS:      13215
cpu0_STLB LOAD      ACCESS:      27581  HIT:      19792  MISS:       7789
cpu0_STLB RFO       ACCESS:       8349  HIT:       2923  MISS:       5426
cpu0_STLB PREFETCH  ACCESS:          0  HIT:          0  MISS:          0
cpu0_STLB WRITEBACK ACCESS:          0  HIT:          0  MISS:          0
cpu0_L1D TOTAL     ACCESS:     883437  HIT:     871817  MISS:      11620
cpu0_L1D LOAD      ACCESS:     583975  HIT:     573422  MISS:      10553
cpu0_L1D RFO       ACCESS:     286247  HIT:     285251  MISS:        996
cpu0_L1D PREFETCH  ACCESS:          0  HIT:          0  MISS:          0
cpu0_L1D WRITEBACK ACCESS:          0  HIT:          0  MISS:          0
cpu0_L2C TOTAL     ACCESS:      12735  HIT:       6065  MISS:       6670
cpu0_L2C LOAD      ACCESS:      10553  HIT:       4929  MISS:       5624
cpu0_L2C RFO       ACCESS:        996  HIT:          0  MISS:        996
cpu0_L2C PREFETCH  ACCESS:          0  HIT:          0  MISS:          0
cpu0_L2C WRITEBACK ACCESS:       1115  HIT:       1115  MISS:          0
LLC TOTAL     ACCESS:       7749  HIT:       1271  MISS:       6478
LLC LOAD      ACCESS:       5624  HIT:        143  MISS:       5481
LLC RFO       ACCESS:        996  HIT:          0  MISS:        996
LLC PREFETCH  ACCESS:          0  HIT:          0  MISS:          0
LLC WRITEBACK ACCESS:       1079  HIT:       1078  MISS:          1
Heartbeat CPU 0 instructions: 54000001 cycles: 23860039 heartbeat IPC: 1.15523 cumulative IPC: 1.15614 (Simulation time: 0 hr 54 min 51 sec) 

Region of Interest Statistics
cpu0_DTLB TOTAL     ACCESS:    1128145  HIT:    1058656  MISS:      69489
cpu0_DTLB LOAD      ACCESS:     891714  HIT:     838350  MISS:      53364
cpu0_DTLB RFO       ACCESS:     236431  HIT:     220306  MISS:      16125
cpu0_DTLB PREFETCH  ACCESS:          0  HIT:          0  MISS:          0
cpu0_DTLB WRITEBACK ACCESS:          0  HIT:          0  MISS:          0
cpu0_ITLB TOTAL     ACCESS:      57618  HIT:      57618  MISS:          0
cpu0_ITLB LOAD      ACCESS:      57618  HIT:      57618  MISS:          0
cpu0_ITLB RFO       ACCESS:          0  HIT:          0  MISS:          0
cpu0_ITLB PREFETCH  ACCESS:          0  HIT:          0  MISS:          0
cpu0_ITLB WRITEBACK ACCESS:          0  HIT:          0  MISS:          0
cpu0_L1I TOTAL     ACCESS:     386979  HIT:     386979  MISS:          0
cpu0_L1I LOAD      ACCESS:     386979  HIT:     386979  MISS:          0
cpu0_L1I RFO       ACCESS:          0  HIT:          0  MISS:          0
cpu0_L1I PREFETCH  ACCESS:          0  HIT:          0  MISS:          0
cpu0_L1I WRITEBACK ACCESS:          0  HIT:          0  MISS:          0
cpu0_STLB TOTAL     ACCESS:      69489  HIT:      40928  MISS:      28561
cpu0_STLB LOAD      ACCESS:      53364  HIT:      36397  MISS:      16967
cpu0_STLB RFO       ACCESS:      16125  HIT:       4531  MISS:      11594
cpu0_STLB PREFETCH  ACCESS:          0  HIT:          0  MISS:          0
cpu0_STLB WRITEBACK ACCESS:          0  HIT:          0  MISS:          0
cpu0_L1D TOTAL     ACCESS:    1767992  HIT:    1744759  MISS:      23233
cpu0_L1D LOAD      ACCESS:    1166881  HIT:    1145779  MISS:      21102
cpu0_L1D RFO       ACCESS:     572550  HIT:     570558  MISS:       1992
cpu0_L1D PREFETCH  ACCESS:          0  HIT:          0  MISS:          0
cpu0_L1D WRITEBACK ACCESS:          0  HIT:          0  MISS:          0
cpu0_L2C TOTAL     ACCESS:      25459  HIT:      12021  MISS:      13438
cpu0_L2C LOAD      ACCESS:      21102  HIT:       9747  MISS:      11355
cpu0_L2C RFO       ACCESS:       1992  HIT:          0  MISS:       1992
cpu0_L2C PREFETCH  ACCESS:          0  HIT:          0  MISS:          0
cpu0_L2C WRITEBACK ACCESS:       2226  HIT:       2226  MISS:          0
LLC TOTAL     ACCESS:      15458  HIT:       2502  MISS:      12956
LLC LOAD      ACCESS:      11355  HIT:        393  MISS:      10962
LLC RFO       ACCESS:       1992  HIT:          0  MISS:       1992
LLC PREFETCH  ACCESS:          0  HIT:          0  MISS:          0
LLC WRITEBACK ACCESS:       2020  HIT:       2019  MISS:          1
Heartbeat CPU 0 instructions: 56000004 cycles: 25592975 heartbeat IPC: 1.15411 cumulative IPC: 1.15547 (Simulation time: 0 hr 57 min 44 sec) 

Region of Interest Statistics
cpu0_DTLB TOTAL     ACCESS:    1692722  HIT:    1590477  MISS:     102245
cpu0_DTLB LOAD      ACCESS:    1337966  HIT:    1259587  MISS:      78379
cpu0_DTLB RFO       ACCESS:     354756  HIT:     330890  MISS:      23866
cpu0_DTLB PREFETCH  ACCESS:          0  HIT:          0  MISS:          0
cpu0_DTLB WRITEBACK ACCESS:          0  HIT:          0  MISS:          0
cpu0_ITLB TOTAL     ACCESS:      86472  HIT:      86472  MISS:          0
cpu0_ITLB LOAD      ACCESS:      86472  HIT:      86472  MISS:          0
cpu0_ITLB RFO       ACCESS:          0  HIT:          0  MISS:          0
cpu0_ITLB PREFETCH  ACCESS:          0  HIT:          0  MISS:          0
cpu0_ITLB WRITEBACK ACCESS:          0  HIT:          0  MISS:          0
cpu0_L1I TOTAL     ACCESS:     580809  HIT:     580809  MISS:          0
cpu0_L1I LOAD      ACCESS:     580809  HIT:     580809  MISS:          0
cpu0_L1I RFO       ACCESS:          0  HIT:          0  MISS:          0
cpu0_L1I PREFETCH  ACCESS:          0  HIT:          0  MISS:          0
cpu0_L1I WRITEBACK ACCESS:          0  HIT:          0  MISS:          0
cpu0_STLB TOTAL     ACCESS:     102245  HIT:      60735  MISS:      41510
cpu0_STLB LOAD      ACCESS:      78379  HIT:      53851  MISS:      24528
cpu0_STLB RFO       ACCESS:      23866  HIT:       6884  MISS:      16982
cpu0_STLB PREFETCH  ACCESS:          0  HIT:          0  MISS:          0
cpu0_STLB WRITEBACK ACCESS:          0  HIT:          0  MISS:          0
cpu0_L1D TOTAL     ACCESS:    2651462  HIT:    2616641  MISS:      34821
cpu0_L1D LOAD      ACCESS:    1751166  HIT:    1719548  MISS:      31618
cpu0_L1D RFO       ACCESS:     858786  HIT:     855798  MISS:       2988
cpu0_L1D PREFETCH  ACCESS:          0  HIT:          0  MISS:          0
cpu0_L1D WRITEBACK ACCESS:          0  HIT:          0  MISS:          0
cpu0_L2C TOTAL     ACCESS:      38162  HIT:      17935  MISS:      20227
cpu0_L2C LOAD      ACCESS:      31618  HIT:      14520  MISS:      17098
cpu0_L2C RFO       ACCESS:       2988  HIT:          0  MISS:       2988
cpu0_L2C PREFETCH  ACCESS:          0  HIT:          0  MISS:          0
cpu0_L2C WRITEBACK ACCESS:       3341  HIT:       3341  MISS:          0
LLC TOTAL     ACCESS:      23207  HIT:       3775  MISS:      19432
LLC LOAD      ACCESS:      17098  HIT:        657  MISS:      16441
LLC RFO       ACCESS:       2988  HIT:          0  MISS:       2988
LLC PREFETCH  ACCESS:          0  HIT:          0  MISS:          0
LLC WRITEBACK ACCESS:       2980  HIT:       2978  MISS:          2
Heartbeat CPU 0 instructions: 58000000 cycles: 27322983 heartbeat IPC: 1.15606 cumulative IPC: 1.15561 (Simulation time: 1 hr 0 min 27 sec) 

Region of Interest Statistics
cpu0_DTLB TOTAL     ACCESS:    2257514  HIT:    2121145  MISS:     136369
cpu0_DTLB LOAD      ACCESS:    1784771  HIT:    1680011  MISS:     104760
cpu0_DTLB RFO       ACCESS:     472743  HIT:     441134  MISS:      31609
cpu0_DTLB PREFETCH  ACCESS:          0  HIT:          0  MISS:          0
cpu0_DTLB WRITEBACK ACCESS:          0  HIT:          0  MISS:          0
cpu0_ITLB TOTAL     ACCESS:     115284  HIT:     115284  MISS:          0
cpu0_ITLB LOAD      ACCESS:     115284  HIT:     115284  MISS:          0
cpu0_ITLB RFO       ACCESS:          0  HIT:          0  MISS:          0
cpu0_ITLB PREFETCH  ACCESS:          0  HIT:          0  MISS:          0
cpu0_ITLB WRITEBACK ACCESS:          0  HIT:          0  MISS:          0
cpu0_L1I TOTAL     ACCESS:     774435  HIT:     774435  MISS:          0
cpu0_L1I LOAD      ACCESS:     774435  HIT:     774435  MISS:          0
cpu0_L1I RFO       ACCESS:          0  HIT:          0  MISS:          0
cpu0_L1I PREFETCH  ACCESS:          0  HIT:          0  MISS:          0
cpu0_L1I WRITEBACK ACCESS:          0  HIT:          0  MISS:          0
cpu0_STLB TOTAL     ACCESS:     136369  HIT:      80112  MISS:      56257
cpu0_STLB LOAD      ACCESS:     104760  HIT:      71451  MISS:      33309
cpu0_STLB RFO       ACCESS:      31609  HIT:       8661  MISS:      22948
cpu0_STLB PREFETCH  ACCESS:          0  HIT:          0  MISS:          0
cpu0_STLB WRITEBACK ACCESS:          0  HIT:          0  MISS:          0
cpu0_L1D TOTAL     ACCESS:    3536790  HIT:    3490340  MISS:      46450
cpu0_L1D LOAD      ACCESS:    2335486  HIT:    2293292  MISS:      42194
cpu0_L1D RFO       ACCESS:    1145047  HIT:    1141063  MISS:       3984
cpu0_L1D PREFETCH  ACCESS:          0  HIT:          0  MISS:          0
cpu0_L1D WRITEBACK ACCESS:          0  HIT:          0  MISS:          0
cpu0_L2C TOTAL     ACCESS:      50900  HIT:      23519  MISS:      27381
cpu0_L2C LOAD      ACCESS:      42194  HIT:      18972  MISS:      23222
cpu0_L2C RFO       ACCESS:       3984  HIT:          0  MISS:       3984
cpu0_L2C PREFETCH  ACCESS:          0  HIT:          0  MISS:          0
cpu0_L2C WRITEBACK ACCESS:       4450  HIT:       4450  MISS:          0
LLC TOTAL     ACCESS:      31406  HIT:       5494  MISS:      25912
LLC LOAD      ACCESS:      23222  HIT:       1297  MISS:      21925
LLC RFO       ACCESS:       3984  HIT:          0  MISS:       3984
LLC PREFETCH  ACCESS:          0  HIT:          0  MISS:          0
LLC WRITEBACK ACCESS:       4025  HIT:       4023  MISS:          2
Heartbeat CPU 0 instructions: 60000002 cycles: 29057158 heartbeat IPC: 1.15329 cumulative IPC: 1.15515 (Simulation time: 1 hr 3 min 16 sec) 

Region of Interest Statistics
cpu0_DTLB TOTAL     ACCESS:    2821127  HIT:    2651727  MISS:     169400
cpu0_DTLB LOAD      ACCESS:    2230055  HIT:    2100036  MISS:     130019
cpu0_DTLB RFO       ACCESS:     591072  HIT:     551691  MISS:      39381
cpu0_DTLB PREFETCH  ACCESS:          0  HIT:          0  MISS:          0
cpu0_DTLB WRITEBACK ACCESS:          0  HIT:          0  MISS:          0
cpu0_ITLB TOTAL     ACCESS:     144118  HIT:     144118  MISS:          0
cpu0_ITLB LOAD      ACCESS:     144118  HIT:     144118  MISS:          0
cpu0_ITLB RFO       ACCESS:          0  HIT:          0  MISS:          0
cpu0_ITLB PREFETCH  ACCESS:          0  HIT:          0  MISS:          0
cpu0_ITLB WRITEBACK ACCESS:          0  HIT:          0  MISS:          0
cpu0_L1I TOTAL     ACCESS:     968013  HIT:     968013  MISS:          0
cpu0_L1I LOAD      ACCESS:     968013  HIT:     968013  MISS:          0
cpu0_L1I RFO       ACCESS:          0  HIT:          0  MISS:          0
cpu0_L1I PREFETCH  ACCESS:          0  HIT:          0  MISS:          0
cpu0_L1I WRITEBACK ACCESS:          0  HIT:          0  MISS:          0
cpu0_STLB TOTAL     ACCESS:     169400  HIT:      99363  MISS:      70037
cpu0_STLB LOAD      ACCESS:     130019  HIT:      88555  MISS:      41464
cpu0_STLB RFO       ACCESS:      39381  HIT:      10808  MISS:      28573
cpu0_STLB PREFETCH  ACCESS:          0  HIT:          0  MISS:          0
cpu0_STLB WRITEBACK ACCESS:          0  HIT:          0  MISS:          0
cpu0_L1D TOTAL     ACCESS:    4420525  HIT:    4362483  MISS:      58042
cpu0_L1D LOAD      ACCESS:    2919150  HIT:    2866437  MISS:      52713
cpu0_L1D RFO       ACCESS:    1431338  HIT:    1426358  MISS:       4980
cpu0_L1D PREFETCH  ACCESS:          0  HIT:          0  MISS:          0
cpu0_L1D WRITEBACK ACCESS:          0  HIT:          0  MISS:          0
cpu0_L2C TOTAL     ACCESS:      63612  HIT:      29461  MISS:      34151
cpu0_L2C LOAD      ACCESS:      52713  HIT:      23767  MISS:      28946
cpu0_L2C RFO       ACCESS:       4980  HIT:          0  MISS:       4980
cpu0_L2C PREFETCH  ACCESS:          0  HIT:          0  MISS:          0
cpu0_L2C WRITEBACK ACCESS:       5570  HIT:       5570  MISS:          0
LLC TOTAL     ACCESS:      39222  HIT:       6836  MISS:      32386
LLC LOAD      ACCESS:      28946  HIT:       1543  MISS:      27403
LLC RFO       ACCESS:       4980  HIT:          0  MISS:       4980
LLC PREFETCH  ACCESS:          0  HIT:          0  MISS:          0
LLC WRITEBACK ACCESS:       5071  HIT:       5069  MISS:          2
Heartbeat CPU 0 instructions: 62000004 cycles: 30787252 heartbeat IPC: 1.15601 cumulative IPC: 1.15529 (Simulation time: 1 hr 6 min 5 sec) 

Region of Interest Statistics
cpu0_DTLB TOTAL     ACCESS:    3384431  HIT:    3180568  MISS:     203863
cpu0_DTLB LOAD      ACCESS:    2675163  HIT:    2519073  MISS:     156090
cpu0_DTLB RFO       ACCESS:     709268  HIT:     661495  MISS:      47773
cpu0_DTLB PREFETCH  ACCESS:          0  HIT:          0  MISS:          0
cpu0_DTLB WRITEBACK ACCESS:          0  HIT:          0  MISS:          0
cpu0_ITLB TOTAL     ACCESS:     172940  HIT:     172940  MISS:          0
cpu0_ITLB LOAD      ACCESS:     172940  HIT:     172940  MISS:          0
cpu0_ITLB RFO       ACCESS:          0  HIT:          0  MISS:          0
cpu0_ITLB PREFETCH  ACCESS:          0  HIT:          0  MISS:          0
cpu0_ITLB WRITEBACK ACCESS:          0  HIT:          0  MISS:          0
cpu0_L1I TOTAL     ACCESS:    1161724  HIT:    1161724  MISS:          0
cpu0_L1I LOAD      ACCESS:    1161724  HIT:    1161724  MISS:          0
cpu0_L1I RFO       ACCESS:          0  HIT:          0  MISS:          0
cpu0_L1I PREFETCH  ACCESS:          0  HIT:          0  MISS:          0
cpu0_L1I WRITEBACK ACCESS:          0  HIT:          0  MISS:          0
cpu0_STLB TOTAL     ACCESS:     203863  HIT:     120481  MISS:      83382
cpu0_STLB LOAD      ACCESS:     156090  HIT:     106723  MISS:      49367
cpu0_STLB RFO       ACCESS:      47773  HIT:      13758  MISS:      34015
cpu0_STLB PREFETCH  ACCESS:          0  HIT:          0  MISS:          0
cpu0_STLB WRITEBACK ACCESS:          0  HIT:          0  MISS:          0
cpu0_L1D TOTAL     ACCESS:    5303582  HIT:    5233923  MISS:      69659
cpu0_L1D LOAD      ACCESS:    3502550  HIT:    3439284  MISS:      63266
cpu0_L1D RFO       ACCESS:    1717650  HIT:    1711674  MISS:       5976
cpu0_L1D PREFETCH  ACCESS:          0  HIT:          0  MISS:          0
cpu0_L1D WRITEBACK ACCESS:          0  HIT:          0  MISS:          0
cpu0_L2C TOTAL     ACCESS:      76340  HIT:      35558  MISS:      40782
cpu0_L2C LOAD      ACCESS:      63266  HIT:      28729  MISS:      34537
cpu0_L2C RFO       ACCESS:       5976  HIT:          0  MISS:       5976
cpu0_L2C PREFETCH  ACCESS:          0  HIT:          0  MISS:          0
cpu0_L2C WRITEBACK ACCESS:       6681  HIT:       6681  MISS:          0
LLC TOTAL     ACCESS:      46817  HIT:       7955  MISS:      38862
LLC LOAD      ACCESS:      34537  HIT:       1654  MISS:      32883
LLC RFO       ACCESS:       5976  HIT:          0  MISS:       5976
LLC PREFETCH  ACCESS:          0  HIT:          0  MISS:          0
LLC WRITEBACK ACCESS:       6035  HIT:       6033  MISS:          2
Heartbeat CPU 0 instructions: 64000001 cycles: 35629399 heartbeat IPC: 0.413039 cumulative IPC: 0.91929 (Simulation time: 1 hr 11 min 11 sec) 

Region of Interest Statistics
cpu0_DTLB TOTAL     ACCESS:    4094757  HIT:    3639604  MISS:     455153
cpu0_DTLB LOAD      ACCESS:    3076468  HIT:    2761696  MISS:     314772
cpu0_DTLB RFO       ACCESS:    1018289  HIT:     877908  MISS:     140381
cpu0_DTLB PREFETCH  ACCESS:          0  HIT:          0  MISS:          0
cpu0_DTLB WRITEBACK ACCESS:          0  HIT:          0  MISS:          0
cpu0_ITLB TOTAL     ACCESS:     188318  HIT:     188318  MISS:          0
cpu0_ITLB LOAD      ACCESS:     188318  HIT:     188318  MISS:          0
cpu0_ITLB RFO       ACCESS:          0  HIT:          0  MISS:          0
cpu0_ITLB PREFETCH  ACCESS:          0  HIT:          0  MISS:          0
cpu0_ITLB WRITEBACK ACCESS:          0  HIT:          0  MISS:          0
cpu0_L1I TOTAL     ACCESS:    1250458  HIT:    1250458  MISS:          0
cpu0_L1I LOAD      ACCESS:    1250458  HIT:    1250458  MISS:          0
cpu0_L1I RFO       ACCESS:          0  HIT:          0  MISS:          0
cpu0_L1I PREFETCH  ACCESS:          0  HIT:          0  MISS:          0
cpu0_L1I WRITEBACK ACCESS:          0  HIT:          0  MISS:          0
cpu0_STLB TOTAL     ACCESS:     455153  HIT:     245433  MISS:     209720
cpu0_STLB LOAD      ACCESS:     314772  HIT:     178625  MISS:     136147
cpu0_STLB RFO       ACCESS:     140381  HIT:      66808  MISS:      73573
cpu0_STLB PREFETCH  ACCESS:          0  HIT:          0  MISS:          0
cpu0_STLB WRITEBACK ACCESS:          0  HIT:          0  MISS:          0
cpu0_L1D TOTAL     ACCESS:    6325165  HIT:    6203259  MISS:     121906
cpu0_L1D LOAD      ACCESS:    3968569  HIT:    3877104  MISS:      91465
cpu0_L1D RFO       ACCESS:    2146877  HIT:    2117023  MISS:      29854
cpu0_L1D PREFETCH  ACCESS:          0  HIT:          0  MISS:          0
cpu0_L1D WRITEBACK ACCESS:          0  HIT:          0  MISS:          0
cpu0_L2C TOTAL     ACCESS:     152524  HIT:      61309  MISS:      91215
cpu0_L2C LOAD      ACCESS:      91465  HIT:      30512  MISS:      60953
cpu0_L2C RFO       ACCESS:      29854  HIT:          1  MISS:      29853
cpu0_L2C PREFETCH  ACCESS:          0  HIT:          0  MISS:          0
cpu0_L2C WRITEBACK ACCESS:      30618  HIT:      30554  MISS:         64
LLC TOTAL     ACCESS:     121036  HIT:      32114  MISS:      88922
LLC LOAD      ACCESS:      60953  HIT:       1690  MISS:      59263
LLC RFO       ACCESS:      29853  HIT:        248  MISS:      29605
LLC PREFETCH  ACCESS:          0  HIT:          0  MISS:          0
LLC WRITEBACK ACCESS:      29885  HIT:      29859  MISS:         26
Heartbeat CPU 0 instructions: 66000002 cycles: 37347603 heartbeat IPC: 1.16401 cumulative IPC: 0.944101 (Simulation time: 1 hr 13 min 58 sec) 

Region of Interest Statistics
cpu0_DTLB TOTAL     ACCESS:    4657466  HIT:    4169154  MISS:     488312
cpu0_DTLB LOAD      ACCESS:    3520823  HIT:    3180780  MISS:     340043
cpu0_DTLB RFO       ACCESS:    1136643  HIT:     988374  MISS:     148269
cpu0_DTLB PREFETCH  ACCESS:          0  HIT:          0  MISS:          0
cpu0_DTLB WRITEBACK ACCESS:          0  HIT:          0  MISS:          0
cpu0_ITLB TOTAL     ACCESS:     217139  HIT:     217139  MISS:          0
cpu0_ITLB LOAD      ACCESS:     217139  HIT:     217139  MISS:          0
cpu0_ITLB RFO       ACCESS:          0  HIT:          0  MISS:          0
cpu0_ITLB PREFETCH  ACCESS:          0  HIT:          0  MISS:          0
cpu0_ITLB WRITEBACK ACCESS:          0  HIT:          0  MISS:          0
cpu0_L1I TOTAL     ACCESS:    1444160  HIT:    1444160  MISS:          0
cpu0_L1I LOAD      ACCESS:    1444160  HIT:    1444160  MISS:          0
cpu0_L1I RFO       ACCESS:          0  HIT:          0  MISS:          0
cpu0_L1I PREFETCH  ACCESS:          0  HIT:          0  MISS:          0
cpu0_L1I WRITEBACK ACCESS:          0  HIT:          0  MISS:          0
cpu0_STLB TOTAL     ACCESS:     488312  HIT:     265627  MISS:     222685
cpu0_STLB LOAD      ACCESS:     340043  HIT:     196319  MISS:     143724
cpu0_STLB RFO       ACCESS:     148269  HIT:      69308  MISS:      78961
cpu0_STLB PREFETCH  ACCESS:          0  HIT:          0  MISS:          0
cpu0_STLB WRITEBACK ACCESS:          0  HIT:          0  MISS:          0
cpu0_L1D TOTAL     ACCESS:    7207325  HIT:    7074071  MISS:     133254
cpu0_L1D LOAD      ACCESS:    4551494  HIT:    4449753  MISS:     101741
cpu0_L1D RFO       ACCESS:    2433147  HIT:    2402297  MISS:      30850
cpu0_L1D PREFETCH  ACCESS:          0  HIT:          0  MISS:          0
cpu0_L1D WRITEBACK ACCESS:          0  HIT:          0  MISS:          0
cpu0_L2C TOTAL     ACCESS:     164985  HIT:      67174  MISS:      97811
cpu0_L2C LOAD      ACCESS:     101741  HIT:      35242  MISS:      66499
cpu0_L2C RFO       ACCESS:      30850  HIT:          1  MISS:      30849
cpu0_L2C PREFETCH  ACCESS:          0  HIT:          0  MISS:          0
cpu0_L2C WRITEBACK ACCESS:      31731  HIT:      31667  MISS:         64
LLC TOTAL     ACCESS:     128664  HIT:      33325  MISS:      95339
LLC LOAD      ACCESS:      66499  HIT:       1822  MISS:      64677
LLC RFO       ACCESS:      30849  HIT:        248  MISS:      30601
LLC PREFETCH  ACCESS:          0  HIT:          0  MISS:          0
LLC WRITEBACK ACCESS:      30917  HIT:      30886  MISS:         31
Heartbeat CPU 0 instructions: 68000000 cycles: 39076903 heartbeat IPC: 1.15654 cumulative IPC: 0.963771 (Simulation time: 1 hr 16 min 49 sec) 

Region of Interest Statistics
cpu0_DTLB TOTAL     ACCESS:    5220284  HIT:    4698635  MISS:     521649
cpu0_DTLB LOAD      ACCESS:    3965359  HIT:    3599723  MISS:     365636
cpu0_DTLB RFO       ACCESS:    1254925  HIT:    1098912  MISS:     156013
cpu0_DTLB PREFETCH  ACCESS:          0  HIT:          0  MISS:          0
cpu0_DTLB WRITEBACK ACCESS:          0  HIT:          0  MISS:          0
cpu0_ITLB TOTAL     ACCESS:     245976  HIT:     245976  MISS:          0
cpu0_ITLB LOAD      ACCESS:     245976  HIT:     245976  MISS:          0
cpu0_ITLB RFO       ACCESS:          0  HIT:          0  MISS:          0
cpu0_ITLB PREFETCH  ACCESS:          0  HIT:          0  MISS:          0
cpu0_ITLB WRITEBACK ACCESS:          0  HIT:          0  MISS:          0
cpu0_L1I TOTAL     ACCESS:    1637679  HIT:    1637679  MISS:          0
cpu0_L1I LOAD      ACCESS:    1637679  HIT:    1637679  MISS:          0
cpu0_L1I RFO       ACCESS:          0  HIT:          0  MISS:          0
cpu0_L1I PREFETCH  ACCESS:          0  HIT:          0  MISS:          0
cpu0_L1I WRITEBACK ACCESS:          0  HIT:          0  MISS:          0
cpu0_STLB TOTAL     ACCESS:     521649  HIT:     284203  MISS:     237446
cpu0_STLB LOAD      ACCESS:     365636  HIT:     213122  MISS:     152514
cpu0_STLB RFO       ACCESS:     156013  HIT:      71081  MISS:      84932
cpu0_STLB PREFETCH  ACCESS:          0  HIT:          0  MISS:          0
cpu0_STLB WRITEBACK ACCESS:          0  HIT:          0  MISS:          0
cpu0_L1D TOTAL     ACCESS:    8091004  HIT:    7946350  MISS:     144654
cpu0_L1D LOAD      ACCESS:    5134172  HIT:    5022084  MISS:     112088
cpu0_L1D RFO       ACCESS:    2719387  HIT:    2687541  MISS:      31846
cpu0_L1D PREFETCH  ACCESS:          0  HIT:          0  MISS:          0
cpu0_L1D WRITEBACK ACCESS:          0  HIT:          0  MISS:          0
cpu0_L2C TOTAL     ACCESS:     177499  HIT:      73006  MISS:     104493
cpu0_L2C LOAD      ACCESS:     112088  HIT:      39935  MISS:      72153
cpu0_L2C RFO       ACCESS:      31846  HIT:          1  MISS:      31845
cpu0_L2C PREFETCH  ACCESS:          0  HIT:          0  MISS:          0
cpu0_L2C WRITEBACK ACCESS:      32845  HIT:      32781  MISS:         64
LLC TOTAL     ACCESS:     136295  HIT:      34476  MISS:     101819
LLC LOAD      ACCESS:      72153  HIT:       1996  MISS:      70157
LLC RFO       ACCESS:      31845  HIT:        248  MISS:      31597
LLC PREFETCH  ACCESS:          0  HIT:          0  MISS:          0
LLC WRITEBACK ACCESS:      31866  HIT:      31831  MISS:         35
Heartbeat CPU 0 instructions: 70000000 cycles: 40811168 heartbeat IPC: 1.15323 cumulative IPC: 0.979868 (Simulation time: 1 hr 19 min 40 sec) 

Region of Interest Statistics
cpu0_DTLB TOTAL     ACCESS:    5782515  HIT:    5228080  MISS:     554435
cpu0_DTLB LOAD      ACCESS:    4409501  HIT:    4018850  MISS:     390651
cpu0_DTLB RFO       ACCESS:    1373014  HIT:    1209230  MISS:     163784
cpu0_DTLB PREFETCH  ACCESS:          0  HIT:          0  MISS:          0
cpu0_DTLB WRITEBACK ACCESS:          0  HIT:          0  MISS:          0
cpu0_ITLB TOTAL     ACCESS:     274795  HIT:     274795  MISS:          0
cpu0_ITLB LOAD      ACCESS:     274795  HIT:     274795  MISS:          0
cpu0_ITLB RFO       ACCESS:          0  HIT:          0  MISS:          0
cpu0_ITLB PREFETCH  ACCESS:          0  HIT:          0  MISS:          0
cpu0_ITLB WRITEBACK ACCESS:          0  HIT:          0  MISS:          0
cpu0_L1I TOTAL     ACCESS:    1831161  HIT:    1831161  MISS:          0
cpu0_L1I LOAD      ACCESS:    1831161  HIT:    1831161  MISS:          0
cpu0_L1I RFO       ACCESS:          0  HIT:          0  MISS:          0
cpu0_L1I PREFETCH  ACCESS:          0  HIT:          0  MISS:          0
cpu0_L1I WRITEBACK ACCESS:          0  HIT:          0  MISS:          0
cpu0_STLB TOTAL     ACCESS:     554435  HIT:     303195  MISS:     251240
cpu0_STLB LOAD      ACCESS:     390651  HIT:     229966  MISS:     160685
cpu0_STLB RFO       ACCESS:     163784  HIT:      73229  MISS:      90555
cpu0_STLB PREFETCH  ACCESS:          0  HIT:          0  MISS:          0
cpu0_STLB WRITEBACK ACCESS:          0  HIT:          0  MISS:          0
cpu0_L1D TOTAL     ACCESS:    8973357  HIT:    8817381  MISS:     155976
cpu0_L1D LOAD      ACCESS:    5716447  HIT:    5594108  MISS:     122339
cpu0_L1D RFO       ACCESS:    3005671  HIT:    2972829  MISS:      32842
cpu0_L1D PREFETCH  ACCESS:          0  HIT:          0  MISS:          0
cpu0_L1D WRITEBACK ACCESS:          0  HIT:          0  MISS:          0
cpu0_L2C TOTAL     ACCESS:     189937  HIT:      78480  MISS:     111457
cpu0_L2C LOAD      ACCESS:     122339  HIT:      44277  MISS:      78062
cpu0_L2C RFO       ACCESS:      32842  HIT:          1  MISS:      32841
cpu0_L2C PREFETCH  ACCESS:          0  HIT:          0  MISS:          0
cpu0_L2C WRITEBACK ACCESS:      33961  HIT:      33877  MISS:         84
LLC TOTAL     ACCESS:     144309  HIT:      36012  MISS:     108297
LLC LOAD      ACCESS:      78062  HIT:       2425  MISS:      75637
LLC RFO       ACCESS:      32841  HIT:        248  MISS:      32593
LLC PREFETCH  ACCESS:          0  HIT:          0  MISS:          0
LLC WRITEBACK ACCESS:      32936  HIT:      32899  MISS:         37
Heartbeat CPU 0 instructions: 72000003 cycles: 42541545 heartbeat IPC: 1.15582 cumulative IPC: 0.993619 (Simulation time: 1 hr 22 min 32 sec) 

Region of Interest Statistics
cpu0_DTLB TOTAL     ACCESS:    6345848  HIT:    5758532  MISS:     587316
cpu0_DTLB LOAD      ACCESS:    4854414  HIT:    4438626  MISS:     415788
cpu0_DTLB RFO       ACCESS:    1491434  HIT:    1319906  MISS:     171528
cpu0_DTLB PREFETCH  ACCESS:          0  HIT:          0  MISS:          0
cpu0_DTLB WRITEBACK ACCESS:          0  HIT:          0  MISS:          0
cpu0_ITLB TOTAL     ACCESS:     303628  HIT:     303628  MISS:          0
cpu0_ITLB LOAD      ACCESS:     303628  HIT:     303628  MISS:          0
cpu0_ITLB RFO       ACCESS:          0  HIT:          0  MISS:          0
cpu0_ITLB PREFETCH  ACCESS:          0  HIT:          0  MISS:          0
cpu0_ITLB WRITEBACK ACCESS:          0  HIT:          0  MISS:          0
cpu0_L1I TOTAL     ACCESS:    2024926  HIT:    2024926  MISS:          0
cpu0_L1I LOAD      ACCESS:    2024926  HIT:    2024926  MISS:          0
cpu0_L1I RFO       ACCESS:          0  HIT:          0  MISS:          0
cpu0_L1I PREFETCH  ACCESS:          0  HIT:          0  MISS:          0
cpu0_L1I WRITEBACK ACCESS:          0  HIT:          0  MISS:          0
cpu0_STLB TOTAL     ACCESS:     587316  HIT:     322783  MISS:     264533
cpu0_STLB LOAD      ACCESS:     415788  HIT:     247255  MISS:     168533
cpu0_STLB RFO       ACCESS:     171528  HIT:      75528  MISS:      96000
cpu0_STLB PREFETCH  ACCESS:          0  HIT:          0  MISS:          0
cpu0_STLB WRITEBACK ACCESS:          0  HIT:          0  MISS:          0
cpu0_L1D TOTAL     ACCESS:    9856250  HIT:    9688859  MISS:     167391
cpu0_L1D LOAD      ACCESS:    6299838  HIT:    6167146  MISS:     132692
cpu0_L1D RFO       ACCESS:    3291880  HIT:    3258042  MISS:      33838
cpu0_L1D PREFETCH  ACCESS:          0  HIT:          0  MISS:          0
cpu0_L1D WRITEBACK ACCESS:          0  HIT:          0  MISS:          0
cpu0_L2C TOTAL     ACCESS:     202467  HIT:      84338  MISS:     118129
cpu0_L2C LOAD      ACCESS:     132692  HIT:      49000  MISS:      83692
cpu0_L2C RFO       ACCESS:      33838  HIT:          1  MISS:      33837
cpu0_L2C PREFETCH  ACCESS:          0  HIT:          0  MISS:          0
cpu0_L2C WRITEBACK ACCESS:      35076  HIT:      34992  MISS:         84
LLC TOTAL     ACCESS:     151968  HIT:      37196  MISS:     114772
LLC LOAD      ACCESS:      83692  HIT:       2577  MISS:      81115
LLC RFO       ACCESS:      33837  HIT:        248  MISS:      33589
LLC PREFETCH  ACCESS:          0  HIT:          0  MISS:          0
LLC WRITEBACK ACCESS:      33923  HIT:      33886  MISS:         37
Heartbeat CPU 0 instructions: 74000003 cycles: 44272519 heartbeat IPC: 1.15542 cumulative IPC: 1.00535 (Simulation time: 1 hr 25 min 27 sec) 

Region of Interest Statistics
cpu0_DTLB TOTAL     ACCESS:    6908005  HIT:    6287071  MISS:     620934
cpu0_DTLB LOAD      ACCESS:    5298306  HIT:    4856673  MISS:     441633
cpu0_DTLB RFO       ACCESS:    1609699  HIT:    1430398  MISS:     179301
cpu0_DTLB PREFETCH  ACCESS:          0  HIT:          0  MISS:          0
cpu0_DTLB WRITEBACK ACCESS:          0  HIT:          0  MISS:          0
cpu0_ITLB TOTAL     ACCESS:     332437  HIT:     332437  MISS:          0
cpu0_ITLB LOAD      ACCESS:     332437  HIT:     332437  MISS:          0
cpu0_ITLB RFO       ACCESS:          0  HIT:          0  MISS:          0
cpu0_ITLB PREFETCH  ACCESS:          0  HIT:          0  MISS:          0
cpu0_ITLB WRITEBACK ACCESS:          0  HIT:          0  MISS:          0
cpu0_L1I TOTAL     ACCESS:    2218257  HIT:    2218257  MISS:          0
cpu0_L1I LOAD      ACCESS:    2218257  HIT:    2218257  MISS:          0
cpu0_L1I RFO       ACCESS:          0  HIT:          0  MISS:          0
cpu0_L1I PREFETCH  ACCESS:          0  HIT:          0  MISS:          0
cpu0_L1I WRITEBACK ACCESS:          0  HIT:          0  MISS:          0
cpu0_STLB TOTAL     ACCESS:     620934  HIT:     341151  MISS:     279783
cpu0_STLB LOAD      ACCESS:     441633  HIT:     263996  MISS:     177637
cpu0_STLB RFO       ACCESS:     179301  HIT:      77155  MISS:     102146
cpu0_STLB PREFETCH  ACCESS:          0  HIT:          0  MISS:          0
cpu0_STLB WRITEBACK ACCESS:          0  HIT:          0  MISS:          0
cpu0_L1D TOTAL     ACCESS:   10739923  HIT:   10561170  MISS:     178753
cpu0_L1D LOAD      ACCESS:    6881986  HIT:    6738993  MISS:     142993
cpu0_L1D RFO       ACCESS:    3578155  HIT:    3543321  MISS:      34834
cpu0_L1D PREFETCH  ACCESS:          0  HIT:          0  MISS:          0
cpu0_L1D WRITEBACK ACCESS:          0  HIT:          0  MISS:          0
cpu0_L2C TOTAL     ACCESS:     214942  HIT:      89778  MISS:     125164
cpu0_L2C LOAD      ACCESS:     142993  HIT:      53329  MISS:      89664
cpu0_L2C RFO       ACCESS:      34834  HIT:          1  MISS:      34833
cpu0_L2C PREFETCH  ACCESS:          0  HIT:          0  MISS:          0
cpu0_L2C WRITEBACK ACCESS:      36189  HIT:      36085  MISS:        104
LLC TOTAL     ACCESS:     160054  HIT:      38806  MISS:     121248
LLC LOAD      ACCESS:      89664  HIT:       3069  MISS:      86595
LLC RFO       ACCESS:      34833  HIT:        248  MISS:      34585
LLC PREFETCH  ACCESS:          0  HIT:          0  MISS:          0
LLC WRITEBACK ACCESS:      34994  HIT:      34957  MISS:         37
Heartbeat CPU 0 instructions: 76000001 cycles: 46009952 heartbeat IPC: 1.15112 cumulative IPC: 1.01524 (Simulation time: 1 hr 28 min 18 sec) 

Region of Interest Statistics
cpu0_DTLB TOTAL     ACCESS:    7467946  HIT:    6810800  MISS:     657146
cpu0_DTLB LOAD      ACCESS:    5740565  HIT:    5271428  MISS:     469137
cpu0_DTLB RFO       ACCESS:    1727381  HIT:    1539372  MISS:     188009
cpu0_DTLB PREFETCH  ACCESS:          0  HIT:          0  MISS:          0
cpu0_DTLB WRITEBACK ACCESS:          0  HIT:          0  MISS:          0
cpu0_ITLB TOTAL     ACCESS:     361013  HIT:     361013  MISS:          0
cpu0_ITLB LOAD      ACCESS:     361013  HIT:     361013  MISS:          0
cpu0_ITLB RFO       ACCESS:          0  HIT:          0  MISS:          0
cpu0_ITLB PREFETCH  ACCESS:          0  HIT:          0  MISS:          0
cpu0_ITLB WRITEBACK ACCESS:          0  HIT:          0  MISS:          0
cpu0_L1I TOTAL     ACCESS:    2411645  HIT:    2411645  MISS:          0
cpu0_L1I LOAD      ACCESS:    2411645  HIT:    2411645  MISS:          0
cpu0_L1I RFO       ACCESS:          0  HIT:          0  MISS:          0
cpu0_L1I PREFETCH  ACCESS:          0  HIT:          0  MISS:          0
cpu0_L1I WRITEBACK ACCESS:          0  HIT:          0  MISS:          0
cpu0_STLB TOTAL     ACCESS:     657146  HIT:     361928  MISS:     295218
cpu0_STLB LOAD      ACCESS:     469137  HIT:     282196  MISS:     186941
cpu0_STLB RFO       ACCESS:     188009  HIT:      79732  MISS:     108277
cpu0_STLB PREFETCH  ACCESS:          0  HIT:          0  MISS:          0
cpu0_STLB WRITEBACK ACCESS:          0  HIT:          0  MISS:          0
cpu0_L1D TOTAL     ACCESS:   11623498  HIT:   11433374  MISS:     190124
cpu0_L1D LOAD      ACCESS:    7464261  HIT:    7310965  MISS:     153296
cpu0_L1D RFO       ACCESS:    3864020  HIT:    3828190  MISS:      35830
cpu0_L1D PREFETCH  ACCESS:          0  HIT:          0  MISS:          0
cpu0_L1D WRITEBACK ACCESS:          0  HIT:          0  MISS:          0
cpu0_L2C TOTAL     ACCESS:     227432  HIT:      95555  MISS:     131877
cpu0_L2C LOAD      ACCESS:     153296  HIT:      57951  MISS:      95345
cpu0_L2C RFO       ACCESS:      35830  HIT:          1  MISS:      35829
cpu0_L2C PREFETCH  ACCESS:          0  HIT:          0  MISS:          0
cpu0_L2C WRITEBACK ACCESS:      37308  HIT:      37204  MISS:        104
LLC TOTAL     ACCESS:     167779  HIT:      40056  MISS:     127723
LLC LOAD      ACCESS:      95345  HIT:       3272  MISS:      92073
LLC RFO       ACCESS:      35829  HIT:        248  MISS:      35581
LLC PREFETCH  ACCESS:          0  HIT:          0  MISS:          0
LLC WRITEBACK ACCESS:      36006  HIT:      35969  MISS:         37
Heartbeat CPU 0 instructions: 78000003 cycles: 47744093 heartbeat IPC: 1.15331 cumulative IPC: 1.024 (Simulation time: 1 hr 31 min 15 sec) 

Region of Interest Statistics
cpu0_DTLB TOTAL     ACCESS:    8030912  HIT:    7339767  MISS:     691145
cpu0_DTLB LOAD      ACCESS:    6185017  HIT:    5689982  MISS:     495035
cpu0_DTLB RFO       ACCESS:    1845895  HIT:    1649785  MISS:     196110
cpu0_DTLB PREFETCH  ACCESS:          0  HIT:          0  MISS:          0
cpu0_DTLB WRITEBACK ACCESS:          0  HIT:          0  MISS:          0
cpu0_ITLB TOTAL     ACCESS:     389828  HIT:     389828  MISS:          0
cpu0_ITLB LOAD      ACCESS:     389828  HIT:     389828  MISS:          0
cpu0_ITLB RFO       ACCESS:          0  HIT:          0  MISS:          0
cpu0_ITLB PREFETCH  ACCESS:          0  HIT:          0  MISS:          0
cpu0_ITLB WRITEBACK ACCESS:          0  HIT:          0  MISS:          0
cpu0_L1I TOTAL     ACCESS:    2605086  HIT:    2605086  MISS:          0
cpu0_L1I LOAD      ACCESS:    2605086  HIT:    2605086  MISS:          0
cpu0_L1I RFO       ACCESS:          0  HIT:          0  MISS:          0
cpu0_L1I PREFETCH  ACCESS:          0  HIT:          0  MISS:          0
cpu0_L1I WRITEBACK ACCESS:          0  HIT:          0  MISS:          0
cpu0_STLB TOTAL     ACCESS:     691145  HIT:     380507  MISS:     310638
cpu0_STLB LOAD      ACCESS:     495035  HIT:     298789  MISS:     196246
cpu0_STLB RFO       ACCESS:     196110  HIT:      81718  MISS:     114392
cpu0_STLB PREFETCH  ACCESS:          0  HIT:          0  MISS:          0
cpu0_STLB WRITEBACK ACCESS:          0  HIT:          0  MISS:          0
cpu0_L1D TOTAL     ACCESS:   12508112  HIT:   12306559  MISS:     201553
cpu0_L1D LOAD      ACCESS:    8047078  HIT:    7883407  MISS:     163671
cpu0_L1D RFO       ACCESS:    4150397  HIT:    4113571  MISS:      36826
cpu0_L1D PREFETCH  ACCESS:          0  HIT:          0  MISS:          0
cpu0_L1D WRITEBACK ACCESS:          0  HIT:          0  MISS:          0
cpu0_L2C TOTAL     ACCESS:     239975  HIT:     101377  MISS:     138598
cpu0_L2C LOAD      ACCESS:     163671  HIT:      62637  MISS:     101034
cpu0_L2C RFO       ACCESS:      36826  HIT:          1  MISS:      36825
cpu0_L2C PREFETCH  ACCESS:          0  HIT:          0  MISS:          0
cpu0_L2C WRITEBACK ACCESS:      38422  HIT:      38318  MISS:        104
LLC TOTAL     ACCESS:     175454  HIT:      41251  MISS:     134203
LLC LOAD      ACCESS:     101034  HIT:       3477  MISS:      97557
LLC RFO       ACCESS:      36825  HIT:        248  MISS:      36577
LLC PREFETCH  ACCESS:          0  HIT:          0  MISS:          0
LLC WRITEBACK ACCESS:      36960  HIT:      36923  MISS:         37
Heartbeat CPU 0 instructions: 80000000 cycles: 49474936 heartbeat IPC: 1.1555 cumulative IPC: 1.03183 (Simulation time: 1 hr 34 min 4 sec) 

Region of Interest Statistics
cpu0_DTLB TOTAL     ACCESS:    8593704  HIT:    7868813  MISS:     724891
cpu0_DTLB LOAD      ACCESS:    6629629  HIT:    6108620  MISS:     521009
cpu0_DTLB RFO       ACCESS:    1964075  HIT:    1760193  MISS:     203882
cpu0_DTLB PREFETCH  ACCESS:          0  HIT:          0  MISS:          0
cpu0_DTLB WRITEBACK ACCESS:          0  HIT:          0  MISS:          0
cpu0_ITLB TOTAL     ACCESS:     418675  HIT:     418675  MISS:          0
cpu0_ITLB LOAD      ACCESS:     418675  HIT:     418675  MISS:          0
cpu0_ITLB RFO       ACCESS:          0  HIT:          0  MISS:          0
cpu0_ITLB PREFETCH  ACCESS:          0  HIT:          0  MISS:          0
cpu0_ITLB WRITEBACK ACCESS:          0  HIT:          0  MISS:          0
cpu0_L1I TOTAL     ACCESS:    2798636  HIT:    2798636  MISS:          0
cpu0_L1I LOAD      ACCESS:    2798636  HIT:    2798636  MISS:          0
cpu0_L1I RFO       ACCESS:          0  HIT:          0  MISS:          0
cpu0_L1I PREFETCH  ACCESS:          0  HIT:          0  MISS:          0
cpu0_L1I WRITEBACK ACCESS:          0  HIT:          0  MISS:          0
cpu0_STLB TOTAL     ACCESS:     724891  HIT:     400673  MISS:     324218
cpu0_STLB LOAD      ACCESS:     521009  HIT:     316726  MISS:     204283
cpu0_STLB RFO       ACCESS:     203882  HIT:      83947  MISS:     119935
cpu0_STLB PREFETCH  ACCESS:          0  HIT:          0  MISS:          0
cpu0_STLB WRITEBACK ACCESS:          0  HIT:          0  MISS:          0
cpu0_L1D TOTAL     ACCESS:   13391309  HIT:   13178435  MISS:     212874
cpu0_L1D LOAD      ACCESS:    8630435  HIT:    8456514  MISS:     173921
cpu0_L1D RFO       ACCESS:    4436657  HIT:    4398835  MISS:      37822
cpu0_L1D PREFETCH  ACCESS:          0  HIT:          0  MISS:          0
cpu0_L1D WRITEBACK ACCESS:          0  HIT:          0  MISS:          0
cpu0_L2C TOTAL     ACCESS:     252409  HIT:     106703  MISS:     145706
cpu0_L2C LOAD      ACCESS:     173921  HIT:      66824  MISS:     107097
cpu0_L2C RFO       ACCESS:      37822  HIT:          1  MISS:      37821
cpu0_L2C PREFETCH  ACCESS:          0  HIT:          0  MISS:          0
cpu0_L2C WRITEBACK ACCESS:      39535  HIT:      39431  MISS:        104
LLC TOTAL     ACCESS:     183570  HIT:      42888  MISS:     140682
LLC LOAD      ACCESS:     107097  HIT:       4061  MISS:     103036
LLC RFO       ACCESS:      37821  HIT:        248  MISS:      37573
LLC PREFETCH  ACCESS:          0  HIT:          0  MISS:          0
LLC WRITEBACK ACCESS:      37968  HIT:      37927  MISS:         41
Heartbeat CPU 0 instructions: 82000001 cycles: 51205336 heartbeat IPC: 1.1558 cumulative IPC: 1.03879 (Simulation time: 1 hr 36 min 55 sec) 

Region of Interest Statistics
cpu0_DTLB TOTAL     ACCESS:    9156892  HIT:    8399952  MISS:     756940
cpu0_DTLB LOAD      ACCESS:    7074527  HIT:    6529212  MISS:     545315
cpu0_DTLB RFO       ACCESS:    2082365  HIT:    1870740  MISS:     211625
cpu0_DTLB PREFETCH  ACCESS:          0  HIT:          0  MISS:          0
cpu0_DTLB WRITEBACK ACCESS:          0  HIT:          0  MISS:          0
cpu0_ITLB TOTAL     ACCESS:     447496  HIT:     447496  MISS:          0
cpu0_ITLB LOAD      ACCESS:     447496  HIT:     447496  MISS:          0
cpu0_ITLB RFO       ACCESS:          0  HIT:          0  MISS:          0
cpu0_ITLB PREFETCH  ACCESS:          0  HIT:          0  MISS:          0
cpu0_ITLB WRITEBACK ACCESS:          0  HIT:          0  MISS:          0
cpu0_L1I TOTAL     ACCESS:    2992370  HIT:    2992370  MISS:          0
cpu0_L1I LOAD      ACCESS:    2992370  HIT:    2992370  MISS:          0
cpu0_L1I RFO       ACCESS:          0  HIT:          0  MISS:          0
cpu0_L1I PREFETCH  ACCESS:          0  HIT:          0  MISS:          0
cpu0_L1I WRITEBACK ACCESS:          0  HIT:          0  MISS:          0
cpu0_STLB TOTAL     ACCESS:     756940  HIT:     419293  MISS:     337647
cpu0_STLB LOAD      ACCESS:     545315  HIT:     333076  MISS:     212239
cpu0_STLB RFO       ACCESS:     211625  HIT:      86217  MISS:     125408
cpu0_STLB PREFETCH  ACCESS:          0  HIT:          0  MISS:          0
cpu0_STLB WRITEBACK ACCESS:          0  HIT:          0  MISS:          0
cpu0_L1D TOTAL     ACCESS:   14273637  HIT:   14049330  MISS:     224307
cpu0_L1D LOAD      ACCESS:    9213076  HIT:    9028778  MISS:     184298
cpu0_L1D RFO       ACCESS:    4722915  HIT:    4684097  MISS:      38818
cpu0_L1D PREFETCH  ACCESS:          0  HIT:          0  MISS:          0
cpu0_L1D WRITEBACK ACCESS:          0  HIT:          0  MISS:          0
cpu0_L2C TOTAL     ACCESS:     264955  HIT:     112515  MISS:     152440
cpu0_L2C LOAD      ACCESS:     184298  HIT:      71493  MISS:     112805
cpu0_L2C RFO       ACCESS:      38818  HIT:          1  MISS:      38817
cpu0_L2C PREFETCH  ACCESS:          0  HIT:          0  MISS:          0
cpu0_L2C WRITEBACK ACCESS:      40648  HIT:      40544  MISS:        104
LLC TOTAL     ACCESS:     191302  HIT:      44131  MISS:     147171
LLC LOAD      ACCESS:     112805  HIT:       4276  MISS:     108529
LLC RFO       ACCESS:      38817  HIT:        248  MISS:      38569
LLC PREFETCH  ACCESS:          0  HIT:          0  MISS:          0
LLC WRITEBACK ACCESS:      38966  HIT:      38925  MISS:         41
Heartbeat CPU 0 instructions: 84000003 cycles: 52938803 heartbeat IPC: 1.15376 cumulative IPC: 1.04491 (Simulation time: 1 hr 39 min 48 sec) 

Region of Interest Statistics
cpu0_DTLB TOTAL     ACCESS:    9718766  HIT:    8928197  MISS:     790569
cpu0_DTLB LOAD      ACCESS:    7518484  HIT:    6947312  MISS:     571172
cpu0_DTLB RFO       ACCESS:    2200282  HIT:    1980885  MISS:     219397
cpu0_DTLB PREFETCH  ACCESS:          0  HIT:          0  MISS:          0
cpu0_DTLB WRITEBACK ACCESS:          0  HIT:          0  MISS:          0
cpu0_ITLB TOTAL     ACCESS:     476318  HIT:     476318  MISS:          0
cpu0_ITLB LOAD      ACCESS:     476318  HIT:     476318  MISS:          0
cpu0_ITLB RFO       ACCESS:          0  HIT:          0  MISS:          0
cpu0_ITLB PREFETCH  ACCESS:          0  HIT:          0  MISS:          0
cpu0_ITLB WRITEBACK ACCESS:          0  HIT:          0  MISS:          0
cpu0_L1I TOTAL     ACCESS:    3185757  HIT:    3185757  MISS:          0
cpu0_L1I LOAD      ACCESS:    3185757  HIT:    3185757  MISS:          0
cpu0_L1I RFO       ACCESS:          0  HIT:          0  MISS:          0
cpu0_L1I PREFETCH  ACCESS:          0  HIT:          0  MISS:          0
cpu0_L1I WRITEBACK ACCESS:          0  HIT:          0  MISS:          0
cpu0_STLB TOTAL     ACCESS:     790569  HIT:     437818  MISS:     352751
cpu0_STLB LOAD      ACCESS:     571172  HIT:     349949  MISS:     221223
cpu0_STLB RFO       ACCESS:     219397  HIT:      87869  MISS:     131528
cpu0_STLB PREFETCH  ACCESS:          0  HIT:          0  MISS:          0
cpu0_STLB WRITEBACK ACCESS:          0  HIT:          0  MISS:          0
cpu0_L1D TOTAL     ACCESS:   15157385  HIT:   14921724  MISS:     235661
cpu0_L1D LOAD      ACCESS:    9795464  HIT:    9600880  MISS:     194584
cpu0_L1D RFO       ACCESS:    5009171  HIT:    4969357  MISS:      39814
cpu0_L1D PREFETCH  ACCESS:          0  HIT:          0  MISS:          0
cpu0_L1D WRITEBACK ACCESS:          0  HIT:          0  MISS:          0
cpu0_L2C TOTAL     ACCESS:     277423  HIT:     118006  MISS:     159417
cpu0_L2C LOAD      ACCESS:     194584  HIT:      75849  MISS:     118735
cpu0_L2C RFO       ACCESS:      39814  HIT:          1  MISS:      39813
cpu0_L2C PREFETCH  ACCESS:          0  HIT:          0  MISS:          0
cpu0_L2C WRITEBACK ACCESS:      41762  HIT:      41658  MISS:        104
LLC TOTAL     ACCESS:     199315  HIT:      45668  MISS:     153647
LLC LOAD      ACCESS:     118735  HIT:       4726  MISS:     114009
LLC RFO       ACCESS:      39813  HIT:        248  MISS:      39565
LLC PREFETCH  ACCESS:          0  HIT:          0  MISS:          0
LLC WRITEBACK ACCESS:      40002  HIT:      39961  MISS:         41
Heartbeat CPU 0 instructions: 86000000 cycles: 57717258 heartbeat IPC: 0.418545 cumulative IPC: 0.964708 (Simulation time: 1 hr 44 min 58 sec) 

Region of Interest Statistics
cpu0_DTLB TOTAL     ACCESS:   10430556  HIT:    9391356  MISS:    1039200
cpu0_DTLB LOAD      ACCESS:    7921062  HIT:    7193472  MISS:     727590
cpu0_DTLB RFO       ACCESS:    2509494  HIT:    2197884  MISS:     311610
cpu0_DTLB PREFETCH  ACCESS:          0  HIT:          0  MISS:          0
cpu0_DTLB WRITEBACK ACCESS:          0  HIT:          0  MISS:          0
cpu0_ITLB TOTAL     ACCESS:     491673  HIT:     491673  MISS:          0
cpu0_ITLB LOAD      ACCESS:     491673  HIT:     491673  MISS:          0
cpu0_ITLB RFO       ACCESS:          0  HIT:          0  MISS:          0
cpu0_ITLB PREFETCH  ACCESS:          0  HIT:          0  MISS:          0
cpu0_ITLB WRITEBACK ACCESS:          0  HIT:          0  MISS:          0
cpu0_L1I TOTAL     ACCESS:    3275072  HIT:    3275072  MISS:          0
cpu0_L1I LOAD      ACCESS:    3275072  HIT:    3275072  MISS:          0
cpu0_L1I RFO       ACCESS:          0  HIT:          0  MISS:          0
cpu0_L1I PREFETCH  ACCESS:          0  HIT:          0  MISS:          0
cpu0_L1I WRITEBACK ACCESS:          0  HIT:          0  MISS:          0
cpu0_STLB TOTAL     ACCESS:    1039200  HIT:     562582  MISS:     476618
cpu0_STLB LOAD      ACCESS:     727590  HIT:     421237  MISS:     306353
cpu0_STLB RFO       ACCESS:     311610  HIT:     141345  MISS:     170265
cpu0_STLB PREFETCH  ACCESS:          0  HIT:          0  MISS:          0
cpu0_STLB WRITEBACK ACCESS:          0  HIT:          0  MISS:          0
cpu0_L1D TOTAL     ACCESS:   16175512  HIT:   15887742  MISS:     287770
cpu0_L1D LOAD      ACCESS:   10261474  HIT:   10038837  MISS:     222637
cpu0_L1D RFO       ACCESS:    5437424  HIT:    5373733  MISS:      63691
cpu0_L1D PREFETCH  ACCESS:          0  HIT:          0  MISS:          0
cpu0_L1D WRITEBACK ACCESS:          0  HIT:          0  MISS:          0
cpu0_L2C TOTAL     ACCESS:     353292  HIT:     143796  MISS:     209496
cpu0_L2C LOAD      ACCESS:     222637  HIT:      77826  MISS:     144811
cpu0_L2C RFO       ACCESS:      63691  HIT:          1  MISS:      63690
cpu0_L2C PREFETCH  ACCESS:          0  HIT:          0  MISS:          0
cpu0_L2C WRITEBACK ACCESS:      65522  HIT:      65371  MISS:        151
LLC TOTAL     ACCESS:     272584  HIT:      69194  MISS:     203390
LLC LOAD      ACCESS:     144811  HIT:       4835  MISS:     139976
LLC RFO       ACCESS:      63690  HIT:        400  MISS:      63290
LLC PREFETCH  ACCESS:          0  HIT:          0  MISS:          0
LLC WRITEBACK ACCESS:      63239  HIT:      63174  MISS:         65
Heartbeat CPU 0 instructions: 88000002 cycles: 59474519 heartbeat IPC: 1.13814 cumulative IPC: 0.972507 (Simulation time: 1 hr 47 min 56 sec) 

Region of Interest Statistics
cpu0_DTLB TOTAL     ACCESS:   10994825  HIT:    9924188  MISS:    1070637
cpu0_DTLB LOAD      ACCESS:    8366949  HIT:    7616144  MISS:     750805
cpu0_DTLB RFO       ACCESS:    2627876  HIT:    2308044  MISS:     319832
cpu0_DTLB PREFETCH  ACCESS:          0  HIT:          0  MISS:          0
cpu0_DTLB WRITEBACK ACCESS:          0  HIT:          0  MISS:          0
cpu0_ITLB TOTAL     ACCESS:     520487  HIT:     520487  MISS:          0
cpu0_ITLB LOAD      ACCESS:     520487  HIT:     520487  MISS:          0
cpu0_ITLB RFO       ACCESS:          0  HIT:          0  MISS:          0
cpu0_ITLB PREFETCH  ACCESS:          0  HIT:          0  MISS:          0
cpu0_ITLB WRITEBACK ACCESS:          0  HIT:          0  MISS:          0
cpu0_L1I TOTAL     ACCESS:    3468738  HIT:    3468738  MISS:          0
cpu0_L1I LOAD      ACCESS:    3468738  HIT:    3468738  MISS:          0
cpu0_L1I RFO       ACCESS:          0  HIT:          0  MISS:          0
cpu0_L1I PREFETCH  ACCESS:          0  HIT:          0  MISS:          0
cpu0_L1I WRITEBACK ACCESS:          0  HIT:          0  MISS:          0
cpu0_STLB TOTAL     ACCESS:    1070637  HIT:     579010  MISS:     491627
cpu0_STLB LOAD      ACCESS:     750805  HIT:     435487  MISS:     315318
cpu0_STLB RFO       ACCESS:     319832  HIT:     143523  MISS:     176309
cpu0_STLB PREFETCH  ACCESS:          0  HIT:          0  MISS:          0
cpu0_STLB WRITEBACK ACCESS:          0  HIT:          0  MISS:          0
cpu0_L1D TOTAL     ACCESS:   17060728  HIT:   16761188  MISS:     299540
cpu0_L1D LOAD      ACCESS:   10845412  HIT:   10612050  MISS:     233362
cpu0_L1D RFO       ACCESS:    5723693  HIT:    5659006  MISS:      64687
cpu0_L1D PREFETCH  ACCESS:          0  HIT:          0  MISS:          0
cpu0_L1D WRITEBACK ACCESS:          0  HIT:          0  MISS:          0
cpu0_L2C TOTAL     ACCESS:     366354  HIT:     149843  MISS:     216511
cpu0_L2C LOAD      ACCESS:     233362  HIT:      82571  MISS:     150791
cpu0_L2C RFO       ACCESS:      64687  HIT:          1  MISS:      64686
cpu0_L2C PREFETCH  ACCESS:          0  HIT:          0  MISS:          0
cpu0_L2C WRITEBACK ACCESS:      66814  HIT:      66652  MISS:        162
LLC TOTAL     ACCESS:     281291  HIT:      71080  MISS:     210211
LLC LOAD      ACCESS:     150791  HIT:       4999  MISS:     145792
LLC RFO       ACCESS:      64686  HIT:        400  MISS:      64286
LLC PREFETCH  ACCESS:          0  HIT:          0  MISS:          0
LLC WRITEBACK ACCESS:      64942  HIT:      64871  MISS:         71
Heartbeat CPU 0 instructions: 90000003 cycles: 61167944 heartbeat IPC: 1.18104 cumulative IPC: 0.981169 (Simulation time: 1 hr 50 min 45 sec) 

Region of Interest Statistics
cpu0_DTLB TOTAL     ACCESS:   11557450  HIT:   10452194  MISS:    1105256
cpu0_DTLB LOAD      ACCESS:    8811657  HIT:    8034737  MISS:     776920
cpu0_DTLB RFO       ACCESS:    2745793  HIT:    2417457  MISS:     328336
cpu0_DTLB PREFETCH  ACCESS:          0  HIT:          0  MISS:          0
cpu0_DTLB WRITEBACK ACCESS:          0  HIT:          0  MISS:          0
cpu0_ITLB TOTAL     ACCESS:     549285  HIT:     549285  MISS:          0
cpu0_ITLB LOAD      ACCESS:     549285  HIT:     549285  MISS:          0
cpu0_ITLB RFO       ACCESS:          0  HIT:          0  MISS:          0
cpu0_ITLB PREFETCH  ACCESS:          0  HIT:          0  MISS:          0
cpu0_ITLB WRITEBACK ACCESS:          0  HIT:          0  MISS:          0
cpu0_L1I TOTAL     ACCESS:    3662196  HIT:    3662196  MISS:          0
cpu0_L1I LOAD      ACCESS:    3662196  HIT:    3662196  MISS:          0
cpu0_L1I RFO       ACCESS:          0  HIT:          0  MISS:          0
cpu0_L1I PREFETCH  ACCESS:          0  HIT:          0  MISS:          0
cpu0_L1I WRITEBACK ACCESS:          0  HIT:          0  MISS:          0
cpu0_STLB TOTAL     ACCESS:    1105256  HIT:     599994  MISS:     505262
cpu0_STLB LOAD      ACCESS:     776920  HIT:     453518  MISS:     323402
cpu0_STLB RFO       ACCESS:     328336  HIT:     146476  MISS:     181860
cpu0_STLB PREFETCH  ACCESS:          0  HIT:          0  MISS:          0
cpu0_STLB WRITEBACK ACCESS:          0  HIT:          0  MISS:          0
cpu0_L1D TOTAL     ACCESS:   17943068  HIT:   17631900  MISS:     311168
cpu0_L1D LOAD      ACCESS:   11427828  HIT:   11183909  MISS:     243919
cpu0_L1D RFO       ACCESS:    6009982  HIT:    5944299  MISS:      65683
cpu0_L1D PREFETCH  ACCESS:          0  HIT:          0  MISS:          0
cpu0_L1D WRITEBACK ACCESS:          0  HIT:          0  MISS:          0
cpu0_L2C TOTAL     ACCESS:     379097  HIT:     155962  MISS:     223135
cpu0_L2C LOAD      ACCESS:     243919  HIT:      87551  MISS:     156368
cpu0_L2C RFO       ACCESS:      65683  HIT:          1  MISS:      65682
cpu0_L2C PREFETCH  ACCESS:          0  HIT:          0  MISS:          0
cpu0_L2C WRITEBACK ACCESS:      67929  HIT:      67767  MISS:        162
LLC TOTAL     ACCESS:     288850  HIT:      72402  MISS:     216448
LLC LOAD      ACCESS:     156368  HIT:       5337  MISS:     151031
LLC RFO       ACCESS:      65682  HIT:        400  MISS:      65282
LLC PREFETCH  ACCESS:          0  HIT:          0  MISS:          0
LLC WRITEBACK ACCESS:      65877  HIT:      65804  MISS:         73
Heartbeat CPU 0 instructions: 92000001 cycles: 62894472 heartbeat IPC: 1.15839 cumulative IPC: 0.98837 (Simulation time: 1 hr 53 min 44 sec) 

Region of Interest Statistics
cpu0_DTLB TOTAL     ACCESS:   12121483  HIT:   10987215  MISS:    1134268
cpu0_DTLB LOAD      ACCESS:    9257507  HIT:    8459267  MISS:     798240
cpu0_DTLB RFO       ACCESS:    2863976  HIT:    2527948  MISS:     336028
cpu0_DTLB PREFETCH  ACCESS:          0  HIT:          0  MISS:          0
cpu0_DTLB WRITEBACK ACCESS:          0  HIT:          0  MISS:          0
cpu0_ITLB TOTAL     ACCESS:     578131  HIT:     578131  MISS:          0
cpu0_ITLB LOAD      ACCESS:     578131  HIT:     578131  MISS:          0
cpu0_ITLB RFO       ACCESS:          0  HIT:          0  MISS:          0
cpu0_ITLB PREFETCH  ACCESS:          0  HIT:          0  MISS:          0
cpu0_ITLB WRITEBACK ACCESS:          0  HIT:          0  MISS:          0
cpu0_L1I TOTAL     ACCESS:    3856167  HIT:    3856167  MISS:          0
cpu0_L1I LOAD      ACCESS:    3856167  HIT:    3856167  MISS:          0
cpu0_L1I RFO       ACCESS:          0  HIT:          0  MISS:          0
cpu0_L1I PREFETCH  ACCESS:          0  HIT:          0  MISS:          0
cpu0_L1I WRITEBACK ACCESS:          0  HIT:          0  MISS:          0
cpu0_STLB TOTAL     ACCESS:    1134268  HIT:     615515  MISS:     518753
cpu0_STLB LOAD      ACCESS:     798240  HIT:     466823  MISS:     331417
cpu0_STLB RFO       ACCESS:     336028  HIT:     148692  MISS:     187336
cpu0_STLB PREFETCH  ACCESS:          0  HIT:          0  MISS:          0
cpu0_STLB WRITEBACK ACCESS:          0  HIT:          0  MISS:          0
cpu0_L1D TOTAL     ACCESS:   18825145  HIT:   18502246  MISS:     322899
cpu0_L1D LOAD      ACCESS:   12010180  HIT:   11755579  MISS:     254601
cpu0_L1D RFO       ACCESS:    6296216  HIT:    6229537  MISS:      66679
cpu0_L1D PREFETCH  ACCESS:          0  HIT:          0  MISS:          0
cpu0_L1D WRITEBACK ACCESS:          0  HIT:          0  MISS:          0
cpu0_L2C TOTAL     ACCESS:     391939  HIT:     162094  MISS:     229845
cpu0_L2C LOAD      ACCESS:     254601  HIT:      92544  MISS:     162057
cpu0_L2C RFO       ACCESS:      66679  HIT:          1  MISS:      66678
cpu0_L2C PREFETCH  ACCESS:          0  HIT:          0  MISS:          0
cpu0_L2C WRITEBACK ACCESS:      69040  HIT:      68876  MISS:        164
LLC TOTAL     ACCESS:     296576  HIT:      73688  MISS:     222888
LLC LOAD      ACCESS:     162057  HIT:       5585  MISS:     156472
LLC RFO       ACCESS:      66678  HIT:        400  MISS:      66278
LLC PREFETCH  ACCESS:          0  HIT:          0  MISS:          0
LLC WRITEBACK ACCESS:      66895  HIT:      66820  MISS:         75
Heartbeat CPU 0 instructions: 94000001 cycles: 64624859 heartbeat IPC: 1.15581 cumulative IPC: 0.994921 (Simulation time: 1 hr 56 min 32 sec) 

Region of Interest Statistics
cpu0_DTLB TOTAL     ACCESS:   12685192  HIT:   11520196  MISS:    1164996
cpu0_DTLB LOAD      ACCESS:    9703152  HIT:    8881924  MISS:     821228
cpu0_DTLB RFO       ACCESS:    2982040  HIT:    2638272  MISS:     343768
cpu0_DTLB PREFETCH  ACCESS:          0  HIT:          0  MISS:          0
cpu0_DTLB WRITEBACK ACCESS:          0  HIT:          0  MISS:          0
cpu0_ITLB TOTAL     ACCESS:     606934  HIT:     606934  MISS:          0
cpu0_ITLB LOAD      ACCESS:     606934  HIT:     606934  MISS:          0
cpu0_ITLB RFO       ACCESS:          0  HIT:          0  MISS:          0
cpu0_ITLB PREFETCH  ACCESS:          0  HIT:          0  MISS:          0
cpu0_ITLB WRITEBACK ACCESS:          0  HIT:          0  MISS:          0
cpu0_L1I TOTAL     ACCESS:    4049653  HIT:    4049653  MISS:          0
cpu0_L1I LOAD      ACCESS:    4049653  HIT:    4049653  MISS:          0
cpu0_L1I RFO       ACCESS:          0  HIT:          0  MISS:          0
cpu0_L1I PREFETCH  ACCESS:          0  HIT:          0  MISS:          0
cpu0_L1I WRITEBACK ACCESS:          0  HIT:          0  MISS:          0
cpu0_STLB TOTAL     ACCESS:    1164996  HIT:     631040  MISS:     533956
cpu0_STLB LOAD      ACCESS:     821228  HIT:     480725  MISS:     340503
cpu0_STLB RFO       ACCESS:     343768  HIT:     150315  MISS:     193453
cpu0_STLB PREFETCH  ACCESS:          0  HIT:          0  MISS:          0
cpu0_STLB WRITEBACK ACCESS:          0  HIT:          0  MISS:          0
cpu0_L1D TOTAL     ACCESS:   19708548  HIT:   19373992  MISS:     334556
cpu0_L1D LOAD      ACCESS:   12592117  HIT:   12326923  MISS:     265194
cpu0_L1D RFO       ACCESS:    6582479  HIT:    6514804  MISS:      67675
cpu0_L1D PREFETCH  ACCESS:          0  HIT:          0  MISS:          0
cpu0_L1D WRITEBACK ACCESS:          0  HIT:          0  MISS:          0
cpu0_L2C TOTAL     ACCESS:     404713  HIT:     168174  MISS:     236539
cpu0_L2C LOAD      ACCESS:     265194  HIT:      97491  MISS:     167703
cpu0_L2C RFO       ACCESS:      67675  HIT:          1  MISS:      67674
cpu0_L2C PREFETCH  ACCESS:          0  HIT:          0  MISS:          0
cpu0_L2C WRITEBACK ACCESS:      70157  HIT:      69993  MISS:        164
LLC TOTAL     ACCESS:     304250  HIT:      74915  MISS:     229335
LLC LOAD      ACCESS:     167703  HIT:       5781  MISS:     161922
LLC RFO       ACCESS:      67674  HIT:        400  MISS:      67274
LLC PREFETCH  ACCESS:          0  HIT:          0  MISS:          0
LLC WRITEBACK ACCESS:      67875  HIT:      67799  MISS:         76
Heartbeat CPU 0 instructions: 96000003 cycles: 66358856 heartbeat IPC: 1.15341 cumulative IPC: 1.0009 (Simulation time: 1 hr 59 min 23 sec) 

Region of Interest Statistics
cpu0_DTLB TOTAL     ACCESS:   13249454  HIT:   12054057  MISS:    1195397
cpu0_DTLB LOAD      ACCESS:   10149220  HIT:    9305283  MISS:     843937
cpu0_DTLB RFO       ACCESS:    3100234  HIT:    2748774  MISS:     351460
cpu0_DTLB PREFETCH  ACCESS:          0  HIT:          0  MISS:          0
cpu0_DTLB WRITEBACK ACCESS:          0  HIT:          0  MISS:          0
cpu0_ITLB TOTAL     ACCESS:     635772  HIT:     635772  MISS:          0
cpu0_ITLB LOAD      ACCESS:     635772  HIT:     635772  MISS:          0
cpu0_ITLB RFO       ACCESS:          0  HIT:          0  MISS:          0
cpu0_ITLB PREFETCH  ACCESS:          0  HIT:          0  MISS:          0
cpu0_ITLB WRITEBACK ACCESS:          0  HIT:          0  MISS:          0
cpu0_L1I TOTAL     ACCESS:    4243664  HIT:    4243664  MISS:          0
cpu0_L1I LOAD      ACCESS:    4243664  HIT:    4243664  MISS:          0
cpu0_L1I RFO       ACCESS:          0  HIT:          0  MISS:          0
cpu0_L1I PREFETCH  ACCESS:          0  HIT:          0  MISS:          0
cpu0_L1I WRITEBACK ACCESS:          0  HIT:          0  MISS:          0
cpu0_STLB TOTAL     ACCESS:    1195397  HIT:     648424  MISS:     546973
cpu0_STLB LOAD      ACCESS:     843937  HIT:     495805  MISS:     348132
cpu0_STLB RFO       ACCESS:     351460  HIT:     152619  MISS:     198841
cpu0_STLB PREFETCH  ACCESS:          0  HIT:          0  MISS:          0
cpu0_STLB WRITEBACK ACCESS:          0  HIT:          0  MISS:          0
cpu0_L1D TOTAL     ACCESS:   20590143  HIT:   20243903  MISS:     346240
cpu0_L1D LOAD      ACCESS:   13174471  HIT:   12898660  MISS:     275811
cpu0_L1D RFO       ACCESS:    6868703  HIT:    6800031  MISS:      68672
cpu0_L1D PREFETCH  ACCESS:          0  HIT:          0  MISS:          0
cpu0_L1D WRITEBACK ACCESS:          0  HIT:          0  MISS:          0
cpu0_L2C TOTAL     ACCESS:     417514  HIT:     173863  MISS:     243651
cpu0_L2C LOAD      ACCESS:     275811  HIT:     102096  MISS:     173715
cpu0_L2C RFO       ACCESS:      68672  HIT:          1  MISS:      68671
cpu0_L2C PREFETCH  ACCESS:          0  HIT:          0  MISS:          0
cpu0_L2C WRITEBACK ACCESS:      71274  HIT:      71061  MISS:        213
LLC TOTAL     ACCESS:     312360  HIT:      76548  MISS:     235812
LLC LOAD      ACCESS:     173715  HIT:       6313  MISS:     167402
LLC RFO       ACCESS:      68671  HIT:        400  MISS:      68271
LLC PREFETCH  ACCESS:          0  HIT:          0  MISS:          0
LLC WRITEBACK ACCESS:      68922  HIT:      68846  MISS:         76
Heartbeat CPU 0 instructions: 98000001 cycles: 68091735 heartbeat IPC: 1.15415 cumulative IPC: 1.00647 (Simulation time: 2 hr 2 min 15 sec) 

Region of Interest Statistics
cpu0_DTLB TOTAL     ACCESS:   13812702  HIT:   12588001  MISS:    1224701
cpu0_DTLB LOAD      ACCESS:   10594436  HIT:    9728887  MISS:     865549
cpu0_DTLB RFO       ACCESS:    3218266  HIT:    2859114  MISS:     359152
cpu0_DTLB PREFETCH  ACCESS:          0  HIT:          0  MISS:          0
cpu0_DTLB WRITEBACK ACCESS:          0  HIT:          0  MISS:          0
cpu0_ITLB TOTAL     ACCESS:     664577  HIT:     664577  MISS:          0
cpu0_ITLB LOAD      ACCESS:     664577  HIT:     664577  MISS:          0
cpu0_ITLB RFO       ACCESS:          0  HIT:          0  MISS:          0
cpu0_ITLB PREFETCH  ACCESS:          0  HIT:          0  MISS:          0
cpu0_ITLB WRITEBACK ACCESS:          0  HIT:          0  MISS:          0
cpu0_L1I TOTAL     ACCESS:    4437447  HIT:    4437447  MISS:          0
cpu0_L1I LOAD      ACCESS:    4437447  HIT:    4437447  MISS:          0
cpu0_L1I RFO       ACCESS:          0  HIT:          0  MISS:          0
cpu0_L1I PREFETCH  ACCESS:          0  HIT:          0  MISS:          0
cpu0_L1I WRITEBACK ACCESS:          0  HIT:          0  MISS:          0
cpu0_STLB TOTAL     ACCESS:    1224701  HIT:     662530  MISS:     562171
cpu0_STLB LOAD      ACCESS:     865549  HIT:     508338  MISS:     357211
cpu0_STLB RFO       ACCESS:     359152  HIT:     154192  MISS:     204960
cpu0_STLB PREFETCH  ACCESS:          0  HIT:          0  MISS:          0
cpu0_STLB WRITEBACK ACCESS:          0  HIT:          0  MISS:          0
cpu0_L1D TOTAL     ACCESS:   21473150  HIT:   21115207  MISS:     357943
cpu0_L1D LOAD      ACCESS:   13756052  HIT:   13469590  MISS:     286462
cpu0_L1D RFO       ACCESS:    7154931  HIT:    7085258  MISS:      69673
cpu0_L1D PREFETCH  ACCESS:          0  HIT:          0  MISS:          0
cpu0_L1D WRITEBACK ACCESS:          0  HIT:          0  MISS:          0
cpu0_L2C TOTAL     ACCESS:     430333  HIT:     180018  MISS:     250315
cpu0_L2C LOAD      ACCESS:     286462  HIT:     107116  MISS:     179346
cpu0_L2C RFO       ACCESS:      69673  HIT:          1  MISS:      69672
cpu0_L2C PREFETCH  ACCESS:          0  HIT:          0  MISS:          0
cpu0_L2C WRITEBACK ACCESS:      72390  HIT:      72177  MISS:        213
LLC TOTAL     ACCESS:     319982  HIT:      77687  MISS:     242295
LLC LOAD      ACCESS:     179346  HIT:       6462  MISS:     172884
LLC RFO       ACCESS:      69672  HIT:        400  MISS:      69272
LLC PREFETCH  ACCESS:          0  HIT:          0  MISS:          0
LLC WRITEBACK ACCESS:      69880  HIT:      69804  MISS:         76
Heartbeat CPU 0 instructions: 100000001 cycles: 69821320 heartbeat IPC: 1.15635 cumulative IPC: 1.01171 (Simulation time: 2 hr 5 min 2 sec) 

Region of Interest Statistics
cpu0_DTLB TOTAL     ACCESS:   14377444  HIT:   13121324  MISS:    1256120
cpu0_DTLB LOAD      ACCESS:   11041132  HIT:   10152210  MISS:     888922
cpu0_DTLB RFO       ACCESS:    3336312  HIT:    2969114  MISS:     367198
cpu0_DTLB PREFETCH  ACCESS:          0  HIT:          0  MISS:          0
cpu0_DTLB WRITEBACK ACCESS:          0  HIT:          0  MISS:          0
cpu0_ITLB TOTAL     ACCESS:     693395  HIT:     693395  MISS:          0
cpu0_ITLB LOAD      ACCESS:     693395  HIT:     693395  MISS:          0
cpu0_ITLB RFO       ACCESS:          0  HIT:          0  MISS:          0
cpu0_ITLB PREFETCH  ACCESS:          0  HIT:          0  MISS:          0
cpu0_ITLB WRITEBACK ACCESS:          0  HIT:          0  MISS:          0
cpu0_L1I TOTAL     ACCESS:    4631120  HIT:    4631120  MISS:          0
cpu0_L1I LOAD      ACCESS:    4631120  HIT:    4631120  MISS:          0
cpu0_L1I RFO       ACCESS:          0  HIT:          0  MISS:          0
cpu0_L1I PREFETCH  ACCESS:          0  HIT:          0  MISS:          0
cpu0_L1I WRITEBACK ACCESS:          0  HIT:          0  MISS:          0
cpu0_STLB TOTAL     ACCESS:    1256120  HIT:     680479  MISS:     575641
cpu0_STLB LOAD      ACCESS:     888922  HIT:     523714  MISS:     365208
cpu0_STLB RFO       ACCESS:     367198  HIT:     156765  MISS:     210433
cpu0_STLB PREFETCH  ACCESS:          0  HIT:          0  MISS:          0
cpu0_STLB WRITEBACK ACCESS:          0  HIT:          0  MISS:          0
cpu0_L1D TOTAL     ACCESS:   22356675  HIT:   21987099  MISS:     369576
cpu0_L1D LOAD      ACCESS:   14339880  HIT:   14042851  MISS:     297029
cpu0_L1D RFO       ACCESS:    7441158  HIT:    7370489  MISS:      70669
cpu0_L1D PREFETCH  ACCESS:          0  HIT:          0  MISS:          0
cpu0_L1D WRITEBACK ACCESS:          0  HIT:          0  MISS:          0
cpu0_L2C TOTAL     ACCESS:     443085  HIT:     186128  MISS:     256957
cpu0_L2C LOAD      ACCESS:     297029  HIT:     112092  MISS:     184937
cpu0_L2C RFO       ACCESS:      70669  HIT:          1  MISS:      70668
cpu0_L2C PREFETCH  ACCESS:          0  HIT:          0  MISS:          0
cpu0_L2C WRITEBACK ACCESS:      73509  HIT:      73296  MISS:        213
LLC TOTAL     ACCESS:     327633  HIT:      78863  MISS:     248770
LLC LOAD      ACCESS:     184937  HIT:       6574  MISS:     178363
LLC RFO       ACCESS:      70668  HIT:        400  MISS:      70268
LLC PREFETCH  ACCESS:          0  HIT:          0  MISS:          0
LLC WRITEBACK ACCESS:      70889  HIT:      70813  MISS:         76
Heartbeat CPU 0 instructions: 102000004 cycles: 71552854 heartbeat IPC: 1.15505 cumulative IPC: 1.01657 (Simulation time: 2 hr 8 min 2 sec) 

Region of Interest Statistics
cpu0_DTLB TOTAL     ACCESS:   14940080  HIT:   13650105  MISS:    1289975
cpu0_DTLB LOAD      ACCESS:   11485756  HIT:   10571651  MISS:     914105
cpu0_DTLB RFO       ACCESS:    3454324  HIT:    3078454  MISS:     375870
cpu0_DTLB PREFETCH  ACCESS:          0  HIT:          0  MISS:          0
cpu0_DTLB WRITEBACK ACCESS:          0  HIT:          0  MISS:          0
cpu0_ITLB TOTAL     ACCESS:     722199  HIT:     722199  MISS:          0
cpu0_ITLB LOAD      ACCESS:     722199  HIT:     722199  MISS:          0
cpu0_ITLB RFO       ACCESS:          0  HIT:          0  MISS:          0
cpu0_ITLB PREFETCH  ACCESS:          0  HIT:          0  MISS:          0
cpu0_ITLB WRITEBACK ACCESS:          0  HIT:          0  MISS:          0
cpu0_L1I TOTAL     ACCESS:    4824672  HIT:    4824672  MISS:          0
cpu0_L1I LOAD      ACCESS:    4824672  HIT:    4824672  MISS:          0
cpu0_L1I RFO       ACCESS:          0  HIT:          0  MISS:          0
cpu0_L1I PREFETCH  ACCESS:          0  HIT:          0  MISS:          0
cpu0_L1I WRITEBACK ACCESS:          0  HIT:          0  MISS:          0
cpu0_STLB TOTAL     ACCESS:    1289975  HIT:     700680  MISS:     589295
cpu0_STLB LOAD      ACCESS:     914105  HIT:     540798  MISS:     373307
cpu0_STLB RFO       ACCESS:     375870  HIT:     159882  MISS:     215988
cpu0_STLB PREFETCH  ACCESS:          0  HIT:          0  MISS:          0
cpu0_STLB WRITEBACK ACCESS:          0  HIT:          0  MISS:          0
cpu0_L1D TOTAL     ACCESS:   23240061  HIT:   22858751  MISS:     381310
cpu0_L1D LOAD      ACCESS:   14923331  HIT:   14615622  MISS:     307709
cpu0_L1D RFO       ACCESS:    7727439  HIT:    7655774  MISS:      71665
cpu0_L1D PREFETCH  ACCESS:          0  HIT:          0  MISS:          0
cpu0_L1D WRITEBACK ACCESS:          0  HIT:          0  MISS:          0
cpu0_L2C TOTAL     ACCESS:     455928  HIT:     192074  MISS:     263854
cpu0_L2C LOAD      ACCESS:     307709  HIT:     116895  MISS:     190814
cpu0_L2C RFO       ACCESS:      71665  HIT:          1  MISS:      71664
cpu0_L2C PREFETCH  ACCESS:          0  HIT:          0  MISS:          0
cpu0_L2C WRITEBACK ACCESS:      74618  HIT:      74405  MISS:        213
LLC TOTAL     ACCESS:     335558  HIT:      80299  MISS:     255259
LLC LOAD      ACCESS:     190814  HIT:       6968  MISS:     183846
LLC RFO       ACCESS:      71664  HIT:        400  MISS:      71264
LLC PREFETCH  ACCESS:          0  HIT:          0  MISS:          0
LLC WRITEBACK ACCESS:      71917  HIT:      71831  MISS:         86
Heartbeat CPU 0 instructions: 104000004 cycles: 73289498 heartbeat IPC: 1.15165 cumulative IPC: 1.021 (Simulation time: 2 hr 11 min 10 sec) 

Region of Interest Statistics
cpu0_DTLB TOTAL     ACCESS:   15503608  HIT:   14183446  MISS:    1320162
cpu0_DTLB LOAD      ACCESS:   11931156  HIT:   10994607  MISS:     936549
cpu0_DTLB RFO       ACCESS:    3572452  HIT:    3188839  MISS:     383613
cpu0_DTLB PREFETCH  ACCESS:          0  HIT:          0  MISS:          0
cpu0_DTLB WRITEBACK ACCESS:          0  HIT:          0  MISS:          0
cpu0_ITLB TOTAL     ACCESS:     751029  HIT:     751029  MISS:          0
cpu0_ITLB LOAD      ACCESS:     751029  HIT:     751029  MISS:          0
cpu0_ITLB RFO       ACCESS:          0  HIT:          0  MISS:          0
cpu0_ITLB PREFETCH  ACCESS:          0  HIT:          0  MISS:          0
cpu0_ITLB WRITEBACK ACCESS:          0  HIT:          0  MISS:          0
cpu0_L1I TOTAL     ACCESS:    5018260  HIT:    5018260  MISS:          0
cpu0_L1I LOAD      ACCESS:    5018260  HIT:    5018260  MISS:          0
cpu0_L1I RFO       ACCESS:          0  HIT:          0  MISS:          0
cpu0_L1I PREFETCH  ACCESS:          0  HIT:          0  MISS:          0
cpu0_L1I WRITEBACK ACCESS:          0  HIT:          0  MISS:          0
cpu0_STLB TOTAL     ACCESS:    1320162  HIT:     715873  MISS:     604289
cpu0_STLB LOAD      ACCESS:     936549  HIT:     554290  MISS:     382259
cpu0_STLB RFO       ACCESS:     383613  HIT:     161583  MISS:     222030
cpu0_STLB PREFETCH  ACCESS:          0  HIT:          0  MISS:          0
cpu0_STLB WRITEBACK ACCESS:          0  HIT:          0  MISS:          0
cpu0_L1D TOTAL     ACCESS:   24123171  HIT:   23730230  MISS:     392941
cpu0_L1D LOAD      ACCESS:   15505238  HIT:   15186962  MISS:     318276
cpu0_L1D RFO       ACCESS:    8013648  HIT:    7940987  MISS:      72661
cpu0_L1D PREFETCH  ACCESS:          0  HIT:          0  MISS:          0
cpu0_L1D WRITEBACK ACCESS:          0  HIT:          0  MISS:          0
cpu0_L2C TOTAL     ACCESS:     468674  HIT:     197722  MISS:     270952
cpu0_L2C LOAD      ACCESS:     318276  HIT:     121434  MISS:     196842
cpu0_L2C RFO       ACCESS:      72661  HIT:          1  MISS:      72660
cpu0_L2C PREFETCH  ACCESS:          0  HIT:          0  MISS:          0
cpu0_L2C WRITEBACK ACCESS:      75733  HIT:      75482  MISS:        251
LLC TOTAL     ACCESS:     343599  HIT:      81864  MISS:     261735
LLC LOAD      ACCESS:     196842  HIT:       7516  MISS:     189326
LLC RFO       ACCESS:      72660  HIT:        400  MISS:      72260
LLC PREFETCH  ACCESS:          0  HIT:          0  MISS:          0
LLC WRITEBACK ACCESS:      72898  HIT:      72812  MISS:         86
Heartbeat CPU 0 instructions: 106000002 cycles: 75021993 heartbeat IPC: 1.1544 cumulative IPC: 1.02523 (Simulation time: 2 hr 14 min 39 sec) 

Region of Interest Statistics
cpu0_DTLB TOTAL     ACCESS:   16068170  HIT:   14717502  MISS:    1350668
cpu0_DTLB LOAD      ACCESS:   12377362  HIT:   11417998  MISS:     959364
cpu0_DTLB RFO       ACCESS:    3690808  HIT:    3299504  MISS:     391304
cpu0_DTLB PREFETCH  ACCESS:          0  HIT:          0  MISS:          0
cpu0_DTLB WRITEBACK ACCESS:          0  HIT:          0  MISS:          0
cpu0_ITLB TOTAL     ACCESS:     779855  HIT:     779855  MISS:          0
cpu0_ITLB LOAD      ACCESS:     779855  HIT:     779855  MISS:          0
cpu0_ITLB RFO       ACCESS:          0  HIT:          0  MISS:          0
cpu0_ITLB PREFETCH  ACCESS:          0  HIT:          0  MISS:          0
cpu0_ITLB WRITEBACK ACCESS:          0  HIT:          0  MISS:          0
cpu0_L1I TOTAL     ACCESS:    5212201  HIT:    5212201  MISS:          0
cpu0_L1I LOAD      ACCESS:    5212201  HIT:    5212201  MISS:          0
cpu0_L1I RFO       ACCESS:          0  HIT:          0  MISS:          0
cpu0_L1I PREFETCH  ACCESS:          0  HIT:          0  MISS:          0
cpu0_L1I WRITEBACK ACCESS:          0  HIT:          0  MISS:          0
cpu0_STLB TOTAL     ACCESS:    1350668  HIT:     733358  MISS:     617310
cpu0_STLB LOAD      ACCESS:     959364  HIT:     569470  MISS:     389894
cpu0_STLB RFO       ACCESS:     391304  HIT:     163888  MISS:     227416
cpu0_STLB PREFETCH  ACCESS:          0  HIT:          0  MISS:          0
cpu0_STLB WRITEBACK ACCESS:          0  HIT:          0  MISS:          0
cpu0_L1D TOTAL     ACCESS:   25005194  HIT:   24600562  MISS:     404632
cpu0_L1D LOAD      ACCESS:   16087916  HIT:   15759014  MISS:     328902
cpu0_L1D RFO       ACCESS:    8299972  HIT:    8226315  MISS:      73657
cpu0_L1D PREFETCH  ACCESS:          0  HIT:          0  MISS:          0
cpu0_L1D WRITEBACK ACCESS:          0  HIT:          0  MISS:          0
cpu0_L2C TOTAL     ACCESS:     481483  HIT:     203888  MISS:     277595
cpu0_L2C LOAD      ACCESS:     328902  HIT:     126480  MISS:     202422
cpu0_L2C RFO       ACCESS:      73657  HIT:          1  MISS:      73656
cpu0_L2C PREFETCH  ACCESS:          0  HIT:          0  MISS:          0
[...]
cpu0_L1I TOTAL     ACCESS:  138123254  HIT:  138123254  MISS:          0
cpu0_L1I LOAD      ACCESS:  138123254  HIT:  138123254  MISS:          0
cpu0_L1I RFO       ACCESS:          0  HIT:          0  MISS:          0
cpu0_L1I PREFETCH  ACCESS:          0  HIT:          0  MISS:          0
cpu0_L1I WRITEBACK ACCESS:          0  HIT:          0  MISS:          0
cpu0_STLB TOTAL     ACCESS:   39669138  HIT:   20838514  MISS:   18830624
cpu0_STLB LOAD      ACCESS:   27658648  HIT:   15668180  MISS:   11990468
cpu0_STLB RFO       ACCESS:   12010490  HIT:    5170334  MISS:    6840156
cpu0_STLB PREFETCH  ACCESS:          0  HIT:          0  MISS:          0
cpu0_STLB WRITEBACK ACCESS:          0  HIT:          0  MISS:          0
cpu0_L1D TOTAL     ACCESS:  673358898  HIT:  661769162  MISS:   11589736
cpu0_L1D LOAD      ACCESS:  430165267  HIT:  420908236  MISS:    9257031
cpu0_L1D RFO       ACCESS:  224363477  HIT:  222083224  MISS:    2280253
cpu0_L1D PREFETCH  ACCESS:          0  HIT:          0  MISS:          0
cpu0_L1D WRITEBACK ACCESS:          0  HIT:          0  MISS:          0
cpu0_L2C TOTAL     ACCESS:   13955459  HIT:    5943414  MISS:    8012045
cpu0_L2C LOAD      ACCESS:    9257031  HIT:    3569478  MISS:    5687553
cpu0_L2C RFO       ACCESS:    2280253  HIT:         65  MISS:    2280188
cpu0_L2C PREFETCH  ACCESS:          0  HIT:          0  MISS:          0
cpu0_L2C WRITEBACK ACCESS:    2365723  HIT:    2355189  MISS:      10534
LLC TOTAL     ACCESS:   10289971  HIT:    2509849  MISS:    7780122
LLC LOAD      ACCESS:    5687553  HIT:     185283  MISS:    5502270
LLC RFO       ACCESS:    2280188  HIT:       6971  MISS:    2273217
LLC PREFETCH  ACCESS:          0  HIT:          0  MISS:          0
LLC WRITEBACK ACCESS:    2288460  HIT:    2285793  MISS:       2667
Finished CPU 0 instructions: 1500000001 cycles: 1510559245 cumulative IPC: 0.99301 (Simulation time: 23 hr 26 min 51 sec) 

ChampSim completed all CPUs

Region of Interest Statistics

CPU 0 cumulative IPC: 0.99301 instructions: 1500000001 cycles: 1510559245
cpu0_DTLB TOTAL     ACCESS:  432685416  HIT:  393016278  MISS:   39669138
cpu0_DTLB LOAD      ACCESS:  331216136  HIT:  303557488  MISS:   27658648
cpu0_DTLB RFO       ACCESS:  101469280  HIT:   89458790  MISS:   12010490
cpu0_DTLB PREFETCH  ACCESS:          0  HIT:          0  MISS:          0
cpu0_DTLB WRITEBACK ACCESS:          0  HIT:          0  MISS:          0
cpu0_DTLB TRANSLATION ACCESS:          0  HIT:          0  MISS:          0
cpu0_DTLB PREFETCH  REQUESTED:          0  ISSUED:          0  USEFUL:          0  USELESS:          0
cpu0_DTLB AVERAGE MISS LATENCY: 13.6355 cycles
cpu0_ITLB TOTAL     ACCESS:   20711783  HIT:   20711783  MISS:          0
cpu0_ITLB LOAD      ACCESS:   20711783  HIT:   20711783  MISS:          0
cpu0_ITLB RFO       ACCESS:          0  HIT:          0  MISS:          0
cpu0_ITLB PREFETCH  ACCESS:          0  HIT:          0  MISS:          0
cpu0_ITLB WRITEBACK ACCESS:          0  HIT:          0  MISS:          0
cpu0_ITLB TRANSLATION ACCESS:          0  HIT:          0  MISS:          0
cpu0_ITLB PREFETCH  REQUESTED:          0  ISSUED:          0  USEFUL:          0  USELESS:          0
cpu0_ITLB AVERAGE MISS LATENCY: -nan cycles
cpu0_L1I TOTAL     ACCESS:  138123254  HIT:  138123254  MISS:          0
cpu0_L1I LOAD      ACCESS:  138123254  HIT:  138123254  MISS:          0
cpu0_L1I RFO       ACCESS:          0  HIT:          0  MISS:          0
cpu0_L1I PREFETCH  ACCESS:          0  HIT:          0  MISS:          0
cpu0_L1I WRITEBACK ACCESS:          0  HIT:          0  MISS:          0
cpu0_L1I TRANSLATION ACCESS:          0  HIT:          0  MISS:          0
cpu0_L1I PREFETCH  REQUESTED:          0  ISSUED:          0  USEFUL:          0  USELESS:          0
cpu0_L1I AVERAGE MISS LATENCY: -nan cycles
cpu0_STLB TOTAL     ACCESS:   39669138  HIT:   20838514  MISS:   18830624
cpu0_STLB LOAD      ACCESS:   27658648  HIT:   15668180  MISS:   11990468
cpu0_STLB RFO       ACCESS:   12010490  HIT:    5170334  MISS:    6840156
cpu0_STLB PREFETCH  ACCESS:          0  HIT:          0  MISS:          0
cpu0_STLB WRITEBACK ACCESS:          0  HIT:          0  MISS:          0
cpu0_STLB TRANSLATION ACCESS:          0  HIT:          0  MISS:          0
cpu0_STLB PREFETCH  REQUESTED:          0  ISSUED:          0  USEFUL:          0  USELESS:          0
cpu0_STLB AVERAGE MISS LATENCY: 8.75392 cycles
cpu0_L1D TOTAL     ACCESS:  673358898  HIT:  661769162  MISS:   11589736
cpu0_L1D LOAD      ACCESS:  430165267  HIT:  420908236  MISS:    9257031
cpu0_L1D RFO       ACCESS:  224363477  HIT:  222083224  MISS:    2280253
cpu0_L1D PREFETCH  ACCESS:          0  HIT:          0  MISS:          0
cpu0_L1D WRITEBACK ACCESS:          0  HIT:          0  MISS:          0
cpu0_L1D TRANSLATION ACCESS:   18830154  HIT:   18777702  MISS:      52452
cpu0_L1D PREFETCH  REQUESTED:          0  ISSUED:          0  USEFUL:          0  USELESS:          0
cpu0_L1D AVERAGE MISS LATENCY: 254.243 cycles
cpu0_L2C TOTAL     ACCESS:   13955459  HIT:    5943414  MISS:    8012045
cpu0_L2C LOAD      ACCESS:    9257031  HIT:    3569478  MISS:    5687553
cpu0_L2C RFO       ACCESS:    2280253  HIT:         65  MISS:    2280188
cpu0_L2C PREFETCH  ACCESS:          0  HIT:          0  MISS:          0
cpu0_L2C WRITEBACK ACCESS:    2365723  HIT:    2355189  MISS:      10534
cpu0_L2C TRANSLATION ACCESS:      52452  HIT:      18682  MISS:      33770
cpu0_L2C PREFETCH  REQUESTED:          0  ISSUED:          0  USEFUL:          0  USELESS:          0
cpu0_L2C AVERAGE MISS LATENCY: 351.512 cycles
LLC TOTAL     ACCESS:   10289971  HIT:    2509849  MISS:    7780122
LLC LOAD      ACCESS:    5687553  HIT:     185283  MISS:    5502270
LLC RFO       ACCESS:    2280188  HIT:       6971  MISS:    2273217
LLC PREFETCH  ACCESS:          0  HIT:          0  MISS:          0
LLC WRITEBACK ACCESS:    2288460  HIT:    2285793  MISS:       2667
LLC TRANSLATION ACCESS:      33770  HIT:      31802  MISS:       1968
LLC PREFETCH  REQUESTED:          0  ISSUED:          0  USEFUL:          0  USELESS:          0
LLC AVERAGE MISS LATENCY: 340.393 cycles
~~~~~~~~~~Reuse Distance Profiler output~~~~~~~~~~
0	89349264	6056352
1	38613504	10546464
2	29441872	11774880
3	24063616	15855312
4	23446704	19249904
5	19791328	16794080
6	19024320	16794592
7	15838272	13659200
8	15464448	13116144
9	12497680	11365376
10	12222400	10805072
11	10994832	9983472
12	9250400	8294240
13	8028816	7452864
14	8807040	8028016
15	7484864	6699376
16	6541120	5936928
17	7430432	6301696
18	6568176	5377344
19	5311520	4623600
20	5395328	4650592
21	5445296	4741056
22	4708416	3861984
23	4719872	3873584
24	4549440	3553760
25	4914032	4040352
26	5609408	4773440
27	5692960	4592624
28	4166160	3383280
29	4252736	3485088
30	4262480	3571392
31	4416640	3678544
32	5255312	4204880
33	5038464	3709280
34	4804928	3358512
35	4565936	3109888
36	4029952	2951168
37	3348144	2538480
38	3391088	2718192
39	3633376	2898080
40	3127424	2593040
41	2307744	1682736
42	2162128	1560288
43	2211904	1597008
44	1945552	1350384
45	2493120	1878544
46	2169104	1720224
47	1714080	1420048
48	1571056	1215424
49	1330768	931536
50	1467680	1144160
51	1080496	940992
52	1432720	1254016
53	1785552	1619072
54	1205408	1097968
55	1784512	1547008
56	1275840	992256
57	1032320	921120
58	1048944	912384
59	1089952	996304
60	919200	851376
61	1102112	974080
62	861728	769760
63	529184	428896
64	1105872	972688
66	1084192	920176
68	1110080	912144
70	1450400	1121056
72	1655344	929408
74	1579616	1174368
76	1607648	1204896
78	1533424	1229504
80	1434032	1141856
82	1054768	743856
84	1441008	986816
86	1647872	977760
88	1828160	1284208
90	1978784	1478208
92	1812224	1445920
94	1873168	1546768
96	1452000	1207248
98	1676752	1364112
100	1821520	1624864
102	1501440	1294544
104	1592384	1079024
106	1823424	950416
108	1607216	874816
110	1158128	668016
112	946256	632224
114	995808	653376
116	746960	444032
118	556208	405824
120	498720	342528
122	602816	308304
124	660160	227232
126	707008	322960
128	1471600	435632
132	1574128	521712
136	1550336	313360
140	1660176	587328
144	1684448	837632
148	837984	527136
152	448400	351424
156	365088	304224
160	525136	496272
164	619760	586176
168	847456	810608
172	639504	606176
176	595360	528880
180	642176	550816
184	936816	712576
188	932656	866416
192	985264	912112
196	961504	870672
200	1207808	888576
204	1607200	1305056
208	1296768	1168224
212	751280	553536
216	722576	352464
220	520208	282640
224	401248	350800
228	350320	319600
232	334256	241872
236	374336	191312
240	379520	146944
244	310864	100256
248	341056	101168
252	348832	69264
256	943200	57680
264	1186976	56304
272	1474688	46368
280	671232	15648
288	174784	9728
296	51600	17456
304	54832	20160
312	123904	32832
320	185520	23552
328	155744	72928
336	658064	629296
344	566624	541024
352	419024	328880
360	739696	407840
368	1295216	662592
376	1601312	958176
384	1283584	720528
392	508128	289296
400	671632	295584
408	944608	450592
416	1184784	523280
424	1207856	535264
432	1229776	559120
440	1415248	662384
448	1011120	577904
456	860352	549680
464	752544	446896
472	659488	471456
480	803936	610352
488	961760	637360
496	1130976	746976
504	1308112	962032
512	2514560	1716656
528	2112896	1739136
544	3525520	3044944
560	3490960	2881696
576	2680592	2603472
592	2737968	2436640
608	4553264	3879344
624	6304224	6208496
640	14176144	12942720
656	19117232	16240304
672	4173856	3982784
688	2100848	2012688
704	1396800	1289968
720	554656	529792
736	431168	430608
752	183168	182368
768	21232	14976
784	14096	13040
800	21088	15120
816	9456	7664
832	10976	10656
848	3184	1888
864	16160	9440
880	31408	28480
896	23376	19280
912	22640	21088
928	33600	33568
944	28368	28368
960	9872	9872
976	9056	9056
992	1056	1056
1008	288	272
1024	464	304
1056	1504	1424
1088	3856	3856
1120	704	704
1152	0	0
1184	0	0
1216	0	0
1248	0	0
1280	0	0
1312	0	0
1344	0	0
1376	0	0
1408	0	0
1440	0	0
1472	0	0
1504	0	0
1536	0	0
1568	0	0
1600	0	0
1632	0	0
1664	0	0
1696	0	0
1728	0	0
1760	0	0
1792	0	0
1824	0	0
1856	0	0
1888	0	0
1920	0	0
1952	0	0
1984	0	0
2016	0	0
2048	0	0
2112	0	0
2176	0	0
2240	0	0
2304	0	0
2368	0	0
2432	0	0
2496	0	0
2560	0	0
2624	0	0
2688	0	0
2752	0	0
2816	0	0
2880	0	0
2944	0	0
3008	0	0
3072	0	0
3136	0	0
3200	0	0
3264	0	0
3328	0	0
3392	0	0
3456	0	0
3520	0	0
3584	0	0
3648	16	16
3712	368	368
3776	1360	1360
3840	4016	4016
3904	7504	7504
3968	11840	11840
4032	19072	19072
4096	55360	55344
4224	67200	67152
4352	43984	43952
4480	480	464
4608	1008	960
4736	1216	1200
4864	4656	4656
4992	0	0
5120	0	0
5248	16	0
5376	0	0
5504	0	0
5632	0	0
5760	0	0
5888	0	0
6016	0	0
6144	0	0
6272	0	0
6400	0	0
6528	0	0
6656	0	0
6784	0	0
6912	0	0
7040	0	0
7168	0	0
7296	0	0
7424	0	0
7552	0	0
7680	0	0
7808	0	0
7936	0	0
8064	0	0
8192	0	0
8448	0	0
8704	0	0
8960	0	0
9216	0	0
9472	0	0
9728	0	0
9984	0	0
10240	0	0
10496	0	0
10752	0	0
11008	0	0
11264	0	0
11520	0	0
11776	0	0
12032	0	0
12288	0	0
12544	0	0
12800	0	0
13056	0	0
13312	0	0
13568	0	0
13824	0	0
14080	0	0
14336	0	0
14592	0	0
14848	0	0
15104	0	0
15360	0	0
15616	0	0
15872	0	0
16128	0	0
16384	0	0
16896	0	0
17408	0	0
17920	0	0
18432	0	0
18944	0	0
19456	0	0
19968	0	0
20480	0	0
20992	0	0
21504	0	0
22016	0	0
22528	0	0
23040	0	0
23552	0	0
24064	0	0
24576	0	0
25088	0	0
25600	0	0
26112	0	0
26624	0	0
27136	0	0
27648	0	0
28160	0	0
28672	0	0
29184	0	0
29696	0	0
30208	0	0
30720	0	0
31232	0	0
31744	0	0
32256	0	0
32768	0	0
33792	0	0
34816	0	0
35840	0	0
36864	0	0
37888	0	0
38912	0	0
39936	0	0
40960	0	0
41984	0	0
43008	0	0
44032	0	0
45056	0	0
46080	0	0
47104	0	0
48128	0	0
49152	0	0
50176	0	0
51200	0	0
52224	0	0
53248	0	0
54272	0	0
55296	0	0
56320	0	0
57344	0	0
58368	0	0
59392	0	0
60416	0	0
61440	0	0
62464	0	0
63488	0	0
64512	0	0
65536	0	0
67584	0	0
69632	0	0
71680	3213728	3213728
73728	780864	780864
75776	32768	32768
77824	262672	262656
79872	976	976
81920	4512	4512
83968	624	624
86016	0	0
88064	0	0
90112	0	0
92160	0	0
94208	0	0
96256	0	0
98304	0	0
100352	0	0
102400	0	0
104448	0	0
106496	0	0
108544	0	0
110592	0	0
112640	0	0
114688	0	0
116736	0	0
118784	0	0
120832	0	0
122880	0	0
124928	0	0
126976	0	0
129024	0	0
131072	0	0
135168	0	0
139264	0	0
143360	0	0
147456	0	0
151552	0	0
155648	0	0
159744	0	0
163840	0	0
167936	0	0
172032	0	0
176128	0	0
180224	0	0
184320	0	0
188416	0	0
192512	0	0
196608	0	0
200704	0	0
204800	0	0
208896	0	0
212992	0	0
217088	0	0
221184	0	0
225280	0	0
229376	0	0
233472	0	0
237568	0	0
241664	0	0
245760	0	0
249856	0	0
253952	0	0
258048	0	0
262144	0	0
270336	0	0
278528	0	0
286720	0	0
294912	0	0
303104	0	0
311296	0	0
319488	0	0
327680	0	0
335872	0	0
344064	0	0
352256	0	0
360448	0	0
368640	0	0
376832	0	0
385024	0	0
393216	0	0
401408	0	0
409600	0	0
417792	0	0
425984	0	0
434176	0	0
442368	0	0
450560	0	0
458752	0	0
466944	0	0
475136	0	0
483328	0	0
491520	112	112
499712	2256	1088
507904	6000	2576
516096	3728	1968
524288	6928	3488
540672	7312	3568
557056	7520	3792
573440	5088	2800
589824	3360	1696
606208	3184	1632
622592	3376	1568
638976	3264	1568
655360	3520	1632
671744	3168	1664
688128	3008	1440
704512	3072	1568
720896	3744	1952
737280	3152	1376
753664	3232	1648
770048	3376	1600
786432	3264	1632
802816	3168	1616
819200	3424	1776
835584	2864	1328
851968	2784	1360
868352	3680	1664
884736	3472	1760
901120	3456	1584
917504	3040	1616
933888	3600	1792
950272	3728	1952
966656	2864	1376
983040	2704	1248
999424	3072	1392
1015808	3008	1504
1032192	2960	1408
1048576	5872	2864
1081344	6640	2848
1114112	6128	2832
1146880	6416	3168
1179648	5904	3088
1212416	7040	3408
1245184	6672	3376
1277952	6016	2880
1310720	6224	3104
1343488	6624	3360
1376256	5904	2928
1409024	6304	3104
1441792	6192	3072
1474560	6064	3264
1507328	6320	3184
1540096	6720	3184
1572864	6064	2656
1605632	6352	2896
1638400	6544	3312
1671168	6480	3232
1703936	6144	3008
1736704	5840	2944
1769472	5984	2912
1802240	6368	3328
1835008	6400	3408
1867776	5904	2944
1900544	5920	3200
1933312	6288	3408
1966080	6320	3184
1998848	6224	3216
2031616	5904	3168
2064384	6336	3216
2097152	13152	6848
2162688	12432	6048
2228224	13648	6912
2293760	12736	6448
2359296	12272	6240
2424832	12544	6288
2490368	12336	5968
2555904	12736	6064
2621440	12848	6592
2686976	13328	6768
2752512	12128	5744
2818048	12528	6704
2883584	13440	6272
2949120	13136	6544
3014656	13168	6336
3080192	13072	6864
3145728	12080	6192
3211264	12240	5808
3276800	13360	6512
3342336	12048	5696
3407872	12144	6160
3473408	12464	5968
3538944	13296	6176
3604480	11616	5616
3670016	12592	6320
3735552	13328	6800
3801088	13184	6816
3866624	13520	6432
3932160	12576	6000
3997696	12992	6512
4063232	12752	6320
4128768	12640	6304
4194304	25536	13104
4325376	25056	11808
4456448	25264	12368
4587520	25456	12624
4718592	25872	12688
4849664	25216	12320
4980736	25424	12672
5111808	24848	12400
5242880	24752	12080
5373952	25680	13040
5505024	24768	12400
5636096	25200	12352
5767168	25856	12800
5898240	26000	13056
6029312	25280	12576
6160384	25152	12496
6291456	24528	12592
6422528	25824	13360
6553600	25136	12640
6684672	25824	12960
6815744	25664	12912
6946816	25296	12512
7077888	24720	12560
7208960	24096	12064
7340032	25264	12640
7471104	24752	12144
7602176	25248	12752
7733248	24592	12480
7864320	26928	12944
7995392	26528	13184
8126464	24352	11856
8257536	24816	12224
8388608	50048	25472
8650752	49952	25440
8912896	50912	25456
9175040	20736	10352
9437184	1273072	1272512
9699328	385888	385472
9961472	9760	9760
10223616	54640	52928
10485760	20432	20416
10747904	20832	20832
11010048	21088	21056
11272192	21376	21376
11534336	20784	20784
11796480	22224	22224
12058624	21360	21360
12320768	21376	21376
12582912	21568	21568
12845056	20608	20608
13107200	21392	21392
13369344	20704	20704
13631488	22192	22192
13893632	20752	20752
14155776	21760	21760
14417920	21648	21648
14680064	21840	21840
14942208	20624	20624
15204352	20832	20832
15466496	21488	21488
15728640	21664	21664
15990784	22144	22144
16252928	21248	21248
16515072	21616	21616
16777216	43152	43152
17301504	41344	41344
17825792	42096	42096
18350080	42320	42320
18874368	19984	18240
19398656	528	528
19922944	144	96
20447232	0	0
20971520	0	0
21495808	0	0
22020096	0	0
22544384	0	0
23068672	0	0
23592960	0	0
24117248	0	0
24641536	0	0
25165824	0	0
25690112	0	0
26214400	0	0
26738688	0	0
27262976	0	0
27787264	0	0
28311552	0	0
28835840	0	0
29360128	0	0
29884416	0	0
30408704	0	0
30932992	0	0
31457280	0	0
31981568	0	0
32505856	0	0
33030144	0	0
33554432	0	0
34603008	0	0
35651584	0	0
36700160	0	0
37748736	0	0
38797312	0	0
39845888	0	0
40894464	0	0
41943040	0	0
42991616	0	0
44040192	0	0
45088768	0	0
46137344	0	0
47185920	0	0
48234496	0	0
49283072	0	0
50331648	0	0
51380224	0	0
52428800	0	0
53477376	0	0
54525952	0	0
55574528	0	0
56623104	0	0
57671680	0	0
58720256	0	0
59768832	0	0
60817408	0	0
61865984	0	0
62914560	0	0
63963136	0	0
65011712	0	0
66060288	0	0
67108864	0	0
69206016	0	0
71303168	0	0
73400320	0	0
75497472	0	0
77594624	0	0
79691776	0	0
81788928	0	0
83886080	0	0
85983232	0	0
88080384	0	0
90177536	0	0
92274688	0	0
94371840	0	0
96468992	0	0
98566144	0	0
100663296	0	0
102760448	0	0
104857600	0	0
106954752	0	0
109051904	0	0
111149056	0	0
113246208	0	0
115343360	0	0
117440512	0	0
119537664	0	0
121634816	0	0
123731968	0	0
125829120	0	0
127926272	0	0
130023424	0	0
132120576	0	0
134217728	0	0
138412032	0	0
142606336	0	0
146800640	0	0
150994944	0	0
155189248	0	0
159383552	0	0
163577856	0	0
167772160	0	0
171966464	0	0
176160768	0	0
180355072	0	0
184549376	0	0
188743680	0	0
192937984	0	0
197132288	0	0
201326592	0	0
205520896	0	0
209715200	0	0
213909504	0	0
218103808	0	0
222298112	0	0
226492416	0	0
230686720	0	0
234881024	0	0
239075328	0	0
243269632	0	0
247463936	0	0
251658240	0	0
255852544	0	0
260046848	0	0
264241152	0	0
268435456	0	0
276824064	0	0
285212672	0	0
293601280	0	0
301989888	0	0
310378496	0	0
318767104	0	0
327155712	0	0
335544320	0	0
343932928	0	0
352321536	0	0
360710144	0	0
369098752	0	0
377487360	0	0
385875968	0	0
394264576	0	0
402653184	0	0
411041792	0	0
419430400	0	0
427819008	0	0
436207616	0	0
444596224	0	0
452984832	0	0
461373440	0	0
469762048	0	0
478150656	0	0
486539264	0	0
494927872	0	0
503316480	0	0
511705088	0	0
520093696	0	0
528482304	0	0
536870912	0	0
553648128	0	0
570425344	0	0
587202560	0	0
603979776	0	0
620756992	0	0
637534208	0	0
654311424	0	0
671088640	0	0
687865856	0	0
704643072	0	0
721420288	0	0
738197504	0	0
754974720	0	0
771751936	0	0
788529152	0	0
805306368	0	0
822083584	0	0
838860800	0	0
855638016	0	0
872415232	0	0
889192448	0	0
905969664	0	0
922746880	0	0
939524096	0	0
956301312	0	0
973078528	0	0
989855744	0	0
1006632960	0	0
1023410176	0	0
1040187392	0	0
1056964608	0	0
1073741824	0	0
1107296256	0	0
1140850688	0	0
1174405120	0	0
1207959552	0	0
1241513984	0	0
1275068416	0	0
1308622848	0	0
1342177280	0	0
1375731712	0	0
1409286144	0	0
1442840576	0	0
1476395008	0	0
1509949440	0	0
1543503872	0	0
1577058304	0	0
1610612736	0	0
1644167168	0	0
1677721600	0	0
1711276032	0	0
1744830464	0	0
1778384896	0	0
1811939328	0	0
1845493760	0	0
1879048192	0	0
1912602624	0	0
1946157056	0	0
1979711488	0	0
2013265920	0	0
2046820352	0	0
2080374784	0	0
2113929216	0	0
2147483648	0	0
2214592512	0	0
2281701376	0	0
2348810240	0	0
2415919104	0	0
2483027968	0	0
2550136832	0	0
2617245696	0	0
2684354560	0	0
2751463424	0	0
2818572288	0	0
2885681152	0	0
2952790016	0	0
3019898880	0	0
3087007744	0	0
3154116608	0	0
3221225472	0	0
3288334336	0	0
3355443200	0	0
3422552064	0	0
3489660928	0	0
3556769792	0	0
3623878656	0	0
3690987520	0	0
3758096384	0	0
3825205248	0	0
3892314112	0	0
3959422976	0	0
4026531840	0	0
4093640704	0	0
4160749568	0	0
4227858432	0	0
~~~~~~~~~~Reuse Distance Profiler output end~~~~~~~~~~

Sampler size:243329

DRAM Statistics
 CHANNEL 0
 RQ ROW_BUFFER_HIT:       7029  ROW_BUFFER_MISS:    7770425
 DBUS AVG_CONGESTED_CYCLE:    3.98767
 WQ ROW_BUFFER_HIT:     320585  ROW_BUFFER_MISS:    1958773  FULL:          0


CPU 0 Branch Prediction Accuracy: 98.3506% MPKI: 0.0213753 Average ROB Occupancy at Mispredict: 348.565
Branch type MPKI
BRANCH_DIRECT_JUMP: 0
BRANCH_INDIRECT: 0
BRANCH_CONDITIONAL: 0.0213753
BRANCH_DIRECT_CALL: 0
BRANCH_INDIRECT_CALL: 0
BRANCH_RETURN: 0

