
*** ChampSim Multicore Out-of-Order Simulator ***

Warmup Instructions: 50000000
Simulation Instructions: 1500000000
Number of CPUs: 1
Off-chip DRAM Size: 4 GiB Channels: 1 Width: 64-bit Data Rate: 3200 MT/s

VirtualMemory physical capacity: 8588881920 num_ppages: 2096895
VirtualMemory page size: 4096 log2_page_size: 12

CPU 0 runs /s/traces/champsim_traces/450.soplex-247B.champsimtrace.xz
CPU 0 Bimodal branch predictor
Basic BTB sets: 1024 ways: 8 indirect buffer size: 4096 RAS size: 64
Initializing LRU.
Initializing LRU.
Initializing LRU.
Initializing LRU.
Initializing rdLRU.
Initializing LRU.
Initializing LRU.
Heartbeat CPU 0 instructions: 2000003 cycles: 532642 heartbeat IPC: 3.75487 cumulative IPC: 3.75487 (Simulation time: 0 hr 0 min 53 sec) 
Heartbeat CPU 0 instructions: 4000003 cycles: 1221849 heartbeat IPC: 2.90189 cumulative IPC: 3.27373 (Simulation time: 0 hr 2 min 31 sec) 
Heartbeat CPU 0 instructions: 6000001 cycles: 2090887 heartbeat IPC: 2.30139 cumulative IPC: 2.8696 (Simulation time: 0 hr 4 min 36 sec) 
Heartbeat CPU 0 instructions: 8000004 cycles: 2832627 heartbeat IPC: 2.69637 cumulative IPC: 2.82423 (Simulation time: 0 hr 6 min 22 sec) 
Heartbeat CPU 0 instructions: 10000000 cycles: 3571156 heartbeat IPC: 2.70808 cumulative IPC: 2.80021 (Simulation time: 0 hr 8 min 4 sec) 
Heartbeat CPU 0 instructions: 12000001 cycles: 4225592 heartbeat IPC: 3.05607 cumulative IPC: 2.83984 (Simulation time: 0 hr 9 min 32 sec) 
Heartbeat CPU 0 instructions: 14000002 cycles: 4814933 heartbeat IPC: 3.39362 cumulative IPC: 2.90762 (Simulation time: 0 hr 10 min 48 sec) 
Heartbeat CPU 0 instructions: 16000002 cycles: 5377887 heartbeat IPC: 3.55269 cumulative IPC: 2.97515 (Simulation time: 0 hr 11 min 55 sec) 
Heartbeat CPU 0 instructions: 18000003 cycles: 6217775 heartbeat IPC: 2.38127 cumulative IPC: 2.89493 (Simulation time: 0 hr 13 min 50 sec) 
Heartbeat CPU 0 instructions: 20000000 cycles: 6833273 heartbeat IPC: 3.2494 cumulative IPC: 2.92686 (Simulation time: 0 hr 15 min 7 sec) 
Heartbeat CPU 0 instructions: 22000002 cycles: 7451850 heartbeat IPC: 3.23323 cumulative IPC: 2.95229 (Simulation time: 0 hr 16 min 30 sec) 
Heartbeat CPU 0 instructions: 24000002 cycles: 8011988 heartbeat IPC: 3.57055 cumulative IPC: 2.99551 (Simulation time: 0 hr 17 min 40 sec) 
Heartbeat CPU 0 instructions: 26000003 cycles: 8698316 heartbeat IPC: 2.91406 cumulative IPC: 2.98908 (Simulation time: 0 hr 19 min 14 sec) 
Heartbeat CPU 0 instructions: 28000002 cycles: 9413715 heartbeat IPC: 2.79564 cumulative IPC: 2.97438 (Simulation time: 0 hr 20 min 46 sec) 
Heartbeat CPU 0 instructions: 30000002 cycles: 10086846 heartbeat IPC: 2.97119 cumulative IPC: 2.97417 (Simulation time: 0 hr 22 min 6 sec) 
Heartbeat CPU 0 instructions: 32000003 cycles: 10677354 heartbeat IPC: 3.38692 cumulative IPC: 2.997 (Simulation time: 0 hr 23 min 11 sec) 
Heartbeat CPU 0 instructions: 34000001 cycles: 11257045 heartbeat IPC: 3.45011 cumulative IPC: 3.02033 (Simulation time: 0 hr 24 min 20 sec) 
Heartbeat CPU 0 instructions: 36000002 cycles: 12013747 heartbeat IPC: 2.64305 cumulative IPC: 2.99657 (Simulation time: 0 hr 25 min 49 sec) 
Heartbeat CPU 0 instructions: 38000001 cycles: 12672078 heartbeat IPC: 3.03798 cumulative IPC: 2.99872 (Simulation time: 0 hr 27 min 14 sec) 
Heartbeat CPU 0 instructions: 40000000 cycles: 13313515 heartbeat IPC: 3.118 cumulative IPC: 3.00447 (Simulation time: 0 hr 28 min 42 sec) 
Heartbeat CPU 0 instructions: 42000002 cycles: 13901077 heartbeat IPC: 3.4039 cumulative IPC: 3.02135 (Simulation time: 0 hr 29 min 55 sec) 
Heartbeat CPU 0 instructions: 44000003 cycles: 14498110 heartbeat IPC: 3.3499 cumulative IPC: 3.03488 (Simulation time: 0 hr 31 min 8 sec) 
Heartbeat CPU 0 instructions: 46000003 cycles: 15294968 heartbeat IPC: 2.50986 cumulative IPC: 3.00753 (Simulation time: 0 hr 32 min 55 sec) 
Heartbeat CPU 0 instructions: 48000001 cycles: 15930487 heartbeat IPC: 3.14703 cumulative IPC: 3.01309 (Simulation time: 0 hr 34 min 17 sec) 
Heartbeat CPU 0 instructions: 50000004 cycles: 16539095 heartbeat IPC: 3.28619 cumulative IPC: 3.02314 (Simulation time: 0 hr 35 min 40 sec) 

Warmup complete CPU 0 instructions: 50000004 cycles: 16539095 (Simulation time: 0 hr 35 min 40 sec) 

Heartbeat CPU 0 instructions: 52000000 cycles: 22391299 heartbeat IPC: 0.341751 cumulative IPC: 0.341751 (Simulation time: 0 hr 37 min 53 sec) 

Region of Interest Statistics
cpu0_DTLB TOTAL     ACCESS:     289110  HIT:     287373  MISS:       1737
cpu0_DTLB LOAD      ACCESS:     269837  HIT:     268111  MISS:       1726
cpu0_DTLB RFO       ACCESS:      19273  HIT:      19262  MISS:         11
cpu0_DTLB PREFETCH  ACCESS:          0  HIT:          0  MISS:          0
cpu0_DTLB WRITEBACK ACCESS:          0  HIT:          0  MISS:          0
cpu0_ITLB TOTAL     ACCESS:     171447  HIT:     171447  MISS:          0
cpu0_ITLB LOAD      ACCESS:     171447  HIT:     171447  MISS:          0
cpu0_ITLB RFO       ACCESS:          0  HIT:          0  MISS:          0
cpu0_ITLB PREFETCH  ACCESS:          0  HIT:          0  MISS:          0
cpu0_ITLB WRITEBACK ACCESS:          0  HIT:          0  MISS:          0
cpu0_L1I TOTAL     ACCESS:       5325  HIT:       5324  MISS:          1
cpu0_L1I LOAD      ACCESS:       5325  HIT:       5324  MISS:          1
cpu0_L1I RFO       ACCESS:          0  HIT:          0  MISS:          0
cpu0_L1I PREFETCH  ACCESS:          0  HIT:          0  MISS:          0
cpu0_L1I WRITEBACK ACCESS:          0  HIT:          0  MISS:          0
cpu0_STLB TOTAL     ACCESS:       1737  HIT:        550  MISS:       1187
cpu0_STLB LOAD      ACCESS:       1726  HIT:        549  MISS:       1177
cpu0_STLB RFO       ACCESS:         11  HIT:          1  MISS:         10
cpu0_STLB PREFETCH  ACCESS:          0  HIT:          0  MISS:          0
cpu0_STLB WRITEBACK ACCESS:          0  HIT:          0  MISS:          0
cpu0_L1D TOTAL     ACCESS:     201593  HIT:     136570  MISS:      65023
cpu0_L1D LOAD      ACCESS:     182200  HIT:     117811  MISS:      64389
cpu0_L1D RFO       ACCESS:      18213  HIT:      17599  MISS:        614
cpu0_L1D PREFETCH  ACCESS:          0  HIT:          0  MISS:          0
cpu0_L1D WRITEBACK ACCESS:          0  HIT:          0  MISS:          0
cpu0_L2C TOTAL     ACCESS:      65707  HIT:        693  MISS:      65014
cpu0_L2C LOAD      ACCESS:      64391  HIT:          0  MISS:      64391
cpu0_L2C RFO       ACCESS:        614  HIT:          0  MISS:        614
cpu0_L2C PREFETCH  ACCESS:          0  HIT:          0  MISS:          0
cpu0_L2C WRITEBACK ACCESS:        682  HIT:        680  MISS:          2
LLC TOTAL     ACCESS:      65801  HIT:      28347  MISS:      37454
LLC LOAD      ACCESS:      64391  HIT:      27551  MISS:      36840
LLC RFO       ACCESS:        614  HIT:          1  MISS:        613
LLC PREFETCH  ACCESS:          0  HIT:          0  MISS:          0
LLC WRITEBACK ACCESS:        789  HIT:        789  MISS:          0
Heartbeat CPU 0 instructions: 54000004 cycles: 28599873 heartbeat IPC: 0.322136 cumulative IPC: 0.331654 (Simulation time: 0 hr 42 min 31 sec) 

Region of Interest Statistics
cpu0_DTLB TOTAL     ACCESS:     840508  HIT:     809862  MISS:      30646
cpu0_DTLB LOAD      ACCESS:     721916  HIT:     697724  MISS:      24192
cpu0_DTLB RFO       ACCESS:     118592  HIT:     112138  MISS:       6454
cpu0_DTLB PREFETCH  ACCESS:          0  HIT:          0  MISS:          0
cpu0_DTLB WRITEBACK ACCESS:          0  HIT:          0  MISS:          0
cpu0_ITLB TOTAL     ACCESS:     301596  HIT:     301596  MISS:          0
cpu0_ITLB LOAD      ACCESS:     301596  HIT:     301596  MISS:          0
cpu0_ITLB RFO       ACCESS:          0  HIT:          0  MISS:          0
cpu0_ITLB PREFETCH  ACCESS:          0  HIT:          0  MISS:          0
cpu0_ITLB WRITEBACK ACCESS:          0  HIT:          0  MISS:          0
cpu0_L1I TOTAL     ACCESS:      35258  HIT:      35253  MISS:          5
cpu0_L1I LOAD      ACCESS:      35258  HIT:      35253  MISS:          5
cpu0_L1I RFO       ACCESS:          0  HIT:          0  MISS:          0
cpu0_L1I PREFETCH  ACCESS:          0  HIT:          0  MISS:          0
cpu0_L1I WRITEBACK ACCESS:          0  HIT:          0  MISS:          0
cpu0_STLB TOTAL     ACCESS:      30646  HIT:      27653  MISS:       2993
cpu0_STLB LOAD      ACCESS:      24192  HIT:      21392  MISS:       2800
cpu0_STLB RFO       ACCESS:       6454  HIT:       6261  MISS:        193
cpu0_STLB PREFETCH  ACCESS:          0  HIT:          0  MISS:          0
cpu0_STLB WRITEBACK ACCESS:          0  HIT:          0  MISS:          0
cpu0_L1D TOTAL     ACCESS:     687067  HIT:     480140  MISS:     206927
cpu0_L1D LOAD      ACCESS:     541796  HIT:     355018  MISS:     186778
cpu0_L1D RFO       ACCESS:     142393  HIT:     122335  MISS:      20058
cpu0_L1D PREFETCH  ACCESS:          0  HIT:          0  MISS:          0
cpu0_L1D WRITEBACK ACCESS:          0  HIT:          0  MISS:          0
cpu0_L2C TOTAL     ACCESS:     265327  HIT:      69604  MISS:     195723
cpu0_L2C LOAD      ACCESS:     186778  HIT:      11126  MISS:     175652
cpu0_L2C RFO       ACCESS:      20057  HIT:        851  MISS:      19206
cpu0_L2C PREFETCH  ACCESS:          0  HIT:          0  MISS:          0
cpu0_L2C WRITEBACK ACCESS:      58401  HIT:      57586  MISS:        815
LLC TOTAL     ACCESS:     247264  HIT:     138706  MISS:     108558
LLC LOAD      ACCESS:     175645  HIT:      77560  MISS:      98085
LLC RFO       ACCESS:      19205  HIT:       8737  MISS:      10468
LLC PREFETCH  ACCESS:          0  HIT:          0  MISS:          0
LLC WRITEBACK ACCESS:      52364  HIT:      52364  MISS:          0
Heartbeat CPU 0 instructions: 56000004 cycles: 33287903 heartbeat IPC: 0.426618 cumulative IPC: 0.358234 (Simulation time: 0 hr 46 min 10 sec) 

Region of Interest Statistics
cpu0_DTLB TOTAL     ACCESS:    1266861  HIT:    1231831  MISS:      35030
cpu0_DTLB LOAD      ACCESS:    1078609  HIT:    1050764  MISS:      27845
cpu0_DTLB RFO       ACCESS:     188252  HIT:     181067  MISS:       7185
cpu0_DTLB PREFETCH  ACCESS:          0  HIT:          0  MISS:          0
cpu0_DTLB WRITEBACK ACCESS:          0  HIT:          0  MISS:          0
cpu0_ITLB TOTAL     ACCESS:     394897  HIT:     394897  MISS:          0
cpu0_ITLB LOAD      ACCESS:     394897  HIT:     394897  MISS:          0
cpu0_ITLB RFO       ACCESS:          0  HIT:          0  MISS:          0
cpu0_ITLB PREFETCH  ACCESS:          0  HIT:          0  MISS:          0
cpu0_ITLB WRITEBACK ACCESS:          0  HIT:          0  MISS:          0
cpu0_L1I TOTAL     ACCESS:      35867  HIT:      35859  MISS:          8
cpu0_L1I LOAD      ACCESS:      35867  HIT:      35859  MISS:          8
cpu0_L1I RFO       ACCESS:          0  HIT:          0  MISS:          0
cpu0_L1I PREFETCH  ACCESS:          0  HIT:          0  MISS:          0
cpu0_L1I WRITEBACK ACCESS:          0  HIT:          0  MISS:          0
cpu0_STLB TOTAL     ACCESS:      35030  HIT:      30903  MISS:       4127
cpu0_STLB LOAD      ACCESS:      27845  HIT:      24067  MISS:       3778
cpu0_STLB RFO       ACCESS:       7185  HIT:       6836  MISS:        349
cpu0_STLB PREFETCH  ACCESS:          0  HIT:          0  MISS:          0
cpu0_STLB WRITEBACK ACCESS:          0  HIT:          0  MISS:          0
cpu0_L1D TOTAL     ACCESS:     974800  HIT:     669309  MISS:     305491
cpu0_L1D LOAD      ACCESS:     754518  HIT:     497781  MISS:     256737
cpu0_L1D RFO       ACCESS:     216345  HIT:     167730  MISS:      48615
cpu0_L1D PREFETCH  ACCESS:          0  HIT:          0  MISS:          0
cpu0_L1D WRITEBACK ACCESS:          0  HIT:          0  MISS:          0
cpu0_L2C TOTAL     ACCESS:     407978  HIT:     121316  MISS:     286662
cpu0_L2C LOAD      ACCESS:     256738  HIT:      19196  MISS:     237542
cpu0_L2C RFO       ACCESS:      48614  HIT:        853  MISS:      47761
cpu0_L2C PREFETCH  ACCESS:          0  HIT:          0  MISS:          0
cpu0_L2C WRITEBACK ACCESS:     102487  HIT:     101214  MISS:       1273
LLC TOTAL     ACCESS:     380216  HIT:     229537  MISS:     150679
LLC LOAD      ACCESS:     237535  HIT:     102156  MISS:     135379
LLC RFO       ACCESS:      47760  HIT:      32469  MISS:      15291
LLC PREFETCH  ACCESS:          0  HIT:          0  MISS:          0
LLC WRITEBACK ACCESS:      94835  HIT:      94835  MISS:          0
Heartbeat CPU 0 instructions: 58000001 cycles: 41029732 heartbeat IPC: 0.258336 cumulative IPC: 0.326655 (Simulation time: 0 hr 49 min 10 sec) 

Region of Interest Statistics
cpu0_DTLB TOTAL     ACCESS:    1751027  HIT:    1703077  MISS:      47950
cpu0_DTLB LOAD      ACCESS:    1452183  HIT:    1411761  MISS:      40422
cpu0_DTLB RFO       ACCESS:     298844  HIT:     291316  MISS:       7528
cpu0_DTLB PREFETCH  ACCESS:          0  HIT:          0  MISS:          0
cpu0_DTLB WRITEBACK ACCESS:          0  HIT:          0  MISS:          0
cpu0_ITLB TOTAL     ACCESS:     592769  HIT:     592769  MISS:          0
cpu0_ITLB LOAD      ACCESS:     592769  HIT:     592769  MISS:          0
cpu0_ITLB RFO       ACCESS:          0  HIT:          0  MISS:          0
cpu0_ITLB PREFETCH  ACCESS:          0  HIT:          0  MISS:          0
cpu0_ITLB WRITEBACK ACCESS:          0  HIT:          0  MISS:          0
cpu0_L1I TOTAL     ACCESS:      35897  HIT:      35889  MISS:          8
cpu0_L1I LOAD      ACCESS:      35897  HIT:      35889  MISS:          8
cpu0_L1I RFO       ACCESS:          0  HIT:          0  MISS:          0
cpu0_L1I PREFETCH  ACCESS:          0  HIT:          0  MISS:          0
cpu0_L1I WRITEBACK ACCESS:          0  HIT:          0  MISS:          0
cpu0_STLB TOTAL     ACCESS:      47950  HIT:      40190  MISS:       7760
cpu0_STLB LOAD      ACCESS:      40422  HIT:      33020  MISS:       7402
cpu0_STLB RFO       ACCESS:       7528  HIT:       7170  MISS:        358
cpu0_STLB PREFETCH  ACCESS:          0  HIT:          0  MISS:          0
cpu0_STLB WRITEBACK ACCESS:          0  HIT:          0  MISS:          0
cpu0_L1D TOTAL     ACCESS:    1409710  HIT:     961077  MISS:     448633
cpu0_L1D LOAD      ACCESS:    1044964  HIT:     646807  MISS:     398157
cpu0_L1D RFO       ACCESS:     357219  HIT:     307125  MISS:      50094
cpu0_L1D PREFETCH  ACCESS:          0  HIT:          0  MISS:          0
cpu0_L1D WRITEBACK ACCESS:          0  HIT:          0  MISS:          0
cpu0_L2C TOTAL     ACCESS:     639392  HIT:     220175  MISS:     419217
cpu0_L2C LOAD      ACCESS:     398137  HIT:      31760  MISS:     366377
cpu0_L2C RFO       ACCESS:      50093  HIT:        853  MISS:      49240
cpu0_L2C PREFETCH  ACCESS:          0  HIT:          0  MISS:          0
cpu0_L2C WRITEBACK ACCESS:     190780  HIT:     187360  MISS:       3420
LLC TOTAL     ACCESS:     587111  HIT:     373284  MISS:     213827
LLC LOAD      ACCESS:     366366  HIT:     168462  MISS:     197904
LLC RFO       ACCESS:      49239  HIT:      33330  MISS:      15909
LLC PREFETCH  ACCESS:          0  HIT:          0  MISS:          0
LLC WRITEBACK ACCESS:     171326  HIT:     171326  MISS:          0
Heartbeat CPU 0 instructions: 60000002 cycles: 43580860 heartbeat IPC: 0.783967 cumulative IPC: 0.369798 (Simulation time: 0 hr 50 min 14 sec) 

Region of Interest Statistics
cpu0_DTLB TOTAL     ACCESS:    2108508  HIT:    2060183  MISS:      48325
cpu0_DTLB LOAD      ACCESS:    1756608  HIT:    1715837  MISS:      40771
cpu0_DTLB RFO       ACCESS:     351900  HIT:     344346  MISS:       7554
cpu0_DTLB PREFETCH  ACCESS:          0  HIT:          0  MISS:          0
cpu0_DTLB WRITEBACK ACCESS:          0  HIT:          0  MISS:          0
cpu0_ITLB TOTAL     ACCESS:     789973  HIT:     789973  MISS:          0
cpu0_ITLB LOAD      ACCESS:     789973  HIT:     789973  MISS:          0
cpu0_ITLB RFO       ACCESS:          0  HIT:          0  MISS:          0
cpu0_ITLB PREFETCH  ACCESS:          0  HIT:          0  MISS:          0
cpu0_ITLB WRITEBACK ACCESS:          0  HIT:          0  MISS:          0
cpu0_L1I TOTAL     ACCESS:      35897  HIT:      35889  MISS:          8
cpu0_L1I LOAD      ACCESS:      35897  HIT:      35889  MISS:          8
cpu0_L1I RFO       ACCESS:          0  HIT:          0  MISS:          0
cpu0_L1I PREFETCH  ACCESS:          0  HIT:          0  MISS:          0
cpu0_L1I WRITEBACK ACCESS:          0  HIT:          0  MISS:          0
cpu0_STLB TOTAL     ACCESS:      48325  HIT:      40489  MISS:       7836
cpu0_STLB LOAD      ACCESS:      40771  HIT:      33319  MISS:       7452
cpu0_STLB RFO       ACCESS:       7554  HIT:       7170  MISS:        384
cpu0_STLB PREFETCH  ACCESS:          0  HIT:          0  MISS:          0
cpu0_STLB WRITEBACK ACCESS:          0  HIT:          0  MISS:          0
cpu0_L1D TOTAL     ACCESS:    1660060  HIT:    1187405  MISS:     472655
cpu0_L1D LOAD      ACCESS:    1245909  HIT:     825404  MISS:     420505
cpu0_L1D RFO       ACCESS:     406548  HIT:     354796  MISS:      51752
cpu0_L1D PREFETCH  ACCESS:          0  HIT:          0  MISS:          0
cpu0_L1D WRITEBACK ACCESS:          0  HIT:          0  MISS:          0
cpu0_L2C TOTAL     ACCESS:     665126  HIT:     221900  MISS:     443226
cpu0_L2C LOAD      ACCESS:     420485  HIT:      31760  MISS:     388725
cpu0_L2C RFO       ACCESS:      51751  HIT:        853  MISS:      50898
cpu0_L2C PREFETCH  ACCESS:          0  HIT:          0  MISS:          0
cpu0_L2C WRITEBACK ACCESS:     192492  HIT:     189072  MISS:       3420
LLC TOTAL     ACCESS:     612819  HIT:     394912  MISS:     217907
LLC LOAD      ACCESS:     388714  HIT:     188358  MISS:     200356
LLC RFO       ACCESS:      50897  HIT:      33360  MISS:      17537
LLC PREFETCH  ACCESS:          0  HIT:          0  MISS:          0
LLC WRITEBACK ACCESS:     173025  HIT:     173025  MISS:          0
Heartbeat CPU 0 instructions: 62000000 cycles: 51203470 heartbeat IPC: 0.262377 cumulative IPC: 0.346177 (Simulation time: 0 hr 53 min 55 sec) 

Region of Interest Statistics
cpu0_DTLB TOTAL     ACCESS:    2431251  HIT:    2374320  MISS:      56931
cpu0_DTLB LOAD      ACCESS:    2024123  HIT:    1976027  MISS:      48096
cpu0_DTLB RFO       ACCESS:     407128  HIT:     398293  MISS:       8835
cpu0_DTLB PREFETCH  ACCESS:          0  HIT:          0  MISS:          0
cpu0_DTLB WRITEBACK ACCESS:          0  HIT:          0  MISS:          0
cpu0_ITLB TOTAL     ACCESS:     908795  HIT:     908795  MISS:          0
cpu0_ITLB LOAD      ACCESS:     908795  HIT:     908795  MISS:          0
cpu0_ITLB RFO       ACCESS:          0  HIT:          0  MISS:          0
cpu0_ITLB PREFETCH  ACCESS:          0  HIT:          0  MISS:          0
cpu0_ITLB WRITEBACK ACCESS:          0  HIT:          0  MISS:          0
cpu0_L1I TOTAL     ACCESS:      41217  HIT:      41173  MISS:         44
cpu0_L1I LOAD      ACCESS:      41217  HIT:      41173  MISS:         44
cpu0_L1I RFO       ACCESS:          0  HIT:          0  MISS:          0
cpu0_L1I PREFETCH  ACCESS:          0  HIT:          0  MISS:          0
cpu0_L1I WRITEBACK ACCESS:          0  HIT:          0  MISS:          0
cpu0_STLB TOTAL     ACCESS:      56931  HIT:      46743  MISS:      10188
cpu0_STLB LOAD      ACCESS:      48096  HIT:      38497  MISS:       9599
cpu0_STLB RFO       ACCESS:       8835  HIT:       8246  MISS:        589
cpu0_STLB PREFETCH  ACCESS:          0  HIT:          0  MISS:          0
cpu0_STLB WRITEBACK ACCESS:          0  HIT:          0  MISS:          0
cpu0_L1D TOTAL     ACCESS:    1921534  HIT:    1346616  MISS:     574918
cpu0_L1D LOAD      ACCESS:    1462266  HIT:     951180  MISS:     511086
cpu0_L1D RFO       ACCESS:     449412  HIT:     386015  MISS:      63397
cpu0_L1D PREFETCH  ACCESS:          0  HIT:          0  MISS:          0
cpu0_L1D WRITEBACK ACCESS:          0  HIT:          0  MISS:          0
cpu0_L2C TOTAL     ACCESS:     785994  HIT:     245646  MISS:     540348
cpu0_L2C LOAD      ACCESS:     511099  HIT:      36861  MISS:     474238
cpu0_L2C RFO       ACCESS:      63396  HIT:       1116  MISS:      62280
cpu0_L2C PREFETCH  ACCESS:          0  HIT:          0  MISS:          0
cpu0_L2C WRITEBACK ACCESS:     211064  HIT:     207440  MISS:       3624
LLC TOTAL     ACCESS:     725739  HIT:     442409  MISS:     283330
LLC LOAD      ACCESS:     474226  HIT:     218461  MISS:     255765
LLC RFO       ACCESS:      62279  HIT:      34733  MISS:      27546
LLC PREFETCH  ACCESS:          0  HIT:          0  MISS:          0
LLC WRITEBACK ACCESS:     189028  HIT:     189028  MISS:          0
Heartbeat CPU 0 instructions: 64000000 cycles: 57176330 heartbeat IPC: 0.334848 cumulative IPC: 0.344512 (Simulation time: 0 hr 58 min 28 sec) 

Region of Interest Statistics
cpu0_DTLB TOTAL     ACCESS:    2997830  HIT:    2916614  MISS:      81216
cpu0_DTLB LOAD      ACCESS:    2520331  HIT:    2453893  MISS:      66438
cpu0_DTLB RFO       ACCESS:     477499  HIT:     462721  MISS:      14778
cpu0_DTLB PREFETCH  ACCESS:          0  HIT:          0  MISS:          0
cpu0_DTLB WRITEBACK ACCESS:          0  HIT:          0  MISS:          0
cpu0_ITLB TOTAL     ACCESS:    1034663  HIT:    1034663  MISS:          0
cpu0_ITLB LOAD      ACCESS:    1034663  HIT:    1034663  MISS:          0
cpu0_ITLB RFO       ACCESS:          0  HIT:          0  MISS:          0
cpu0_ITLB PREFETCH  ACCESS:          0  HIT:          0  MISS:          0
cpu0_ITLB WRITEBACK ACCESS:          0  HIT:          0  MISS:          0
cpu0_L1I TOTAL     ACCESS:      66646  HIT:      66596  MISS:         50
cpu0_L1I LOAD      ACCESS:      66646  HIT:      66596  MISS:         50
cpu0_L1I RFO       ACCESS:          0  HIT:          0  MISS:          0
cpu0_L1I PREFETCH  ACCESS:          0  HIT:          0  MISS:          0
cpu0_L1I WRITEBACK ACCESS:          0  HIT:          0  MISS:          0
cpu0_STLB TOTAL     ACCESS:      81216  HIT:      69267  MISS:      11949
cpu0_STLB LOAD      ACCESS:      66438  HIT:      55249  MISS:      11189
cpu0_STLB RFO       ACCESS:      14778  HIT:      14018  MISS:        760
cpu0_STLB PREFETCH  ACCESS:          0  HIT:          0  MISS:          0
cpu0_STLB WRITEBACK ACCESS:          0  HIT:          0  MISS:          0
cpu0_L1D TOTAL     ACCESS:    2397084  HIT:    1671761  MISS:     725323
cpu0_L1D LOAD      ACCESS:    1807047  HIT:    1176364  MISS:     630683
cpu0_L1D RFO       ACCESS:     578568  HIT:     484436  MISS:      94132
cpu0_L1D PREFETCH  ACCESS:          0  HIT:          0  MISS:          0
cpu0_L1D WRITEBACK ACCESS:          0  HIT:          0  MISS:          0
cpu0_L2C TOTAL     ACCESS:    1009740  HIT:     324977  MISS:     684763
cpu0_L2C LOAD      ACCESS:     630698  HIT:      43218  MISS:     587480
cpu0_L2C RFO       ACCESS:      94130  HIT:       1723  MISS:      92407
cpu0_L2C PREFETCH  ACCESS:          0  HIT:          0  MISS:          0
cpu0_L2C WRITEBACK ACCESS:     284404  HIT:     279777  MISS:       4627
LLC TOTAL     ACCESS:     939626  HIT:     585626  MISS:     354000
LLC LOAD      ACCESS:     587466  HIT:     262866  MISS:     324600
LLC RFO       ACCESS:      92405  HIT:      63027  MISS:      29378
LLC PREFETCH  ACCESS:          0  HIT:          0  MISS:          0
LLC WRITEBACK ACCESS:     259506  HIT:     259506  MISS:          0
Heartbeat CPU 0 instructions: 66000001 cycles: 63493145 heartbeat IPC: 0.316615 cumulative IPC: 0.340759 (Simulation time: 1 hr 1 min 51 sec) 

Region of Interest Statistics
cpu0_DTLB TOTAL     ACCESS:    3445638  HIT:    3355936  MISS:      89702
cpu0_DTLB LOAD      ACCESS:    2868766  HIT:    2794154  MISS:      74612
cpu0_DTLB RFO       ACCESS:     576872  HIT:     561782  MISS:      15090
cpu0_DTLB PREFETCH  ACCESS:          0  HIT:          0  MISS:          0
cpu0_DTLB WRITEBACK ACCESS:          0  HIT:          0  MISS:          0
cpu0_ITLB TOTAL     ACCESS:    1177211  HIT:    1177211  MISS:          0
cpu0_ITLB LOAD      ACCESS:    1177211  HIT:    1177211  MISS:          0
cpu0_ITLB RFO       ACCESS:          0  HIT:          0  MISS:          0
cpu0_ITLB PREFETCH  ACCESS:          0  HIT:          0  MISS:          0
cpu0_ITLB WRITEBACK ACCESS:          0  HIT:          0  MISS:          0
cpu0_L1I TOTAL     ACCESS:      66796  HIT:      66745  MISS:         51
cpu0_L1I LOAD      ACCESS:      66796  HIT:      66745  MISS:         51
cpu0_L1I RFO       ACCESS:          0  HIT:          0  MISS:          0
cpu0_L1I PREFETCH  ACCESS:          0  HIT:          0  MISS:          0
cpu0_L1I WRITEBACK ACCESS:          0  HIT:          0  MISS:          0
cpu0_STLB TOTAL     ACCESS:      89702  HIT:      75948  MISS:      13754
cpu0_STLB LOAD      ACCESS:      74612  HIT:      61706  MISS:      12906
cpu0_STLB RFO       ACCESS:      15090  HIT:      14242  MISS:        848
cpu0_STLB PREFETCH  ACCESS:          0  HIT:          0  MISS:          0
cpu0_STLB WRITEBACK ACCESS:          0  HIT:          0  MISS:          0
cpu0_L1D TOTAL     ACCESS:    2738709  HIT:    1901955  MISS:     836754
cpu0_L1D LOAD      ACCESS:    2049796  HIT:    1315780  MISS:     734016
cpu0_L1D RFO       ACCESS:     675677  HIT:     573588  MISS:     102089
cpu0_L1D PREFETCH  ACCESS:          0  HIT:          0  MISS:          0
cpu0_L1D WRITEBACK ACCESS:          0  HIT:          0  MISS:          0
cpu0_L2C TOTAL     ACCESS:    1173403  HIT:     390035  MISS:     783368
cpu0_L2C LOAD      ACCESS:     734017  HIT:      56958  MISS:     677059
cpu0_L2C RFO       ACCESS:     102087  HIT:       1723  MISS:     100364
cpu0_L2C PREFETCH  ACCESS:          0  HIT:          0  MISS:          0
cpu0_L2C WRITEBACK ACCESS:     336650  HIT:     331012  MISS:       5638
LLC TOTAL     ACCESS:    1081406  HIT:     678367  MISS:     403039
LLC LOAD      ACCESS:     677043  HIT:     307736  MISS:     369307
LLC RFO       ACCESS:     100362  HIT:      66656  MISS:      33706
LLC PREFETCH  ACCESS:          0  HIT:          0  MISS:          0
LLC WRITEBACK ACCESS:     303694  HIT:     303694  MISS:          0
Heartbeat CPU 0 instructions: 68000000 cycles: 68896031 heartbeat IPC: 0.370172 cumulative IPC: 0.343794 (Simulation time: 1 hr 3 min 49 sec) 

Region of Interest Statistics
cpu0_DTLB TOTAL     ACCESS:    3876380  HIT:    3779297  MISS:      97083
cpu0_DTLB LOAD      ACCESS:    3210164  HIT:    3128368  MISS:      81796
cpu0_DTLB RFO       ACCESS:     666216  HIT:     650929  MISS:      15287
cpu0_DTLB PREFETCH  ACCESS:          0  HIT:          0  MISS:          0
cpu0_DTLB WRITEBACK ACCESS:          0  HIT:          0  MISS:          0
cpu0_ITLB TOTAL     ACCESS:    1381708  HIT:    1381708  MISS:          0
cpu0_ITLB LOAD      ACCESS:    1381708  HIT:    1381708  MISS:          0
cpu0_ITLB RFO       ACCESS:          0  HIT:          0  MISS:          0
cpu0_ITLB PREFETCH  ACCESS:          0  HIT:          0  MISS:          0
cpu0_ITLB WRITEBACK ACCESS:          0  HIT:          0  MISS:          0
cpu0_L1I TOTAL     ACCESS:      66805  HIT:      66754  MISS:         51
cpu0_L1I LOAD      ACCESS:      66805  HIT:      66754  MISS:         51
cpu0_L1I RFO       ACCESS:          0  HIT:          0  MISS:          0
cpu0_L1I PREFETCH  ACCESS:          0  HIT:          0  MISS:          0
cpu0_L1I WRITEBACK ACCESS:          0  HIT:          0  MISS:          0
cpu0_STLB TOTAL     ACCESS:      97083  HIT:      81186  MISS:      15897
cpu0_STLB LOAD      ACCESS:      81796  HIT:      66768  MISS:      15028
cpu0_STLB RFO       ACCESS:      15287  HIT:      14418  MISS:        869
cpu0_STLB PREFETCH  ACCESS:          0  HIT:          0  MISS:          0
cpu0_STLB WRITEBACK ACCESS:          0  HIT:          0  MISS:          0
cpu0_L1D TOTAL     ACCESS:    3106479  HIT:    2180726  MISS:     925753
cpu0_L1D LOAD      ACCESS:    2311046  HIT:    1489536  MISS:     821510
cpu0_L1D RFO       ACCESS:     780060  HIT:     676590  MISS:     103470
cpu0_L1D PREFETCH  ACCESS:          0  HIT:          0  MISS:          0
cpu0_L1D WRITEBACK ACCESS:          0  HIT:          0  MISS:          0
cpu0_L2C TOTAL     ACCESS:    1311718  HIT:     445122  MISS:     866596
cpu0_L2C LOAD      ACCESS:     821503  HIT:      63840  MISS:     757663
cpu0_L2C RFO       ACCESS:     103468  HIT:       1723  MISS:     101745
cpu0_L2C PREFETCH  ACCESS:          0  HIT:          0  MISS:          0
cpu0_L2C WRITEBACK ACCESS:     385974  HIT:     379147  MISS:       6827
LLC TOTAL     ACCESS:    1206810  HIT:     769348  MISS:     437462
LLC LOAD      ACCESS:     757645  HIT:     355260  MISS:     402385
LLC RFO       ACCESS:     101743  HIT:      66694  MISS:      35049
LLC PREFETCH  ACCESS:          0  HIT:          0  MISS:          0
LLC WRITEBACK ACCESS:     347061  HIT:     347061  MISS:          0
Heartbeat CPU 0 instructions: 70000000 cycles: 73962082 heartbeat IPC: 0.394785 cumulative IPC: 0.348292 (Simulation time: 1 hr 5 min 45 sec) 

Region of Interest Statistics
cpu0_DTLB TOTAL     ACCESS:    4179865  HIT:    4081360  MISS:      98505
cpu0_DTLB LOAD      ACCESS:    3486936  HIT:    3403732  MISS:      83204
cpu0_DTLB RFO       ACCESS:     692929  HIT:     677628  MISS:      15301
cpu0_DTLB PREFETCH  ACCESS:          0  HIT:          0  MISS:          0
cpu0_DTLB WRITEBACK ACCESS:          0  HIT:          0  MISS:          0
cpu0_ITLB TOTAL     ACCESS:    1557234  HIT:    1557234  MISS:          0
cpu0_ITLB LOAD      ACCESS:    1557234  HIT:    1557234  MISS:          0
cpu0_ITLB RFO       ACCESS:          0  HIT:          0  MISS:          0
cpu0_ITLB PREFETCH  ACCESS:          0  HIT:          0  MISS:          0
cpu0_ITLB WRITEBACK ACCESS:          0  HIT:          0  MISS:          0
cpu0_L1I TOTAL     ACCESS:      70333  HIT:      70281  MISS:         52
cpu0_L1I LOAD      ACCESS:      70333  HIT:      70281  MISS:         52
cpu0_L1I RFO       ACCESS:          0  HIT:          0  MISS:          0
cpu0_L1I PREFETCH  ACCESS:          0  HIT:          0  MISS:          0
cpu0_L1I WRITEBACK ACCESS:          0  HIT:          0  MISS:          0
cpu0_STLB TOTAL     ACCESS:      98505  HIT:      81689  MISS:      16816
cpu0_STLB LOAD      ACCESS:      83204  HIT:      67270  MISS:      15934
cpu0_STLB RFO       ACCESS:      15301  HIT:      14419  MISS:        882
cpu0_STLB PREFETCH  ACCESS:          0  HIT:          0  MISS:          0
cpu0_STLB WRITEBACK ACCESS:          0  HIT:          0  MISS:          0
cpu0_L1D TOTAL     ACCESS:    3318349  HIT:    2336773  MISS:     981576
cpu0_L1D LOAD      ACCESS:    2496949  HIT:    1620483  MISS:     876466
cpu0_L1D RFO       ACCESS:     805115  HIT:     700800  MISS:     104315
cpu0_L1D PREFETCH  ACCESS:          0  HIT:          0  MISS:          0
cpu0_L1D WRITEBACK ACCESS:          0  HIT:          0  MISS:          0
cpu0_L2C TOTAL     ACCESS:    1368467  HIT:     446059  MISS:     922408
cpu0_L2C LOAD      ACCESS:     876460  HIT:      63840  MISS:     812620
cpu0_L2C RFO       ACCESS:     104313  HIT:       1723  MISS:     102590
cpu0_L2C PREFETCH  ACCESS:          0  HIT:          0  MISS:          0
cpu0_L2C WRITEBACK ACCESS:     386899  HIT:     380070  MISS:       6829
LLC TOTAL     ACCESS:    1263621  HIT:     796716  MISS:     466905
LLC LOAD      ACCESS:     812602  HIT:     381614  MISS:     430988
LLC RFO       ACCESS:     102588  HIT:      66700  MISS:      35888
LLC PREFETCH  ACCESS:          0  HIT:          0  MISS:          0
LLC WRITEBACK ACCESS:     348062  HIT:     348062  MISS:          0
Heartbeat CPU 0 instructions: 72000004 cycles: 80702173 heartbeat IPC: 0.296732 cumulative IPC: 0.342876 (Simulation time: 1 hr 9 min 45 sec) 

Region of Interest Statistics
cpu0_DTLB TOTAL     ACCESS:    4689948  HIT:    4562530  MISS:     127418
cpu0_DTLB LOAD      ACCESS:    3904632  HIT:    3798949  MISS:     105683
cpu0_DTLB RFO       ACCESS:     785316  HIT:     763581  MISS:      21735
cpu0_DTLB PREFETCH  ACCESS:          0  HIT:          0  MISS:          0
cpu0_DTLB WRITEBACK ACCESS:          0  HIT:          0  MISS:          0
cpu0_ITLB TOTAL     ACCESS:    1704855  HIT:    1704855  MISS:          0
cpu0_ITLB LOAD      ACCESS:    1704855  HIT:    1704855  MISS:          0
cpu0_ITLB RFO       ACCESS:          0  HIT:          0  MISS:          0
cpu0_ITLB PREFETCH  ACCESS:          0  HIT:          0  MISS:          0
cpu0_ITLB WRITEBACK ACCESS:          0  HIT:          0  MISS:          0
cpu0_L1I TOTAL     ACCESS:     101062  HIT:     101010  MISS:         52
cpu0_L1I LOAD      ACCESS:     101062  HIT:     101010  MISS:         52
cpu0_L1I RFO       ACCESS:          0  HIT:          0  MISS:          0
cpu0_L1I PREFETCH  ACCESS:          0  HIT:          0  MISS:          0
cpu0_L1I WRITEBACK ACCESS:          0  HIT:          0  MISS:          0
cpu0_STLB TOTAL     ACCESS:     127418  HIT:     108851  MISS:      18567
cpu0_STLB LOAD      ACCESS:     105683  HIT:      88175  MISS:      17508
cpu0_STLB RFO       ACCESS:      21735  HIT:      20676  MISS:       1059
cpu0_STLB PREFETCH  ACCESS:          0  HIT:          0  MISS:          0
cpu0_STLB WRITEBACK ACCESS:          0  HIT:          0  MISS:          0
cpu0_L1D TOTAL     ACCESS:    3771306  HIT:    2651835  MISS:    1119471
cpu0_L1D LOAD      ACCESS:    2840996  HIT:    1846107  MISS:     994889
cpu0_L1D RFO       ACCESS:     912384  HIT:     788670  MISS:     123714
cpu0_L1D PREFETCH  ACCESS:          0  HIT:          0  MISS:          0
cpu0_L1D WRITEBACK ACCESS:          0  HIT:          0  MISS:          0
cpu0_L2C TOTAL     ACCESS:    1555652  HIT:     506654  MISS:    1048998
cpu0_L2C LOAD      ACCESS:     994877  HIT:      74890  MISS:     919987
cpu0_L2C RFO       ACCESS:     123711  HIT:       2576  MISS:     121135
cpu0_L2C PREFETCH  ACCESS:          0  HIT:          0  MISS:          0
cpu0_L2C WRITEBACK ACCESS:     436196  HIT:     428730  MISS:       7466
LLC TOTAL     ACCESS:    1432748  HIT:     900977  MISS:     531771
LLC LOAD      ACCESS:     919966  HIT:     433926  MISS:     486040
LLC RFO       ACCESS:     121132  HIT:      75434  MISS:      45698
LLC PREFETCH  ACCESS:          0  HIT:          0  MISS:          0
LLC WRITEBACK ACCESS:     391240  HIT:     391240  MISS:          0
Heartbeat CPU 0 instructions: 74000003 cycles: 86390154 heartbeat IPC: 0.351618 cumulative IPC: 0.343588 (Simulation time: 1 hr 14 min 18 sec) 

Region of Interest Statistics
cpu0_DTLB TOTAL     ACCESS:    5120405  HIT:    4988297  MISS:     132108
cpu0_DTLB LOAD      ACCESS:    4284319  HIT:    4174665  MISS:     109654
cpu0_DTLB RFO       ACCESS:     836086  HIT:     813632  MISS:      22454
cpu0_DTLB PREFETCH  ACCESS:          0  HIT:          0  MISS:          0
cpu0_DTLB WRITEBACK ACCESS:          0  HIT:          0  MISS:          0
cpu0_ITLB TOTAL     ACCESS:    1788978  HIT:    1788978  MISS:          0
cpu0_ITLB LOAD      ACCESS:    1788978  HIT:    1788978  MISS:          0
cpu0_ITLB RFO       ACCESS:          0  HIT:          0  MISS:          0
cpu0_ITLB PREFETCH  ACCESS:          0  HIT:          0  MISS:          0
cpu0_ITLB WRITEBACK ACCESS:          0  HIT:          0  MISS:          0
cpu0_L1I TOTAL     ACCESS:     101395  HIT:     101337  MISS:         58
cpu0_L1I LOAD      ACCESS:     101395  HIT:     101337  MISS:         58
cpu0_L1I RFO       ACCESS:          0  HIT:          0  MISS:          0
cpu0_L1I PREFETCH  ACCESS:          0  HIT:          0  MISS:          0
cpu0_L1I WRITEBACK ACCESS:          0  HIT:          0  MISS:          0
cpu0_STLB TOTAL     ACCESS:     132108  HIT:     112028  MISS:      20080
cpu0_STLB LOAD      ACCESS:     109654  HIT:      90812  MISS:      18842
cpu0_STLB RFO       ACCESS:      22454  HIT:      21216  MISS:       1238
cpu0_STLB PREFETCH  ACCESS:          0  HIT:          0  MISS:          0
cpu0_STLB WRITEBACK ACCESS:          0  HIT:          0  MISS:          0
cpu0_L1D TOTAL     ACCESS:    4072100  HIT:    2836351  MISS:    1235749
cpu0_L1D LOAD      ACCESS:    3063873  HIT:    1980891  MISS:    1082982
cpu0_L1D RFO       ACCESS:     988868  HIT:     837019  MISS:     151849
cpu0_L1D PREFETCH  ACCESS:          0  HIT:          0  MISS:          0
cpu0_L1D WRITEBACK ACCESS:          0  HIT:          0  MISS:          0
cpu0_L2C TOTAL     ACCESS:    1724207  HIT:     566445  MISS:    1157762
cpu0_L2C LOAD      ACCESS:    1082974  HIT:      83001  MISS:     999973
cpu0_L2C RFO       ACCESS:     151846  HIT:       2588  MISS:     149258
cpu0_L2C PREFETCH  ACCESS:          0  HIT:          0  MISS:          0
cpu0_L2C WRITEBACK ACCESS:     488469  HIT:     480381  MISS:       8088
LLC TOTAL     ACCESS:    1590987  HIT:     996379  MISS:     594608
LLC LOAD      ACCESS:     999952  HIT:     456791  MISS:     543161
LLC RFO       ACCESS:     149255  HIT:      97845  MISS:      51410
LLC PREFETCH  ACCESS:          0  HIT:          0  MISS:          0
LLC WRITEBACK ACCESS:     441337  HIT:     441337  MISS:          0
Heartbeat CPU 0 instructions: 76000000 cycles: 93915338 heartbeat IPC: 0.265774 cumulative IPC: 0.33602 (Simulation time: 1 hr 17 min 21 sec) 

Region of Interest Statistics
cpu0_DTLB TOTAL     ACCESS:    5632641  HIT:    5487599  MISS:     145042
cpu0_DTLB LOAD      ACCESS:    4666360  HIT:    4544155  MISS:     122205
cpu0_DTLB RFO       ACCESS:     966281  HIT:     943444  MISS:      22837
cpu0_DTLB PREFETCH  ACCESS:          0  HIT:          0  MISS:          0
cpu0_DTLB WRITEBACK ACCESS:          0  HIT:          0  MISS:          0
cpu0_ITLB TOTAL     ACCESS:    1971044  HIT:    1971044  MISS:          0
cpu0_ITLB LOAD      ACCESS:    1971044  HIT:    1971044  MISS:          0
cpu0_ITLB RFO       ACCESS:          0  HIT:          0  MISS:          0
cpu0_ITLB PREFETCH  ACCESS:          0  HIT:          0  MISS:          0
cpu0_ITLB WRITEBACK ACCESS:          0  HIT:          0  MISS:          0
cpu0_L1I TOTAL     ACCESS:     101425  HIT:     101367  MISS:         58
cpu0_L1I LOAD      ACCESS:     101425  HIT:     101367  MISS:         58
cpu0_L1I RFO       ACCESS:          0  HIT:          0  MISS:          0
cpu0_L1I PREFETCH  ACCESS:          0  HIT:          0  MISS:          0
cpu0_L1I WRITEBACK ACCESS:          0  HIT:          0  MISS:          0
cpu0_STLB TOTAL     ACCESS:     145042  HIT:     121340  MISS:      23702
cpu0_STLB LOAD      ACCESS:     122205  HIT:      99753  MISS:      22452
cpu0_STLB RFO       ACCESS:      22837  HIT:      21587  MISS:       1250
cpu0_STLB PREFETCH  ACCESS:          0  HIT:          0  MISS:          0
cpu0_STLB WRITEBACK ACCESS:          0  HIT:          0  MISS:          0
cpu0_L1D TOTAL     ACCESS:    4522611  HIT:    3142826  MISS:    1379785
cpu0_L1D LOAD      ACCESS:    3359816  HIT:    2136252  MISS:    1223564
cpu0_L1D RFO       ACCESS:    1139853  HIT:     984793  MISS:     155060
cpu0_L1D PREFETCH  ACCESS:          0  HIT:          0  MISS:          0
cpu0_L1D WRITEBACK ACCESS:          0  HIT:          0  MISS:          0
cpu0_L2C TOTAL     ACCESS:    1958774  HIT:     667574  MISS:    1291200
cpu0_L2C LOAD      ACCESS:    1223534  HIT:      95570  MISS:    1127964
cpu0_L2C RFO       ACCESS:     155057  HIT:       2588  MISS:     152469
cpu0_L2C PREFETCH  ACCESS:          0  HIT:          0  MISS:          0
cpu0_L2C WRITEBACK ACCESS:     579022  HIT:     568794  MISS:      10228
LLC TOTAL     ACCESS:    1801493  HIT:    1143920  MISS:     657573
LLC LOAD      ACCESS:    1127939  HIT:     522632  MISS:     605307
LLC RFO       ACCESS:     152466  HIT:     100242  MISS:      52224
LLC PREFETCH  ACCESS:          0  HIT:          0  MISS:          0
LLC WRITEBACK ACCESS:     520549  HIT:     520549  MISS:          0
Heartbeat CPU 0 instructions: 78000002 cycles: 96584542 heartbeat IPC: 0.749288 cumulative IPC: 0.349801 (Simulation time: 1 hr 18 min 27 sec) 

Region of Interest Statistics
cpu0_DTLB TOTAL     ACCESS:    5995693  HIT:    5850278  MISS:     145415
cpu0_DTLB LOAD      ACCESS:    4971533  HIT:    4848983  MISS:     122550
cpu0_DTLB RFO       ACCESS:    1024160  HIT:    1001295  MISS:      22865
cpu0_DTLB PREFETCH  ACCESS:          0  HIT:          0  MISS:          0
cpu0_DTLB WRITEBACK ACCESS:          0  HIT:          0  MISS:          0
cpu0_ITLB TOTAL     ACCESS:    2169092  HIT:    2169092  MISS:          0
cpu0_ITLB LOAD      ACCESS:    2169092  HIT:    2169092  MISS:          0
cpu0_ITLB RFO       ACCESS:          0  HIT:          0  MISS:          0
cpu0_ITLB PREFETCH  ACCESS:          0  HIT:          0  MISS:          0
cpu0_ITLB WRITEBACK ACCESS:          0  HIT:          0  MISS:          0
cpu0_L1I TOTAL     ACCESS:     101425  HIT:     101367  MISS:         58
cpu0_L1I LOAD      ACCESS:     101425  HIT:     101367  MISS:         58
cpu0_L1I RFO       ACCESS:          0  HIT:          0  MISS:          0
cpu0_L1I PREFETCH  ACCESS:          0  HIT:          0  MISS:          0
cpu0_L1I WRITEBACK ACCESS:          0  HIT:          0  MISS:          0
cpu0_STLB TOTAL     ACCESS:     145415  HIT:     121627  MISS:      23788
cpu0_STLB LOAD      ACCESS:     122550  HIT:     100040  MISS:      22510
cpu0_STLB RFO       ACCESS:      22865  HIT:      21587  MISS:       1278
cpu0_STLB PREFETCH  ACCESS:          0  HIT:          0  MISS:          0
cpu0_STLB WRITEBACK ACCESS:          0  HIT:          0  MISS:          0
cpu0_L1D TOTAL     ACCESS:    4783660  HIT:    3379947  MISS:    1403713
cpu0_L1D LOAD      ACCESS:    3567188  HIT:    2321517  MISS:    1245671
cpu0_L1D RFO       ACCESS:    1193444  HIT:    1036575  MISS:     156869
cpu0_L1D PREFETCH  ACCESS:          0  HIT:          0  MISS:          0
cpu0_L1D WRITEBACK ACCESS:          0  HIT:          0  MISS:          0
cpu0_L2C TOTAL     ACCESS:    1984539  HIT:     669418  MISS:    1315121
cpu0_L2C LOAD      ACCESS:    1245641  HIT:      95570  MISS:    1150071
cpu0_L2C RFO       ACCESS:     156866  HIT:       2588  MISS:     154278
cpu0_L2C PREFETCH  ACCESS:          0  HIT:          0  MISS:          0
cpu0_L2C WRITEBACK ACCESS:     580859  HIT:     570630  MISS:      10229
LLC TOTAL     ACCESS:    1827365  HIT:    1165503  MISS:     661862
LLC LOAD      ACCESS:    1150046  HIT:     542222  MISS:     607824
LLC RFO       ACCESS:     154275  HIT:     100279  MISS:      53996
LLC PREFETCH  ACCESS:          0  HIT:          0  MISS:          0
LLC WRITEBACK ACCESS:     522501  HIT:     522501  MISS:          0
Heartbeat CPU 0 instructions: 80000000 cycles: 103871941 heartbeat IPC: 0.274446 cumulative IPC: 0.343513 (Simulation time: 1 hr 21 min 54 sec) 

Region of Interest Statistics
cpu0_DTLB TOTAL     ACCESS:    6299066  HIT:    6150110  MISS:     148956
cpu0_DTLB LOAD      ACCESS:    5227006  HIT:    5101077  MISS:     125929
cpu0_DTLB RFO       ACCESS:    1072060  HIT:    1049033  MISS:      23027
cpu0_DTLB PREFETCH  ACCESS:          0  HIT:          0  MISS:          0
cpu0_DTLB WRITEBACK ACCESS:          0  HIT:          0  MISS:          0
cpu0_ITLB TOTAL     ACCESS:    2298554  HIT:    2298554  MISS:          0
cpu0_ITLB LOAD      ACCESS:    2298554  HIT:    2298554  MISS:          0
cpu0_ITLB RFO       ACCESS:          0  HIT:          0  MISS:          0
cpu0_ITLB PREFETCH  ACCESS:          0  HIT:          0  MISS:          0
cpu0_ITLB WRITEBACK ACCESS:          0  HIT:          0  MISS:          0
cpu0_L1I TOTAL     ACCESS:     108368  HIT:     108309  MISS:         59
cpu0_L1I LOAD      ACCESS:     108368  HIT:     108309  MISS:         59
cpu0_L1I RFO       ACCESS:          0  HIT:          0  MISS:          0
cpu0_L1I PREFETCH  ACCESS:          0  HIT:          0  MISS:          0
cpu0_L1I WRITEBACK ACCESS:          0  HIT:          0  MISS:          0
cpu0_STLB TOTAL     ACCESS:     148956  HIT:     123224  MISS:      25732
cpu0_STLB LOAD      ACCESS:     125929  HIT:     101634  MISS:      24295
cpu0_STLB RFO       ACCESS:      23027  HIT:      21590  MISS:       1437
cpu0_STLB PREFETCH  ACCESS:          0  HIT:          0  MISS:          0
cpu0_STLB WRITEBACK ACCESS:          0  HIT:          0  MISS:          0
cpu0_L1D TOTAL     ACCESS:    5011869  HIT:    3515988  MISS:    1495881
cpu0_L1D LOAD      ACCESS:    3761471  HIT:    2433614  MISS:    1327857
cpu0_L1D RFO       ACCESS:    1225437  HIT:    1058615  MISS:     166822
cpu0_L1D PREFETCH  ACCESS:          0  HIT:          0  MISS:          0
cpu0_L1D WRITEBACK ACCESS:          0  HIT:          0  MISS:          0
cpu0_L2C TOTAL     ACCESS:    2090043  HIT:     684795  MISS:    1405248
cpu0_L2C LOAD      ACCESS:    1327828  HIT:      97641  MISS:    1230187
cpu0_L2C RFO       ACCESS:     166819  HIT:       2588  MISS:     164231
cpu0_L2C PREFETCH  ACCESS:          0  HIT:          0  MISS:          0
cpu0_L2C WRITEBACK ACCESS:     594194  HIT:     583924  MISS:      10270
LLC TOTAL     ACCESS:    1929647  HIT:    1206385  MISS:     723262
LLC LOAD      ACCESS:    1230162  HIT:     570889  MISS:     659273
LLC RFO       ACCESS:     164228  HIT:     100286  MISS:      63942
LLC PREFETCH  ACCESS:          0  HIT:          0  MISS:          0
LLC WRITEBACK ACCESS:     534697  HIT:     534697  MISS:          0
Heartbeat CPU 0 instructions: 82000001 cycles: 109831766 heartbeat IPC: 0.33558 cumulative IPC: 0.343007 (Simulation time: 1 hr 26 min 34 sec) 

Region of Interest Statistics
cpu0_DTLB TOTAL     ACCESS:    6888328  HIT:    6710195  MISS:     178133
cpu0_DTLB LOAD      ACCESS:    5730031  HIT:    5581827  MISS:     148204
cpu0_DTLB RFO       ACCESS:    1158297  HIT:    1128368  MISS:      29929
cpu0_DTLB PREFETCH  ACCESS:          0  HIT:          0  MISS:          0
cpu0_DTLB WRITEBACK ACCESS:          0  HIT:          0  MISS:          0
cpu0_ITLB TOTAL     ACCESS:    2425369  HIT:    2425369  MISS:          0
cpu0_ITLB LOAD      ACCESS:    2425369  HIT:    2425369  MISS:          0
cpu0_ITLB RFO       ACCESS:          0  HIT:          0  MISS:          0
cpu0_ITLB PREFETCH  ACCESS:          0  HIT:          0  MISS:          0
cpu0_ITLB WRITEBACK ACCESS:          0  HIT:          0  MISS:          0
cpu0_L1I TOTAL     ACCESS:     138465  HIT:     138398  MISS:         67
cpu0_L1I LOAD      ACCESS:     138465  HIT:     138398  MISS:         67
cpu0_L1I RFO       ACCESS:          0  HIT:          0  MISS:          0
cpu0_L1I PREFETCH  ACCESS:          0  HIT:          0  MISS:          0
cpu0_L1I WRITEBACK ACCESS:          0  HIT:          0  MISS:          0
cpu0_STLB TOTAL     ACCESS:     178133  HIT:     150316  MISS:      27817
cpu0_STLB LOAD      ACCESS:     148204  HIT:     122053  MISS:      26151
cpu0_STLB RFO       ACCESS:      29929  HIT:      28263  MISS:       1666
cpu0_STLB PREFETCH  ACCESS:          0  HIT:          0  MISS:          0
cpu0_STLB WRITEBACK ACCESS:          0  HIT:          0  MISS:          0
cpu0_L1D TOTAL     ACCESS:    5532920  HIT:    3879891  MISS:    1653029
cpu0_L1D LOAD      ACCESS:    4125560  HIT:    2669024  MISS:    1456536
cpu0_L1D RFO       ACCESS:    1380506  HIT:    1185300  MISS:     195206
cpu0_L1D PREFETCH  ACCESS:          0  HIT:          0  MISS:          0
cpu0_L1D WRITEBACK ACCESS:          0  HIT:          0  MISS:          0
cpu0_L2C TOTAL     ACCESS:    2322102  HIT:     770048  MISS:    1552054
cpu0_L2C LOAD      ACCESS:    1456509  HIT:     107506  MISS:    1349003
cpu0_L2C RFO       ACCESS:     195201  HIT:       4231  MISS:     190970
cpu0_L2C PREFETCH  ACCESS:          0  HIT:          0  MISS:          0
cpu0_L2C WRITEBACK ACCESS:     669105  HIT:     657636  MISS:      11469
LLC TOTAL     ACCESS:    2143879  HIT:    1345596  MISS:     798283
LLC LOAD      ACCESS:    1348976  HIT:     618593  MISS:     730383
LLC RFO       ACCESS:     190965  HIT:     123117  MISS:      67848
LLC PREFETCH  ACCESS:          0  HIT:          0  MISS:          0
LLC WRITEBACK ACCESS:     603326  HIT:     603326  MISS:          0
Heartbeat CPU 0 instructions: 84000002 cycles: 114739156 heartbeat IPC: 0.407549 cumulative IPC: 0.346232 (Simulation time: 1 hr 29 min 36 sec) 

Region of Interest Statistics
cpu0_DTLB TOTAL     ACCESS:    7302653  HIT:    7118845  MISS:     183808
cpu0_DTLB LOAD      ACCESS:    6065879  HIT:    5912475  MISS:     153404
cpu0_DTLB RFO       ACCESS:    1236774  HIT:    1206370  MISS:      30404
cpu0_DTLB PREFETCH  ACCESS:          0  HIT:          0  MISS:          0
cpu0_DTLB WRITEBACK ACCESS:          0  HIT:          0  MISS:          0
cpu0_ITLB TOTAL     ACCESS:    2549260  HIT:    2549260  MISS:          0
cpu0_ITLB LOAD      ACCESS:    2549260  HIT:    2549260  MISS:          0
cpu0_ITLB RFO       ACCESS:          0  HIT:          0  MISS:          0
cpu0_ITLB PREFETCH  ACCESS:          0  HIT:          0  MISS:          0
cpu0_ITLB WRITEBACK ACCESS:          0  HIT:          0  MISS:          0
cpu0_L1I TOTAL     ACCESS:     138698  HIT:     138626  MISS:         72
cpu0_L1I LOAD      ACCESS:     138698  HIT:     138626  MISS:         72
cpu0_L1I RFO       ACCESS:          0  HIT:          0  MISS:          0
cpu0_L1I PREFETCH  ACCESS:          0  HIT:          0  MISS:          0
cpu0_L1I WRITEBACK ACCESS:          0  HIT:          0  MISS:          0
cpu0_STLB TOTAL     ACCESS:     183808  HIT:     155081  MISS:      28727
cpu0_STLB LOAD      ACCESS:     153404  HIT:     126435  MISS:      26969
cpu0_STLB RFO       ACCESS:      30404  HIT:      28646  MISS:       1758
cpu0_STLB PREFETCH  ACCESS:          0  HIT:          0  MISS:          0
cpu0_STLB WRITEBACK ACCESS:          0  HIT:          0  MISS:          0
cpu0_L1D TOTAL     ACCESS:    5813467  HIT:    4075971  MISS:    1737496
cpu0_L1D LOAD      ACCESS:    4335697  HIT:    2809746  MISS:    1525951
cpu0_L1D RFO       ACCESS:    1450012  HIT:    1239817  MISS:     210195
cpu0_L1D PREFETCH  ACCESS:          0  HIT:          0  MISS:          0
cpu0_L1D WRITEBACK ACCESS:          0  HIT:          0  MISS:          0
cpu0_L2C TOTAL     ACCESS:    2441514  HIT:     814720  MISS:    1626794
cpu0_L2C LOAD      ACCESS:    1525923  HIT:     117620  MISS:    1408303
cpu0_L2C RFO       ACCESS:     210190  HIT:       4231  MISS:     205959
cpu0_L2C PREFETCH  ACCESS:          0  HIT:          0  MISS:          0
cpu0_L2C WRITEBACK ACCESS:     704051  HIT:     692167  MISS:      11884
LLC TOTAL     ACCESS:    2250160  HIT:    1419646  MISS:     830514
LLC LOAD      ACCESS:    1408276  HIT:     650161  MISS:     758115
LLC RFO       ACCESS:     205954  HIT:     133610  MISS:      72344
LLC PREFETCH  ACCESS:          0  HIT:          0  MISS:          0
LLC WRITEBACK ACCESS:     635282  HIT:     635282  MISS:          0
Heartbeat CPU 0 instructions: 86000002 cycles: 121870219 heartbeat IPC: 0.280463 cumulative IPC: 0.341779 (Simulation time: 1 hr 32 min 16 sec) 

Region of Interest Statistics
cpu0_DTLB TOTAL     ACCESS:    7766198  HIT:    7571881  MISS:     194317
cpu0_DTLB LOAD      ACCESS:    6427304  HIT:    6263618  MISS:     163686
cpu0_DTLB RFO       ACCESS:    1338894  HIT:    1308263  MISS:      30631
cpu0_DTLB PREFETCH  ACCESS:          0  HIT:          0  MISS:          0
cpu0_DTLB WRITEBACK ACCESS:          0  HIT:          0  MISS:          0
cpu0_ITLB TOTAL     ACCESS:    2756452  HIT:    2756452  MISS:          0
cpu0_ITLB LOAD      ACCESS:    2756452  HIT:    2756452  MISS:          0
cpu0_ITLB RFO       ACCESS:          0  HIT:          0  MISS:          0
cpu0_ITLB PREFETCH  ACCESS:          0  HIT:          0  MISS:          0
cpu0_ITLB WRITEBACK ACCESS:          0  HIT:          0  MISS:          0
cpu0_L1I TOTAL     ACCESS:     138707  HIT:     138635  MISS:         72
cpu0_L1I LOAD      ACCESS:     138707  HIT:     138635  MISS:         72
cpu0_L1I RFO       ACCESS:          0  HIT:          0  MISS:          0
cpu0_L1I PREFETCH  ACCESS:          0  HIT:          0  MISS:          0
cpu0_L1I WRITEBACK ACCESS:          0  HIT:          0  MISS:          0
cpu0_STLB TOTAL     ACCESS:     194317  HIT:     162471  MISS:      31846
cpu0_STLB LOAD      ACCESS:     163686  HIT:     133613  MISS:      30073
cpu0_STLB RFO       ACCESS:      30631  HIT:      28858  MISS:       1773
cpu0_STLB PREFETCH  ACCESS:          0  HIT:          0  MISS:          0
cpu0_STLB WRITEBACK ACCESS:          0  HIT:          0  MISS:          0
cpu0_L1D TOTAL     ACCESS:    6230315  HIT:    4368817  MISS:    1861498
cpu0_L1D LOAD      ACCESS:    4621145  HIT:    2972351  MISS:    1648794
cpu0_L1D RFO       ACCESS:    1578328  HIT:    1367179  MISS:     211149
cpu0_L1D PREFETCH  ACCESS:          0  HIT:          0  MISS:          0
cpu0_L1D WRITEBACK ACCESS:          0  HIT:          0  MISS:          0
cpu0_L2C TOTAL     ACCESS:    2639810  HIT:     897738  MISS:    1742072
cpu0_L2C LOAD      ACCESS:    1648751  HIT:     128103  MISS:    1520648
cpu0_L2C RFO       ACCESS:     211144  HIT:       4231  MISS:     206913
cpu0_L2C PREFETCH  ACCESS:          0  HIT:          0  MISS:          0
cpu0_L2C WRITEBACK ACCESS:     778360  HIT:     764572  MISS:      13788
LLC TOTAL     ACCESS:    2427991  HIT:    1542988  MISS:     885003
LLC LOAD      ACCESS:    1520617  HIT:     708952  MISS:     811665
LLC RFO       ACCESS:     206908  HIT:     133627  MISS:      73281
LLC PREFETCH  ACCESS:          0  HIT:          0  MISS:          0
LLC WRITEBACK ACCESS:     699743  HIT:     699743  MISS:          0
Heartbeat CPU 0 instructions: 88000000 cycles: 125010237 heartbeat IPC: 0.636938 cumulative IPC: 0.350324 (Simulation time: 1 hr 33 min 38 sec) 

Region of Interest Statistics
cpu0_DTLB TOTAL     ACCESS:    8094150  HIT:    7898981  MISS:     195169
cpu0_DTLB LOAD      ACCESS:    6715084  HIT:    6550567  MISS:     164517
cpu0_DTLB RFO       ACCESS:    1379066  HIT:    1348414  MISS:      30652
cpu0_DTLB PREFETCH  ACCESS:          0  HIT:          0  MISS:          0
cpu0_DTLB WRITEBACK ACCESS:          0  HIT:          0  MISS:          0
cpu0_ITLB TOTAL     ACCESS:    2935580  HIT:    2935580  MISS:          0
cpu0_ITLB LOAD      ACCESS:    2935580  HIT:    2935580  MISS:          0
cpu0_ITLB RFO       ACCESS:          0  HIT:          0  MISS:          0
cpu0_ITLB PREFETCH  ACCESS:          0  HIT:          0  MISS:          0
cpu0_ITLB WRITEBACK ACCESS:          0  HIT:          0  MISS:          0
cpu0_L1I TOTAL     ACCESS:     138767  HIT:     138691  MISS:         76
cpu0_L1I LOAD      ACCESS:     138767  HIT:     138691  MISS:         76
cpu0_L1I RFO       ACCESS:          0  HIT:          0  MISS:          0
cpu0_L1I PREFETCH  ACCESS:          0  HIT:          0  MISS:          0
cpu0_L1I WRITEBACK ACCESS:          0  HIT:          0  MISS:          0
cpu0_STLB TOTAL     ACCESS:     195169  HIT:     162855  MISS:      32314
cpu0_STLB LOAD      ACCESS:     164517  HIT:     133996  MISS:      30521
cpu0_STLB RFO       ACCESS:      30652  HIT:      28859  MISS:       1793
cpu0_STLB PREFETCH  ACCESS:          0  HIT:          0  MISS:          0
cpu0_STLB WRITEBACK ACCESS:          0  HIT:          0  MISS:          0
cpu0_L1D TOTAL     ACCESS:    6455162  HIT:    4558443  MISS:    1896719
cpu0_L1D LOAD      ACCESS:    4808098  HIT:    3125373  MISS:    1682725
cpu0_L1D RFO       ACCESS:    1615765  HIT:    1403349  MISS:     212416
cpu0_L1D PREFETCH  ACCESS:          0  HIT:          0  MISS:          0
cpu0_L1D WRITEBACK ACCESS:          0  HIT:          0  MISS:          0
cpu0_L2C TOTAL     ACCESS:    2676371  HIT:     899089  MISS:    1777282
cpu0_L2C LOAD      ACCESS:    1682686  HIT:     128103  MISS:    1554583
cpu0_L2C RFO       ACCESS:     212411  HIT:       4231  MISS:     208180
cpu0_L2C PREFETCH  ACCESS:          0  HIT:          0  MISS:          0
cpu0_L2C WRITEBACK ACCESS:     779696  HIT:     765907  MISS:      13789
LLC TOTAL     ACCESS:    2464602  HIT:    1566818  MISS:     897784
LLC LOAD      ACCESS:    1554552  HIT:     731350  MISS:     823202
LLC RFO       ACCESS:     208175  HIT:     133651  MISS:      74524
LLC PREFETCH  ACCESS:          0  HIT:          0  MISS:          0
LLC WRITEBACK ACCESS:     701145  HIT:     701145  MISS:          0
Heartbeat CPU 0 instructions: 90000001 cycles: 133143964 heartbeat IPC: 0.24589 cumulative IPC: 0.343039 (Simulation time: 1 hr 37 min 36 sec) 

Region of Interest Statistics
cpu0_DTLB TOTAL     ACCESS:    8527077  HIT:    8303999  MISS:     223078
cpu0_DTLB LOAD      ACCESS:    7069958  HIT:    6883569  MISS:     186389
cpu0_DTLB RFO       ACCESS:    1457119  HIT:    1420430  MISS:      36689
cpu0_DTLB PREFETCH  ACCESS:          0  HIT:          0  MISS:          0
cpu0_DTLB WRITEBACK ACCESS:          0  HIT:          0  MISS:          0
cpu0_ITLB TOTAL     ACCESS:    3080946  HIT:    3080946  MISS:          0
cpu0_ITLB LOAD      ACCESS:    3080946  HIT:    3080946  MISS:          0
cpu0_ITLB RFO       ACCESS:          0  HIT:          0  MISS:          0
cpu0_ITLB PREFETCH  ACCESS:          0  HIT:          0  MISS:          0
cpu0_ITLB WRITEBACK ACCESS:          0  HIT:          0  MISS:          0
cpu0_L1I TOTAL     ACCESS:     149348  HIT:     149269  MISS:         79
cpu0_L1I LOAD      ACCESS:     149348  HIT:     149269  MISS:         79
cpu0_L1I RFO       ACCESS:          0  HIT:          0  MISS:          0
cpu0_L1I PREFETCH  ACCESS:          0  HIT:          0  MISS:          0
cpu0_L1I WRITEBACK ACCESS:          0  HIT:          0  MISS:          0
cpu0_STLB TOTAL     ACCESS:     223078  HIT:     188785  MISS:      34293
cpu0_STLB LOAD      ACCESS:     186389  HIT:     154076  MISS:      32313
cpu0_STLB RFO       ACCESS:      36689  HIT:      34709  MISS:       1980
cpu0_STLB PREFETCH  ACCESS:          0  HIT:          0  MISS:          0
cpu0_STLB WRITEBACK ACCESS:          0  HIT:          0  MISS:          0
cpu0_L1D TOTAL     ACCESS:    6841115  HIT:    4804143  MISS:    2036972
cpu0_L1D LOAD      ACCESS:    5116109  HIT:    3311343  MISS:    1804766
cpu0_L1D RFO       ACCESS:    1691828  HIT:    1461259  MISS:     230569
cpu0_L1D PREFETCH  ACCESS:          0  HIT:          0  MISS:          0
cpu0_L1D WRITEBACK ACCESS:          0  HIT:          0  MISS:          0
cpu0_L2C TOTAL     ACCESS:    2856311  HIT:     949977  MISS:    1906334
cpu0_L2C LOAD      ACCESS:    1804725  HIT:     138980  MISS:    1665745
cpu0_L2C RFO       ACCESS:     230563  HIT:       5081  MISS:     225482
cpu0_L2C PREFETCH  ACCESS:          0  HIT:          0  MISS:          0
cpu0_L2C WRITEBACK ACCESS:     819386  HIT:     805043  MISS:      14343
LLC TOTAL     ACCESS:    2626901  HIT:    1658046  MISS:     968855
LLC LOAD      ACCESS:    1665712  HIT:     781311  MISS:     884401
LLC RFO       ACCESS:     225476  HIT:     141084  MISS:      84392
LLC PREFETCH  ACCESS:          0  HIT:          0  MISS:          0
LLC WRITEBACK ACCESS:     734949  HIT:     734949  MISS:          0
Heartbeat CPU 0 instructions: 92000002 cycles: 138968709 heartbeat IPC: 0.343363 cumulative IPC: 0.343054 (Simulation time: 1 hr 41 min 54 sec) 

Region of Interest Statistics
cpu0_DTLB TOTAL     ACCESS:    9014299  HIT:    8785344  MISS:     228955
cpu0_DTLB LOAD      ACCESS:    7507646  HIT:    7316432  MISS:     191214
cpu0_DTLB RFO       ACCESS:    1506653  HIT:    1468912  MISS:      37741
cpu0_DTLB PREFETCH  ACCESS:          0  HIT:          0  MISS:          0
cpu0_DTLB WRITEBACK ACCESS:          0  HIT:          0  MISS:          0
cpu0_ITLB TOTAL     ACCESS:    3199662  HIT:    3199662  MISS:          0
cpu0_ITLB LOAD      ACCESS:    3199662  HIT:    3199662  MISS:          0
cpu0_ITLB RFO       ACCESS:          0  HIT:          0  MISS:          0
cpu0_ITLB PREFETCH  ACCESS:          0  HIT:          0  MISS:          0
cpu0_ITLB WRITEBACK ACCESS:          0  HIT:          0  MISS:          0
cpu0_L1I TOTAL     ACCESS:     167997  HIT:     167915  MISS:         82
cpu0_L1I LOAD      ACCESS:     167997  HIT:     167915  MISS:         82
cpu0_L1I RFO       ACCESS:          0  HIT:          0  MISS:          0
cpu0_L1I PREFETCH  ACCESS:          0  HIT:          0  MISS:          0
cpu0_L1I WRITEBACK ACCESS:          0  HIT:          0  MISS:          0
cpu0_STLB TOTAL     ACCESS:     228955  HIT:     192971  MISS:      35984
cpu0_STLB LOAD      ACCESS:     191214  HIT:     157310  MISS:      33904
cpu0_STLB RFO       ACCESS:      37741  HIT:      35661  MISS:       2080
cpu0_STLB PREFETCH  ACCESS:          0  HIT:          0  MISS:          0
cpu0_STLB WRITEBACK ACCESS:          0  HIT:          0  MISS:          0
cpu0_L1D TOTAL     ACCESS:    7217016  HIT:    5062324  MISS:    2154692
cpu0_L1D LOAD      ACCESS:    5389198  HIT:    3490804  MISS:    1898394
cpu0_L1D RFO       ACCESS:    1793046  HIT:    1538442  MISS:     254604
cpu0_L1D PREFETCH  ACCESS:          0  HIT:          0  MISS:          0
cpu0_L1D WRITEBACK ACCESS:          0  HIT:          0  MISS:          0
cpu0_L2C TOTAL     ACCESS:    3030825  HIT:    1012028  MISS:    2018797
cpu0_L2C LOAD      ACCESS:    1898354  HIT:     144929  MISS:    1753425
cpu0_L2C RFO       ACCESS:     254598  HIT:       5089  MISS:     249509
cpu0_L2C PREFETCH  ACCESS:          0  HIT:          0  MISS:          0
cpu0_L2C WRITEBACK ACCESS:     876179  HIT:     861118  MISS:      15061
LLC TOTAL     ACCESS:    2793877  HIT:    1760757  MISS:    1033120
LLC LOAD      ACCESS:    1753391  HIT:     806152  MISS:     947239
LLC RFO       ACCESS:     249503  HIT:     163687  MISS:      85816
LLC PREFETCH  ACCESS:          0  HIT:          0  MISS:          0
LLC WRITEBACK ACCESS:     790181  HIT:     790181  MISS:          0
Heartbeat CPU 0 instructions: 94000002 cycles: 145912384 heartbeat IPC: 0.288032 cumulative IPC: 0.340101 (Simulation time: 1 hr 45 min 30 sec) 

Region of Interest Statistics
cpu0_DTLB TOTAL     ACCESS:    9500843  HIT:    9260640  MISS:     240203
cpu0_DTLB LOAD      ACCESS:    7867812  HIT:    7665789  MISS:     202023
cpu0_DTLB RFO       ACCESS:    1633031  HIT:    1594851  MISS:      38180
cpu0_DTLB PREFETCH  ACCESS:          0  HIT:          0  MISS:          0
cpu0_DTLB WRITEBACK ACCESS:          0  HIT:          0  MISS:          0
cpu0_ITLB TOTAL     ACCESS:    3344375  HIT:    3344375  MISS:          0
cpu0_ITLB LOAD      ACCESS:    3344375  HIT:    3344375  MISS:          0
cpu0_ITLB RFO       ACCESS:          0  HIT:          0  MISS:          0
cpu0_ITLB PREFETCH  ACCESS:          0  HIT:          0  MISS:          0
cpu0_ITLB WRITEBACK ACCESS:          0  HIT:          0  MISS:          0
cpu0_L1I TOTAL     ACCESS:     168067  HIT:     167985  MISS:         82
cpu0_L1I LOAD      ACCESS:     168067  HIT:     167985  MISS:         82
cpu0_L1I RFO       ACCESS:          0  HIT:          0  MISS:          0
cpu0_L1I PREFETCH  ACCESS:          0  HIT:          0  MISS:          0
cpu0_L1I WRITEBACK ACCESS:          0  HIT:          0  MISS:          0
cpu0_STLB TOTAL     ACCESS:     240203  HIT:     201517  MISS:      38686
cpu0_STLB LOAD      ACCESS:     202023  HIT:     165502  MISS:      36521
cpu0_STLB RFO       ACCESS:      38180  HIT:      36015  MISS:       2165
cpu0_STLB PREFETCH  ACCESS:          0  HIT:          0  MISS:          0
cpu0_STLB WRITEBACK ACCESS:          0  HIT:          0  MISS:          0
cpu0_L1D TOTAL     ACCESS:    7618954  HIT:    5324100  MISS:    2294854
cpu0_L1D LOAD      ACCESS:    5655416  HIT:    3625029  MISS:    2030387
cpu0_L1D RFO       ACCESS:    1926099  HIT:    1663543  MISS:     262556
cpu0_L1D PREFETCH  ACCESS:          0  HIT:          0  MISS:          0
cpu0_L1D WRITEBACK ACCESS:          0  HIT:          0  MISS:          0
cpu0_L2C TOTAL     ACCESS:    3251938  HIT:    1104645  MISS:    2147293
cpu0_L2C LOAD      ACCESS:    2030330  HIT:     158320  MISS:    1872010
cpu0_L2C RFO       ACCESS:     262550  HIT:       5089  MISS:     257461
cpu0_L2C PREFETCH  ACCESS:          0  HIT:          0  MISS:          0
cpu0_L2C WRITEBACK ACCESS:     957147  HIT:     940212  MISS:      16935
LLC TOTAL     ACCESS:    2990217  HIT:    1895826  MISS:    1094391
LLC LOAD      ACCESS:    1871973  HIT:     867739  MISS:    1004234
LLC RFO       ACCESS:     257455  HIT:     167366  MISS:      90089
LLC PREFETCH  ACCESS:          0  HIT:          0  MISS:          0
LLC WRITEBACK ACCESS:     859902  HIT:     859902  MISS:          0
Heartbeat CPU 0 instructions: 96000001 cycles: 149614651 heartbeat IPC: 0.540209 cumulative IPC: 0.345668 (Simulation time: 1 hr 46 min 51 sec) 

Region of Interest Statistics
cpu0_DTLB TOTAL     ACCESS:    9886894  HIT:    9643980  MISS:     242914
cpu0_DTLB LOAD      ACCESS:    8183765  HIT:    7979093  MISS:     204672
cpu0_DTLB RFO       ACCESS:    1703129  HIT:    1664887  MISS:      38242
cpu0_DTLB PREFETCH  ACCESS:          0  HIT:          0  MISS:          0
cpu0_DTLB WRITEBACK ACCESS:          0  HIT:          0  MISS:          0
cpu0_ITLB TOTAL     ACCESS:    3544960  HIT:    3544960  MISS:          0
cpu0_ITLB LOAD      ACCESS:    3544960  HIT:    3544960  MISS:          0
cpu0_ITLB RFO       ACCESS:          0  HIT:          0  MISS:          0
cpu0_ITLB PREFETCH  ACCESS:          0  HIT:          0  MISS:          0
cpu0_ITLB WRITEBACK ACCESS:          0  HIT:          0  MISS:          0
cpu0_L1I TOTAL     ACCESS:     168076  HIT:     167994  MISS:         82
cpu0_L1I LOAD      ACCESS:     168076  HIT:     167994  MISS:         82
cpu0_L1I RFO       ACCESS:          0  HIT:          0  MISS:          0
cpu0_L1I PREFETCH  ACCESS:          0  HIT:          0  MISS:          0
cpu0_L1I WRITEBACK ACCESS:          0  HIT:          0  MISS:          0
cpu0_STLB TOTAL     ACCESS:     242914  HIT:     203110  MISS:      39804
cpu0_STLB LOAD      ACCESS:     204672  HIT:     167061  MISS:      37611
cpu0_STLB RFO       ACCESS:      38242  HIT:      36049  MISS:       2193
cpu0_STLB PREFETCH  ACCESS:          0  HIT:          0  MISS:          0
cpu0_STLB WRITEBACK ACCESS:          0  HIT:          0  MISS:          0
cpu0_L1D TOTAL     ACCESS:    7919333  HIT:    5580000  MISS:    2339333
cpu0_L1D LOAD      ACCESS:    5883174  HIT:    3810139  MISS:    2073035
cpu0_L1D RFO       ACCESS:    1997604  HIT:    1733257  MISS:     264347
cpu0_L1D PREFETCH  ACCESS:          0  HIT:          0  MISS:          0
cpu0_L1D WRITEBACK ACCESS:          0  HIT:          0  MISS:          0
cpu0_L2C TOTAL     ACCESS:    3312997  HIT:    1122737  MISS:    2190260
cpu0_L2C LOAD      ACCESS:    2072975  HIT:     160077  MISS:    1912898
cpu0_L2C RFO       ACCESS:     264341  HIT:       5089  MISS:     259252
cpu0_L2C PREFETCH  ACCESS:          0  HIT:          0  MISS:          0
cpu0_L2C WRITEBACK ACCESS:     973730  HIT:     956526  MISS:      17204
LLC TOTAL     ACCESS:    3048531  HIT:    1939933  MISS:    1108598
LLC LOAD      ACCESS:    1912860  HIT:     896170  MISS:    1016690
LLC RFO       ACCESS:     259246  HIT:     167408  MISS:      91838
LLC PREFETCH  ACCESS:          0  HIT:          0  MISS:          0
LLC WRITEBACK ACCESS:     875519  HIT:     875519  MISS:          0
Heartbeat CPU 0 instructions: 98000001 cycles: 156579553 heartbeat IPC: 0.287154 cumulative IPC: 0.342758 (Simulation time: 1 hr 50 min 2 sec) 

Region of Interest Statistics
cpu0_DTLB TOTAL     ACCESS:   10180048  HIT:    9934756  MISS:     245292
cpu0_DTLB LOAD      ACCESS:    8433732  HIT:    8226848  MISS:     206884
cpu0_DTLB RFO       ACCESS:    1746316  HIT:    1707908  MISS:      38408
cpu0_DTLB PREFETCH  ACCESS:          0  HIT:          0  MISS:          0
cpu0_DTLB WRITEBACK ACCESS:          0  HIT:          0  MISS:          0
cpu0_ITLB TOTAL     ACCESS:    3700994  HIT:    3700994  MISS:          0
cpu0_ITLB LOAD      ACCESS:    3700994  HIT:    3700994  MISS:          0
cpu0_ITLB RFO       ACCESS:          0  HIT:          0  MISS:          0
cpu0_ITLB PREFETCH  ACCESS:          0  HIT:          0  MISS:          0
cpu0_ITLB WRITEBACK ACCESS:          0  HIT:          0  MISS:          0
cpu0_L1I TOTAL     ACCESS:     174392  HIT:     174309  MISS:         83
cpu0_L1I LOAD      ACCESS:     174392  HIT:     174309  MISS:         83
cpu0_L1I RFO       ACCESS:          0  HIT:          0  MISS:          0
cpu0_L1I PREFETCH  ACCESS:          0  HIT:          0  MISS:          0
cpu0_L1I WRITEBACK ACCESS:          0  HIT:          0  MISS:          0
cpu0_STLB TOTAL     ACCESS:     245292  HIT:     203644  MISS:      41648
cpu0_STLB LOAD      ACCESS:     206884  HIT:     167592  MISS:      39292
cpu0_STLB RFO       ACCESS:      38408  HIT:      36052  MISS:       2356
cpu0_STLB PREFETCH  ACCESS:          0  HIT:          0  MISS:          0
cpu0_STLB WRITEBACK ACCESS:          0  HIT:          0  MISS:          0
cpu0_L1D TOTAL     ACCESS:    8123312  HIT:    5699675  MISS:    2423637
cpu0_L1D LOAD      ACCESS:    6061015  HIT:    3913875  MISS:    2147140
cpu0_L1D RFO       ACCESS:    2021907  HIT:    1747383  MISS:     274524
cpu0_L1D PREFETCH  ACCESS:          0  HIT:          0  MISS:          0
cpu0_L1D WRITEBACK ACCESS:          0  HIT:          0  MISS:          0
cpu0_L2C TOTAL     ACCESS:    3407544  HIT:    1132988  MISS:    2274556
cpu0_L2C LOAD      ACCESS:    2147081  HIT:     160077  MISS:    1987004
cpu0_L2C RFO       ACCESS:     274518  HIT:       5089  MISS:     269429
cpu0_L2C PREFETCH  ACCESS:          0  HIT:          0  MISS:          0
cpu0_L2C WRITEBACK ACCESS:     983972  HIT:     966767  MISS:      17205
LLC TOTAL     ACCESS:    3141982  HIT:    1976389  MISS:    1165593
LLC LOAD      ACCESS:    1986966  HIT:     923458  MISS:    1063508
LLC RFO       ACCESS:     269423  HIT:     167413  MISS:     102010
LLC PREFETCH  ACCESS:          0  HIT:          0  MISS:          0
LLC WRITEBACK ACCESS:     884675  HIT:     884675  MISS:          0
Heartbeat CPU 0 instructions: 100000003 cycles: 160848603 heartbeat IPC: 0.468489 cumulative IPC: 0.346478 (Simulation time: 1 hr 53 min 15 sec) 

Region of Interest Statistics
cpu0_DTLB TOTAL     ACCESS:   10791854  HIT:   10518769  MISS:     273085
cpu0_DTLB LOAD      ACCESS:    8823786  HIT:    8595551  MISS:     228235
cpu0_DTLB RFO       ACCESS:    1968068  HIT:    1923218  MISS:      44850
cpu0_DTLB PREFETCH  ACCESS:          0  HIT:          0  MISS:          0
cpu0_DTLB WRITEBACK ACCESS:          0  HIT:          0  MISS:          0
cpu0_ITLB TOTAL     ACCESS:    3818847  HIT:    3818847  MISS:          0
cpu0_ITLB LOAD      ACCESS:    3818847  HIT:    3818847  MISS:          0
cpu0_ITLB RFO       ACCESS:          0  HIT:          0  MISS:          0
cpu0_ITLB PREFETCH  ACCESS:          0  HIT:          0  MISS:          0
cpu0_ITLB WRITEBACK ACCESS:          0  HIT:          0  MISS:          0
cpu0_L1I TOTAL     ACCESS:     202259  HIT:     202151  MISS:        108
cpu0_L1I LOAD      ACCESS:     202259  HIT:     202151  MISS:        108
cpu0_L1I RFO       ACCESS:          0  HIT:          0  MISS:          0
cpu0_L1I PREFETCH  ACCESS:          0  HIT:          0  MISS:          0
cpu0_L1I WRITEBACK ACCESS:          0  HIT:          0  MISS:          0
cpu0_STLB TOTAL     ACCESS:     273085  HIT:     230762  MISS:      42323
cpu0_STLB LOAD      ACCESS:     228235  HIT:     188370  MISS:      39865
cpu0_STLB RFO       ACCESS:      44850  HIT:      42392  MISS:       2458
cpu0_STLB PREFETCH  ACCESS:          0  HIT:          0  MISS:          0
cpu0_STLB WRITEBACK ACCESS:          0  HIT:          0  MISS:          0
cpu0_L1D TOTAL     ACCESS:    8584449  HIT:    6054782  MISS:    2529667
cpu0_L1D LOAD      ACCESS:    6400577  HIT:    4167486  MISS:    2233091
cpu0_L1D RFO       ACCESS:    2142950  HIT:    1848412  MISS:     294538
cpu0_L1D PREFETCH  ACCESS:          0  HIT:          0  MISS:          0
cpu0_L1D WRITEBACK ACCESS:          0  HIT:          0  MISS:          0
cpu0_L2C TOTAL     ACCESS:    3559748  HIT:    1190571  MISS:    2369177
cpu0_L2C LOAD      ACCESS:    2233052  HIT:     171125  MISS:    2061927
cpu0_L2C RFO       ACCESS:     294531  HIT:       6066  MISS:     288465
cpu0_L2C PREFETCH  ACCESS:          0  HIT:          0  MISS:          0
cpu0_L2C WRITEBACK ACCESS:    1030127  HIT:    1012296  MISS:      17831
LLC TOTAL     ACCESS:    3276514  HIT:    2076451  MISS:    1200063
LLC LOAD      ACCESS:    2061886  HIT:     970129  MISS:    1091757
LLC RFO       ACCESS:     288458  HIT:     180227  MISS:     108231
LLC PREFETCH  ACCESS:          0  HIT:          0  MISS:          0
LLC WRITEBACK ACCESS:     925216  HIT:     925216  MISS:          0
Heartbeat CPU 0 instructions: 102000004 cycles: 176296631 heartbeat IPC: 0.129466 cumulative IPC: 0.325493 (Simulation time: 1 hr 59 min 2 sec) 

Region of Interest Statistics
cpu0_DTLB TOTAL     ACCESS:   11340743  HIT:   11034406  MISS:     306337
cpu0_DTLB LOAD      ACCESS:    9184925  HIT:    8927894  MISS:     257031
cpu0_DTLB RFO       ACCESS:    2155818  HIT:    2106512  MISS:      49306
cpu0_DTLB PREFETCH  ACCESS:          0  HIT:          0  MISS:          0
cpu0_DTLB WRITEBACK ACCESS:          0  HIT:          0  MISS:          0
cpu0_ITLB TOTAL     ACCESS:    3957609  HIT:    3957609  MISS:          0
cpu0_ITLB LOAD      ACCESS:    3957609  HIT:    3957609  MISS:          0
cpu0_ITLB RFO       ACCESS:          0  HIT:          0  MISS:          0
cpu0_ITLB PREFETCH  ACCESS:          0  HIT:          0  MISS:          0
cpu0_ITLB WRITEBACK ACCESS:          0  HIT:          0  MISS:          0
cpu0_L1I TOTAL     ACCESS:     202282  HIT:     202165  MISS:        117
cpu0_L1I LOAD      ACCESS:     202282  HIT:     202165  MISS:        117
cpu0_L1I RFO       ACCESS:          0  HIT:          0  MISS:          0
cpu0_L1I PREFETCH  ACCESS:          0  HIT:          0  MISS:          0
cpu0_L1I WRITEBACK ACCESS:          0  HIT:          0  MISS:          0
cpu0_STLB TOTAL     ACCESS:     306337  HIT:     247779  MISS:      58558
cpu0_STLB LOAD      ACCESS:     257031  HIT:     201383  MISS:      55648
cpu0_STLB RFO       ACCESS:      49306  HIT:      46396  MISS:       2910
cpu0_STLB PREFETCH  ACCESS:          0  HIT:          0  MISS:          0
cpu0_STLB WRITEBACK ACCESS:          0  HIT:          0  MISS:          0
cpu0_L1D TOTAL     ACCESS:    9116772  HIT:    6462224  MISS:    2654548
cpu0_L1D LOAD      ACCESS:    6820778  HIT:    4488849  MISS:    2331929
cpu0_L1D RFO       ACCESS:    2238932  HIT:    1918479  MISS:     320453
cpu0_L1D PREFETCH  ACCESS:          0  HIT:          0  MISS:          0
cpu0_L1D WRITEBACK ACCESS:          0  HIT:          0  MISS:          0
cpu0_L2C TOTAL     ACCESS:    3728189  HIT:    1236992  MISS:    2491197
cpu0_L2C LOAD      ACCESS:    2331898  HIT:     174737  MISS:    2157161
cpu0_L2C RFO       ACCESS:     320446  HIT:       6066  MISS:     314380
cpu0_L2C PREFETCH  ACCESS:          0  HIT:          0  MISS:          0
cpu0_L2C WRITEBACK ACCESS:    1073679  HIT:    1055028  MISS:      18651
LLC TOTAL     ACCESS:    3438099  HIT:    2141366  MISS:    1296733
LLC LOAD      ACCESS:    2157119  HIT:     994606  MISS:    1162513
LLC RFO       ACCESS:     314373  HIT:     180230  MISS:     134143
LLC PREFETCH  ACCESS:          0  HIT:          0  MISS:          0
LLC WRITEBACK ACCESS:     965602  HIT:     965602  MISS:          0
Heartbeat CPU 0 instructions: 104000002 cycles: 186871550 heartbeat IPC: 0.189127 cumulative IPC: 0.317027 (Simulation time: 2 hr 2 min 52 sec) 

Region of Interest Statistics
cpu0_DTLB TOTAL     ACCESS:   11954354  HIT:   11600785  MISS:     353569
cpu0_DTLB LOAD      ACCESS:    9537473  HIT:    9250486  MISS:     286987
cpu0_DTLB RFO       ACCESS:    2416881  HIT:    2350299  MISS:      66582
cpu0_DTLB PREFETCH  ACCESS:          0  HIT:          0  MISS:          0
cpu0_DTLB WRITEBACK ACCESS:          0  HIT:          0  MISS:          0
cpu0_ITLB TOTAL     ACCESS:    4115118  HIT:    4115118  MISS:          0
cpu0_ITLB LOAD      ACCESS:    4115118  HIT:    4115118  MISS:          0
cpu0_ITLB RFO       ACCESS:          0  HIT:          0  MISS:          0
cpu0_ITLB PREFETCH  ACCESS:          0  HIT:          0  MISS:          0
cpu0_ITLB WRITEBACK ACCESS:          0  HIT:          0  MISS:          0
cpu0_L1I TOTAL     ACCESS:     228622  HIT:     228492  MISS:        130
cpu0_L1I LOAD      ACCESS:     228622  HIT:     228492  MISS:        130
cpu0_L1I RFO       ACCESS:          0  HIT:          0  MISS:          0
cpu0_L1I PREFETCH  ACCESS:          0  HIT:          0  MISS:          0
cpu0_L1I WRITEBACK ACCESS:          0  HIT:          0  MISS:          0
cpu0_STLB TOTAL     ACCESS:     353569  HIT:     283124  MISS:      70445
cpu0_STLB LOAD      ACCESS:     286987  HIT:     220334  MISS:      66653
cpu0_STLB RFO       ACCESS:      66582  HIT:      62790  MISS:       3792
cpu0_STLB PREFETCH  ACCESS:          0  HIT:          0  MISS:          0
cpu0_STLB WRITEBACK ACCESS:          0  HIT:          0  MISS:          0
cpu0_L1D TOTAL     ACCESS:    9808601  HIT:    7032971  MISS:    2775630
cpu0_L1D LOAD      ACCESS:    7259922  HIT:    4861143  MISS:    2398779
cpu0_L1D RFO       ACCESS:    2479789  HIT:    2105355  MISS:     374434
cpu0_L1D PREFETCH  ACCESS:          0  HIT:          0  MISS:          0
cpu0_L1D WRITEBACK ACCESS:          0  HIT:          0  MISS:          0
cpu0_L2C TOTAL     ACCESS:    3916307  HIT:    1313051  MISS:    2603256
cpu0_L2C LOAD      ACCESS:    2398748  HIT:     180017  MISS:    2218731
cpu0_L2C RFO       ACCESS:     374425  HIT:      11361  MISS:     363064
cpu0_L2C PREFETCH  ACCESS:          0  HIT:          0  MISS:          0
cpu0_L2C WRITEBACK ACCESS:    1140717  HIT:    1120375  MISS:      20342
LLC TOTAL     ACCESS:    3608589  HIT:    2243725  MISS:    1364864
LLC LOAD      ACCESS:    2218689  HIT:    1017341  MISS:    1201348
LLC RFO       ACCESS:     363056  HIT:     199624  MISS:     163432
LLC PREFETCH  ACCESS:          0  HIT:          0  MISS:          0
LLC WRITEBACK ACCESS:    1025725  HIT:    1025724  MISS:          1
Heartbeat CPU 0 instructions: 106000002 cycles: 194672199 heartbeat IPC: 0.256389 cumulative IPC: 0.314372 (Simulation time: 2 hr 6 min 9 sec) 

Region of Interest Statistics
cpu0_DTLB TOTAL     ACCESS:   12597935  HIT:   12213770  MISS:     384165
cpu0_DTLB LOAD      ACCESS:    9911266  HIT:    9606166  MISS:     305100
cpu0_DTLB RFO       ACCESS:    2686669  HIT:    2607604  MISS:      79065
cpu0_DTLB PREFETCH  ACCESS:          0  HIT:          0  MISS:          0
cpu0_DTLB WRITEBACK ACCESS:          0  HIT:          0  MISS:          0
cpu0_ITLB TOTAL     ACCESS:    4252116  HIT:    4252116  MISS:          0
cpu0_ITLB LOAD      ACCESS:    4252116  HIT:    4252116  MISS:          0
cpu0_ITLB RFO       ACCESS:          0  HIT:          0  MISS:          0
cpu0_ITLB PREFETCH  ACCESS:          0  HIT:          0  MISS:          0
cpu0_ITLB WRITEBACK ACCESS:          0  HIT:          0  MISS:          0
cpu0_L1I TOTAL     ACCESS:     373070  HIT:     372940  MISS:        130
cpu0_L1I LOAD      ACCESS:     373070  HIT:     372940  MISS:        130
cpu0_L1I RFO       ACCESS:          0  HIT:          0  MISS:          0
cpu0_L1I PREFETCH  ACCESS:          0  HIT:          0  MISS:          0
cpu0_L1I WRITEBACK ACCESS:          0  HIT:          0  MISS:          0
cpu0_STLB TOTAL     ACCESS:     384165  HIT:     307169  MISS:      76996
cpu0_STLB LOAD      ACCESS:     305100  HIT:     232295  MISS:      72805
cpu0_STLB RFO       ACCESS:      79065  HIT:      74874  MISS:       4191
cpu0_STLB PREFETCH  ACCESS:          0  HIT:          0  MISS:          0
cpu0_STLB WRITEBACK ACCESS:          0  HIT:          0  MISS:          0
cpu0_L1D TOTAL     ACCESS:   10522385  HIT:    7658188  MISS:    2864197
cpu0_L1D LOAD      ACCESS:    7675668  HIT:    5225576  MISS:    2450092
cpu0_L1D RFO       ACCESS:    2771300  HIT:    2359795  MISS:     411505
cpu0_L1D PREFETCH  ACCESS:          0  HIT:          0  MISS:          0
cpu0_L1D WRITEBACK ACCESS:          0  HIT:          0  MISS:          0
cpu0_L2C TOTAL     ACCESS:    4051528  HIT:    1363607  MISS:    2687921
cpu0_L2C LOAD      ACCESS:    2450041  HIT:     182574  MISS:    2267467
cpu0_L2C RFO       ACCESS:     411496  HIT:      13575  MISS:     397921
cpu0_L2C PREFETCH  ACCESS:          0  HIT:          0  MISS:          0
[...]
cpu0_ITLB RFO       ACCESS:          0  HIT:          0  MISS:          0
cpu0_ITLB PREFETCH  ACCESS:          0  HIT:          0  MISS:          0
cpu0_ITLB WRITEBACK ACCESS:          0  HIT:          0  MISS:          0
cpu0_ITLB TRANSLATION ACCESS:          0  HIT:          0  MISS:          0
cpu0_ITLB PREFETCH  REQUESTED:          0  ISSUED:          0  USEFUL:          0  USELESS:          0
cpu0_ITLB AVERAGE MISS LATENCY: 227.667 cycles
cpu0_L1I TOTAL     ACCESS:    8627166  HIT:    8618832  MISS:       8334
cpu0_L1I LOAD      ACCESS:    8627166  HIT:    8618832  MISS:       8334
cpu0_L1I RFO       ACCESS:          0  HIT:          0  MISS:          0
cpu0_L1I PREFETCH  ACCESS:          0  HIT:          0  MISS:          0
cpu0_L1I WRITEBACK ACCESS:          0  HIT:          0  MISS:          0
cpu0_L1I TRANSLATION ACCESS:          0  HIT:          0  MISS:          0
cpu0_L1I PREFETCH  REQUESTED:          0  ISSUED:          0  USEFUL:          0  USELESS:          0
cpu0_L1I AVERAGE MISS LATENCY: 302.688 cycles
cpu0_STLB TOTAL     ACCESS:   11070327  HIT:    9546992  MISS:    1523335
cpu0_STLB LOAD      ACCESS:    8818483  HIT:    7419386  MISS:    1399097
cpu0_STLB RFO       ACCESS:    2251844  HIT:    2127606  MISS:     124238
cpu0_STLB PREFETCH  ACCESS:          0  HIT:          0  MISS:          0
cpu0_STLB WRITEBACK ACCESS:          0  HIT:          0  MISS:          0
cpu0_STLB TRANSLATION ACCESS:          0  HIT:          0  MISS:          0
cpu0_STLB PREFETCH  REQUESTED:          0  ISSUED:          0  USEFUL:          0  USELESS:          0
cpu0_STLB AVERAGE MISS LATENCY: 16.6581 cycles
cpu0_L1D TOTAL     ACCESS:  289453894  HIT:  213266396  MISS:   76187498
cpu0_L1D LOAD      ACCESS:  209687450  HIT:  144692877  MISS:   64994573
cpu0_L1D RFO       ACCESS:   78282618  HIT:   67151118  MISS:   11131500
cpu0_L1D PREFETCH  ACCESS:          0  HIT:          0  MISS:          0
cpu0_L1D WRITEBACK ACCESS:          0  HIT:          0  MISS:          0
cpu0_L1D TRANSLATION ACCESS:    1483826  HIT:    1422401  MISS:      61425
cpu0_L1D PREFETCH  REQUESTED:          0  ISSUED:          0  USEFUL:          0  USELESS:          0
cpu0_L1D AVERAGE MISS LATENCY: 185.192 cycles
cpu0_L2C TOTAL     ACCESS:  107883511  HIT:   37107200  MISS:   70776311
cpu0_L2C LOAD      ACCESS:   64997255  HIT:    5323718  MISS:   59673537
cpu0_L2C RFO       ACCESS:   11130556  HIT:     657511  MISS:   10473045
cpu0_L2C PREFETCH  ACCESS:          0  HIT:          0  MISS:          0
cpu0_L2C WRITEBACK ACCESS:   31694275  HIT:   31093622  MISS:     600653
cpu0_L2C TRANSLATION ACCESS:      61425  HIT:      32349  MISS:      29076
cpu0_L2C PREFETCH  REQUESTED:          0  ISSUED:          0  USEFUL:          0  USELESS:          0
cpu0_L2C AVERAGE MISS LATENCY: 187.379 cycles
LLC TOTAL     ACCESS:   98258441  HIT:   63951161  MISS:   34307280
LLC LOAD      ACCESS:   59671993  HIT:   31009157  MISS:   28662836
LLC RFO       ACCESS:   10472595  HIT:    4830288  MISS:    5642307
LLC PREFETCH  ACCESS:          0  HIT:          0  MISS:          0
LLC WRITEBACK ACCESS:   28084777  HIT:   28084638  MISS:        139
LLC TRANSLATION ACCESS:      29076  HIT:      27078  MISS:       1998
LLC PREFETCH  REQUESTED:          0  ISSUED:          0  USEFUL:          0  USELESS:          0
LLC AVERAGE MISS LATENCY: 343.605 cycles
~~~~~~~~~~Reuse Distance Profiler output~~~~~~~~~~
0	34993328	21454592
1	27311552	19586144
2	25441776	17488976
3	16300496	12460416
4	13154016	10406640
5	9040160	6404944
6	8961776	6328096
7	6782992	4809920
8	5903792	4192464
9	5408720	3683552
10	4879632	3229616
11	4154160	2740432
12	3618416	2411328
13	2884736	1940784
14	2643024	1776752
15	2624992	1830080
16	2351632	1590592
17	2093136	1395600
18	1843008	1206848
19	1666608	1067168
20	1577408	955856
21	1419120	873472
22	1258448	780032
23	1154016	703376
24	1059488	648016
25	982800	583968
26	941232	542448
27	887584	503136
28	862976	475168
29	831952	456816
30	848592	477360
31	770544	408768
32	743904	372592
33	998912	467456
34	780672	384176
35	606560	332192
36	529680	307888
37	511632	307584
38	488944	296832
39	460128	278816
40	407728	236944
41	386944	219616
42	389008	226672
43	370928	216912
44	353696	200080
45	346880	189392
46	350736	191104
47	321920	177328
48	296720	173136
49	271232	163264
50	264736	163904
51	245408	153584
52	237232	156176
53	230352	159232
54	221568	147152
55	257424	178992
56	220704	143408
57	237536	161648
58	224880	146224
59	226864	149088
60	219424	144576
61	208528	138864
62	235040	151088
63	250144	151040
64	598336	347584
66	679280	375264
68	571136	317456
70	399072	244992
72	296592	188080
74	239488	149472
76	217008	140480
78	191376	127584
80	169456	114272
82	168656	118336
84	153088	107632
86	145120	102928
88	129904	92544
90	121088	88496
92	108304	77088
94	98368	69616
96	91248	63904
98	84304	59872
100	84912	61072
102	76928	56592
104	75360	58672
106	70752	53264
108	71424	53024
110	70720	53552
112	71040	53360
114	68432	50464
116	64032	47936
118	63472	47600
120	61152	45936
122	61280	45376
124	59376	44784
126	54912	41184
128	115904	88320
132	115344	84704
136	111328	76896
140	107744	74432
144	105776	71024
148	101296	64752
152	89360	63920
156	87648	62512
160	82688	61072
164	79888	60448
168	82768	60336
172	73152	55232
176	74384	57488
180	68688	51392
184	66736	51872
188	67568	50592
192	65888	50768
196	66256	49616
200	64576	48224
204	60400	44416
208	56976	43872
212	55584	42192
216	53792	40624
220	56208	42992
224	52016	38896
228	53600	39712
232	55248	40976
236	54624	39104
240	52144	37152
244	49088	34528
248	53760	39232
252	51808	37200
256	96928	70064
264	94704	68992
272	88752	67168
280	83088	63264
288	83280	65744
296	78736	62032
304	75296	60688
312	68960	57440
320	71456	60112
328	71664	60144
336	69648	57984
344	66768	55744
352	66096	56688
360	62224	53040
368	63008	52848
376	63040	53296
384	62800	53536
392	62000	52560
400	60256	50336
408	56400	47376
416	56768	48288
424	59792	51024
432	54944	46704
440	57968	48448
448	56272	46112
456	55904	46800
464	56368	47264
472	56688	47632
480	49680	41488
488	50224	42528
496	47600	40096
504	47600	40240
512	98656	84112
528	99232	83984
544	93408	79424
560	92336	79952
576	90288	78144
592	94112	81856
608	90368	78496
624	89776	79968
640	90304	77472
656	89424	76736
672	89808	77696
688	84480	73888
704	85216	74656
720	87456	74944
736	87216	74432
752	84848	74544
768	83824	73728
784	85232	74736
800	86000	76192
816	89808	79904
832	88080	78320
848	92496	83152
864	86256	76944
880	88176	78624
896	87072	77584
912	86832	77632
928	87648	78848
944	89120	78464
960	87616	78640
976	82544	74464
992	86064	76976
1008	87584	78864
1024	170608	154112
1056	177872	161232
1088	172208	156832
1120	164432	150624
1152	160400	146464
1184	162672	148944
1216	156992	142400
1248	160336	146688
1280	164496	150608
1312	154736	142128
1344	147552	135376
1376	149312	137712
1408	147680	136416
1440	147408	136320
1472	137472	125792
1504	137792	126544
1536	137920	127184
1568	139104	128448
1600	134704	123520
1632	124656	114784
1664	126448	117616
1696	126512	116496
1728	114384	105040
1760	115104	105456
1792	115648	106960
1824	125456	115296
1856	116256	106832
1888	110752	100944
1920	116208	107280
1952	118624	110208
1984	109312	100912
2016	100576	92064
2048	189232	172560
2112	183936	167680
2176	175168	158464
2240	164320	147536
2304	165088	150992
2368	148096	133184
2432	147504	132240
2496	150208	134944
2560	155584	140992
2624	160032	144784
2688	151456	136048
2752	159152	141232
2816	179536	160992
2880	171152	152800
2944	169984	150112
3008	136272	116672
3072	127584	109680
3136	134512	116528
3200	124592	106352
3264	116720	97392
3328	105952	89008
3392	101584	85920
3456	99872	84160
3520	97392	82016
3584	95840	80448
3648	94736	81392
3712	91536	79040
3776	84832	73648
3840	84960	74368
3904	80976	70144
3968	84704	73584
4032	82256	72624
4096	166864	146576
4224	158176	144064
4352	172768	156528
4480	172336	156896
4608	152976	140672
4736	145392	132896
4864	152064	138576
4992	148080	135104
5120	152096	139680
5248	148064	136880
5376	145984	135776
5504	143248	132848
5632	135648	124256
5760	122768	113392
5888	128912	118032
6016	130704	120112
6144	124176	113856
6272	123808	113904
6400	114624	104592
6528	112112	103296
6656	122800	113856
6784	113776	104048
6912	111584	102000
7040	110064	99568
7168	114624	104880
7296	102704	93008
7424	99024	89648
7552	104160	94720
7680	103136	93488
7808	94240	85872
7936	95200	86800
8064	94560	86144
8192	192336	176784
8448	197184	182704
8704	177216	162800
8960	159248	144064
9216	152176	137456
9472	154048	138752
9728	147504	133888
9984	138400	123328
10240	133120	120224
10496	130512	117728
10752	127744	115152
11008	127216	115792
11264	138480	126304
11520	123120	111024
11776	113360	101824
12032	111568	100992
12288	106656	96064
12544	106512	95920
12800	111216	100864
13056	110688	99248
13312	115008	103360
13568	108832	97152
13824	109232	97952
14080	99520	87872
14336	97008	85616
14592	87968	78176
14848	90016	78432
15104	86768	75728
15360	86944	77472
15616	88896	80128
15872	93088	82480
16128	90688	81424
16384	189712	168656
16896	173824	152720
17408	167920	149136
17920	165648	146912
18432	163488	143424
18944	140096	122256
19456	143600	124832
19968	133568	115296
20480	135072	118000
20992	127840	111744
21504	132288	115344
22016	128080	112192
22528	119904	104880
23040	114192	99376
23552	113360	98160
24064	115232	100272
24576	108976	94944
25088	105056	90736
25600	109408	96240
26112	102272	88880
26624	96736	83360
27136	94608	81712
27648	94144	81936
28160	95280	82896
28672	94608	81168
29184	99504	87248
29696	100592	88592
30208	91376	78336
30720	90128	78160
31232	92416	80624
31744	97872	86912
32256	89120	78224
32768	185744	163264
33792	188576	165360
34816	207264	184288
35840	205440	183296
36864	170864	150320
37888	138112	119296
38912	147072	126864
39936	162944	139264
40960	149760	122464
41984	162800	133888
43008	154096	123200
44032	152544	121216
45056	161440	129760
46080	166400	136576
47104	159376	127600
48128	164784	128864
49152	172320	131168
50176	179328	135488
51200	162064	130896
52224	138656	114144
53248	154656	129104
54272	165776	137648
55296	163712	136208
56320	166784	137664
57344	159952	129472
58368	159520	130512
59392	136320	108640
60416	120448	97936
61440	142224	118960
62464	131680	108848
63488	140864	119744
64512	155600	135968
65536	305472	268416
67584	299072	265600
69632	310160	272928
71680	293184	256576
73728	274032	235808
75776	269776	229296
77824	246144	206912
79872	249872	206496
81920	231888	194464
83968	234560	201552
86016	244576	207360
88064	229808	194176
90112	220016	186752
92160	223568	187232
94208	202848	168592
96256	197936	163936
98304	206048	174208
100352	221968	190832
102400	234112	202432
104448	249664	215312
106496	292224	252976
108544	326272	278176
110592	271232	227984
112640	230048	188048
114688	178704	136608
116736	174240	134080
118784	338432	296656
120832	485504	448656
122880	396192	357680
124928	430896	394896
126976	197056	161088
129024	187488	156608
131072	395936	328672
135168	390960	322256
139264	301744	238976
143360	261360	198816
147456	280064	219216
151552	263568	206304
155648	244224	192496
159744	256544	206864
163840	263168	218544
167936	226240	184032
172032	215408	178512
176128	218144	179408
180224	196176	160240
184320	211072	175424
188416	228080	190496
192512	258032	219408
196608	229712	191536
200704	210160	176448
204800	207216	173696
208896	203520	166864
212992	217312	176256
217088	225536	183520
221184	225488	184016
225280	223968	185712
229376	216208	181920
233472	227920	194960
237568	216240	185216
241664	216192	189360
245760	241136	210128
249856	256672	228976
253952	258384	238592
258048	280912	260560
262144	566528	524432
270336	572192	529296
278528	565008	526480
286720	539232	506288
294912	529168	495840
303104	548112	515760
311296	570144	538688
319488	607552	577904
327680	540608	508160
335872	436272	407216
344064	226256	197104
352256	179168	144032
360448	174128	144544
368640	195072	161712
376832	194656	168272
385024	177984	154928
393216	197296	177904
401408	184560	166880
409600	149856	131808
417792	152448	103168
425984	161984	90480
434176	164064	87232
442368	180688	80560
450560	217968	84656
458752	309136	90256
466944	313344	103088
475136	284784	119376
483328	255312	109216
491520	259248	115920
499712	368192	244480
507904	602656	512928
516096	656064	617856
524288	685392	630928
540672	378016	334064
557056	203360	160400
573440	147136	112416
589824	90512	73712
606208	82032	59728
622592	76080	52752
638976	75008	48832
655360	72720	46336
671744	78848	52896
688128	77776	51776
704512	92160	64864
720896	100720	74560
737280	100640	74176
753664	94784	67616
770048	97200	72560
786432	102864	77712
802816	97984	74672
819200	118912	97776
835584	120384	100656
851968	90464	69440
868352	82000	66304
884736	105776	97888
901120	112352	104976
917504	97120	87920
933888	82384	73248
950272	68128	62432
966656	73312	68176
983040	74912	69664
999424	80240	74576
1015808	102384	91840
1032192	148064	133984
1048576	320640	293504
1081344	319040	288592
1114112	336896	304480
1146880	252608	220064
1179648	254000	211264
1212416	218944	178352
1245184	231936	197648
1277952	261440	215824
1310720	391024	322304
1343488	483056	403680
1376256	1216192	1122624
1409024	4290144	4030544
1441792	700144	637952
1474560	674080	613008
1507328	449312	402240
1540096	1184064	1105840
1572864	1743904	1600816
1605632	1213360	1125232
1638400	2447328	2273024
1671168	1050816	990032
1703936	262368	238336
1736704	133920	116640
1769472	432752	405392
1802240	409904	377712
1835008	447280	413520
1867776	337792	316224
1900544	75344	65632
1933312	51088	45680
1966080	41296	37744
1998848	27264	22352
2031616	26240	20736
2064384	25856	20944
2097152	44608	34432
2162688	57280	45952
2228224	47264	38672
2293760	62800	52544
2359296	33088	27408
2424832	208304	196672
2490368	252864	236624
2555904	9584	6496
2621440	13648	10080
2686976	9776	6608
2752512	13888	10768
2818048	20464	13104
2883584	8416	4224
2949120	10304	5664
3014656	10256	5072
3080192	36512	27232
3145728	7952	2528
3211264	4992	1120
3276800	11808	5792
3342336	8864	4560
3407872	8944	4224
3473408	9504	5760
3538944	8176	3696
3604480	11456	3984
3670016	9216	3760
3735552	12048	3952
3801088	7360	1824
3866624	11200	4688
3932160	6048	1328
3997696	6144	464
4063232	6320	384
4128768	6272	832
4194304	16528	512
4325376	13728	3488
4456448	8496	688
4587520	15232	208
4718592	22400	848
4849664	13008	480
4980736	12880	224
5111808	6816	80
5242880	4176	448
5373952	4992	336
5505024	18096	128
5636096	19152	496
5767168	32928	3280
5898240	40192	3904
6029312	51280	2768
6160384	146656	18176
6291456	116736	30752
6422528	26416	4112
6553600	33008	5888
6684672	28944	25248
6815744	40656	32656
6946816	40432	21072
7077888	118816	83584
7208960	557136	507376
7340032	169680	142800
7471104	268848	237296
7602176	281824	265264
7733248	10176	8496
7864320	14720	11824
7995392	20064	13632
8126464	73472	68672
8257536	144	80
8388608	624	272
8650752	1264	1120
8912896	9088	8096
9175040	1472	544
9437184	544	480
9699328	512	320
9961472	1648	704
10223616	352	176
10485760	272	144
10747904	1488	512
11010048	2416	656
11272192	2240	1808
11534336	1328	352
11796480	864	608
12058624	784	160
12320768	1504	656
12582912	3792	2432
12845056	1728	1232
13107200	624	448
13369344	848	272
13631488	592	176
13893632	2384	448
14155776	1104	752
14417920	7664	432
14680064	5456	80
14942208	8848	128
15204352	12128	160
15466496	11120	192
15728640	24736	8160
15990784	18160	144
16252928	13680	2128
16515072	15680	880
16777216	35600	2864
17301504	31456	2464
17825792	39680	5840
18350080	128048	93152
18874368	195488	165728
19398656	181152	114896
19922944	318096	134256
20447232	189648	134528
20971520	162944	133680
21495808	253984	146912
22020096	246016	111376
22544384	73168	62544
23068672	29120	12832
23592960	103072	60016
24117248	61376	26592
24641536	5440	1216
25165824	15216	8944
25690112	15296	13104
26214400	3712	0
26738688	352	32
27262976	560	0
27787264	640	0
28311552	112	64
28835840	32	32
29360128	496	432
29884416	32	32
30408704	112	96
30932992	64	32
31457280	0	0
31981568	16	0
32505856	128	16
33030144	224	128
33554432	112	80
34603008	160	64
35651584	784	352
36700160	80	80
37748736	16	0
38797312	928	896
39845888	6944	6880
40894464	36400	36128
41943040	848	480
42991616	192	32
44040192	80	0
45088768	224	32
46137344	800	432
47185920	3392	0
48234496	1296	1136
49283072	64	16
50331648	128	112
51380224	16	16
52428800	160	160
53477376	144	144
54525952	64	0
55574528	16	16
56623104	16	0
57671680	64	32
58720256	32	0
59768832	80	0
60817408	32	0
61865984	32	16
62914560	32	16
63963136	128	48
65011712	224	64
66060288	112	16
67108864	704	400
69206016	176	0
71303168	128	112
73400320	1104	1024
75497472	32	0
77594624	112	80
79691776	128	48
81788928	208	32
83886080	35648	35600
85983232	256	208
88080384	352	176
90177536	128	0
92274688	48	0
94371840	512	496
96468992	32	32
98566144	320	304
100663296	704	688
102760448	592	592
104857600	2480	48
106954752	208	208
109051904	128	96
111149056	48	0
113246208	80	32
115343360	224	224
117440512	2080	2064
119537664	176	144
121634816	80	80
123731968	16	16
125829120	160	112
127926272	336	336
130023424	608	416
132120576	416	208
134217728	944	944
138412032	32	32
142606336	32	32
146800640	64	32
150994944	0	0
155189248	560	0
159383552	480	464
163577856	0	0
167772160	0	0
171966464	0	0
176160768	80	0
180355072	0	0
184549376	32	32
188743680	112	112
192937984	0	0
197132288	0	0
201326592	160	16
205520896	192	192
209715200	0	0
213909504	0	0
218103808	0	0
222298112	0	0
226492416	0	0
230686720	0	0
234881024	0	0
239075328	0	0
243269632	0	0
247463936	112	112
251658240	0	0
255852544	64	64
260046848	16	16
264241152	0	0
268435456	0	0
276824064	0	0
285212672	0	0
293601280	0	0
301989888	0	0
310378496	0	0
318767104	0	0
327155712	0	0
335544320	0	0
343932928	0	0
352321536	0	0
360710144	0	0
369098752	0	0
377487360	0	0
385875968	0	0
394264576	0	0
402653184	0	0
411041792	0	0
419430400	0	0
427819008	0	0
436207616	0	0
444596224	0	0
452984832	0	0
461373440	0	0
469762048	0	0
478150656	0	0
486539264	0	0
494927872	0	0
503316480	0	0
511705088	0	0
520093696	0	0
528482304	0	0
536870912	0	0
553648128	0	0
570425344	0	0
587202560	0	0
603979776	0	0
620756992	0	0
637534208	0	0
654311424	0	0
671088640	0	0
687865856	0	0
704643072	0	0
721420288	0	0
738197504	0	0
754974720	0	0
771751936	0	0
788529152	0	0
805306368	0	0
822083584	0	0
838860800	0	0
855638016	0	0
872415232	0	0
889192448	0	0
905969664	0	0
922746880	0	0
939524096	0	0
956301312	0	0
973078528	0	0
989855744	0	0
1006632960	0	0
1023410176	0	0
1040187392	0	0
1056964608	0	0
1073741824	0	0
1107296256	0	0
1140850688	0	0
1174405120	0	0
1207959552	0	0
1241513984	0	0
1275068416	0	0
1308622848	0	0
1342177280	0	0
1375731712	0	0
1409286144	0	0
1442840576	0	0
1476395008	0	0
1509949440	0	0
1543503872	0	0
1577058304	0	0
1610612736	0	0
1644167168	0	0
1677721600	0	0
1711276032	0	0
1744830464	0	0
1778384896	0	0
1811939328	0	0
1845493760	0	0
1879048192	0	0
1912602624	0	0
1946157056	0	0
1979711488	0	0
2013265920	0	0
2046820352	0	0
2080374784	0	0
2113929216	0	0
2147483648	0	0
2214592512	0	0
2281701376	0	0
2348810240	0	0
2415919104	0	0
2483027968	0	0
2550136832	0	0
2617245696	0	0
2684354560	0	0
2751463424	0	0
2818572288	0	0
2885681152	0	0
2952790016	0	0
3019898880	0	0
3087007744	0	0
3154116608	0	0
3221225472	0	0
3288334336	0	0
3355443200	0	0
3422552064	0	0
3489660928	0	0
3556769792	0	0
3623878656	0	0
3690987520	0	0
3758096384	0	0
3825205248	0	0
3892314112	0	0
3959422976	0	0
4026531840	0	0
4093640704	0	0
4160749568	0	0
4227858432	0	0
~~~~~~~~~~Reuse Distance Profiler output end~~~~~~~~~~

Sampler size:30362

DRAM Statistics
 CHANNEL 0
 RQ ROW_BUFFER_HIT:    3904886  ROW_BUFFER_MISS:   30377441
 DBUS AVG_CONGESTED_CYCLE:    3.95925
 WQ ROW_BUFFER_HIT:     441869  ROW_BUFFER_MISS:   10896363  FULL:          0


CPU 0 Branch Prediction Accuracy: 92.3227% MPKI: 13.645 Average ROB Occupancy at Mispredict: 48.0443
Branch type MPKI
BRANCH_DIRECT_JUMP: 3.86667e-05
BRANCH_INDIRECT: 4.8e-05
BRANCH_CONDITIONAL: 13.6442
BRANCH_DIRECT_CALL: 2.86667e-05
BRANCH_INDIRECT_CALL: 0.000114
BRANCH_RETURN: 0.000561333

