
*** ChampSim Multicore Out-of-Order Simulator ***

Warmup Instructions: 50000000
Simulation Instructions: 1500000000
Number of CPUs: 1
Off-chip DRAM Size: 4 GiB Channels: 1 Width: 64-bit Data Rate: 3200 MT/s

VirtualMemory physical capacity: 8588881920 num_ppages: 2096895
VirtualMemory page size: 4096 log2_page_size: 12

CPU 0 runs /s/traces/champsim_traces/458.sjeng-1088B.champsimtrace.xz
CPU 0 Bimodal branch predictor
Basic BTB sets: 1024 ways: 8 indirect buffer size: 4096 RAS size: 64
Initializing LRU.
Initializing LRU.
Initializing LRU.
Initializing LRU.
Initializing rdLRU.
Initializing LRU.
Initializing LRU.
Heartbeat CPU 0 instructions: 2000002 cycles: 500152 heartbeat IPC: 3.99879 cumulative IPC: 3.99879 (Simulation time: 0 hr 0 min 37 sec) 
Heartbeat CPU 0 instructions: 4000002 cycles: 1000152 heartbeat IPC: 4 cumulative IPC: 3.99939 (Simulation time: 0 hr 1 min 37 sec) 
Heartbeat CPU 0 instructions: 6000002 cycles: 1501511 heartbeat IPC: 3.98916 cumulative IPC: 3.99598 (Simulation time: 0 hr 2 min 37 sec) 
Heartbeat CPU 0 instructions: 8000001 cycles: 2002817 heartbeat IPC: 3.98958 cumulative IPC: 3.99437 (Simulation time: 0 hr 3 min 37 sec) 
Heartbeat CPU 0 instructions: 10000002 cycles: 2502941 heartbeat IPC: 3.99901 cumulative IPC: 3.9953 (Simulation time: 0 hr 4 min 36 sec) 
Heartbeat CPU 0 instructions: 12000000 cycles: 3003046 heartbeat IPC: 3.99916 cumulative IPC: 3.99594 (Simulation time: 0 hr 5 min 36 sec) 
Heartbeat CPU 0 instructions: 14000003 cycles: 3503653 heartbeat IPC: 3.99516 cumulative IPC: 3.99583 (Simulation time: 0 hr 6 min 37 sec) 
Heartbeat CPU 0 instructions: 16000002 cycles: 4005205 heartbeat IPC: 3.98762 cumulative IPC: 3.9948 (Simulation time: 0 hr 7 min 36 sec) 
Heartbeat CPU 0 instructions: 18000002 cycles: 4505205 heartbeat IPC: 4 cumulative IPC: 3.99538 (Simulation time: 0 hr 8 min 36 sec) 
Heartbeat CPU 0 instructions: 20000001 cycles: 5006445 heartbeat IPC: 3.9901 cumulative IPC: 3.99485 (Simulation time: 0 hr 9 min 38 sec) 
Heartbeat CPU 0 instructions: 22000003 cycles: 5507883 heartbeat IPC: 3.98853 cumulative IPC: 3.99428 (Simulation time: 0 hr 10 min 40 sec) 
Heartbeat CPU 0 instructions: 24000003 cycles: 6007883 heartbeat IPC: 4 cumulative IPC: 3.99475 (Simulation time: 0 hr 11 min 40 sec) 
Heartbeat CPU 0 instructions: 26000002 cycles: 6510395 heartbeat IPC: 3.98 cumulative IPC: 3.99361 (Simulation time: 0 hr 12 min 39 sec) 
Heartbeat CPU 0 instructions: 28000002 cycles: 7010395 heartbeat IPC: 4 cumulative IPC: 3.99407 (Simulation time: 0 hr 13 min 40 sec) 
Heartbeat CPU 0 instructions: 30000002 cycles: 7510395 heartbeat IPC: 4 cumulative IPC: 3.99446 (Simulation time: 0 hr 14 min 40 sec) 
Heartbeat CPU 0 instructions: 32000001 cycles: 8012527 heartbeat IPC: 3.98301 cumulative IPC: 3.99375 (Simulation time: 0 hr 15 min 39 sec) 
Heartbeat CPU 0 instructions: 34000002 cycles: 8514354 heartbeat IPC: 3.98544 cumulative IPC: 3.99326 (Simulation time: 0 hr 16 min 40 sec) 
Heartbeat CPU 0 instructions: 36000003 cycles: 9019549 heartbeat IPC: 3.95887 cumulative IPC: 3.99133 (Simulation time: 0 hr 17 min 38 sec) 
Heartbeat CPU 0 instructions: 38000001 cycles: 9521544 heartbeat IPC: 3.9841 cumulative IPC: 3.99095 (Simulation time: 0 hr 18 min 38 sec) 
Heartbeat CPU 0 instructions: 40000000 cycles: 10021942 heartbeat IPC: 3.99682 cumulative IPC: 3.99124 (Simulation time: 0 hr 19 min 38 sec) 
Heartbeat CPU 0 instructions: 42000000 cycles: 10521942 heartbeat IPC: 4 cumulative IPC: 3.99166 (Simulation time: 0 hr 20 min 41 sec) 
Heartbeat CPU 0 instructions: 44000000 cycles: 11021942 heartbeat IPC: 4 cumulative IPC: 3.99204 (Simulation time: 0 hr 21 min 45 sec) 
Heartbeat CPU 0 instructions: 46000000 cycles: 11521942 heartbeat IPC: 4 cumulative IPC: 3.99238 (Simulation time: 0 hr 23 min 8 sec) 
Heartbeat CPU 0 instructions: 48000000 cycles: 12021942 heartbeat IPC: 4 cumulative IPC: 3.9927 (Simulation time: 0 hr 24 min 9 sec) 
Heartbeat CPU 0 instructions: 50000000 cycles: 12521942 heartbeat IPC: 4 cumulative IPC: 3.99299 (Simulation time: 0 hr 25 min 21 sec) 

Warmup complete CPU 0 instructions: 50000004 cycles: 12521943 (Simulation time: 0 hr 25 min 21 sec) 

Heartbeat CPU 0 instructions: 52000002 cycles: 14991748 heartbeat IPC: 0.809781 cumulative IPC: 0.80978 (Simulation time: 0 hr 26 min 25 sec) 

Region of Interest Statistics
cpu0_DTLB TOTAL     ACCESS:     424755  HIT:     420987  MISS:       3768
cpu0_DTLB LOAD      ACCESS:     339882  HIT:     336733  MISS:       3149
cpu0_DTLB RFO       ACCESS:      84873  HIT:      84254  MISS:        619
cpu0_DTLB PREFETCH  ACCESS:          0  HIT:          0  MISS:          0
cpu0_DTLB WRITEBACK ACCESS:          0  HIT:          0  MISS:          0
cpu0_ITLB TOTAL     ACCESS:     196487  HIT:     196487  MISS:          0
cpu0_ITLB LOAD      ACCESS:     196487  HIT:     196487  MISS:          0
cpu0_ITLB RFO       ACCESS:          0  HIT:          0  MISS:          0
cpu0_ITLB PREFETCH  ACCESS:          0  HIT:          0  MISS:          0
cpu0_ITLB WRITEBACK ACCESS:          0  HIT:          0  MISS:          0
cpu0_L1I TOTAL     ACCESS:     109884  HIT:     109884  MISS:          0
cpu0_L1I LOAD      ACCESS:     109884  HIT:     109884  MISS:          0
cpu0_L1I RFO       ACCESS:          0  HIT:          0  MISS:          0
cpu0_L1I PREFETCH  ACCESS:          0  HIT:          0  MISS:          0
cpu0_L1I WRITEBACK ACCESS:          0  HIT:          0  MISS:          0
cpu0_STLB TOTAL     ACCESS:       3768  HIT:       3199  MISS:        569
cpu0_STLB LOAD      ACCESS:       3149  HIT:       2582  MISS:        567
cpu0_STLB RFO       ACCESS:        619  HIT:        617  MISS:          2
cpu0_STLB PREFETCH  ACCESS:          0  HIT:          0  MISS:          0
cpu0_STLB WRITEBACK ACCESS:          0  HIT:          0  MISS:          0
cpu0_L1D TOTAL     ACCESS:     510227  HIT:     509151  MISS:       1076
cpu0_L1D LOAD      ACCESS:     359031  HIT:     358167  MISS:        864
cpu0_L1D RFO       ACCESS:     150627  HIT:     150420  MISS:        207
cpu0_L1D PREFETCH  ACCESS:          0  HIT:          0  MISS:          0
cpu0_L1D WRITEBACK ACCESS:          0  HIT:          0  MISS:          0
cpu0_L2C TOTAL     ACCESS:       1905  HIT:       1129  MISS:        776
cpu0_L2C LOAD      ACCESS:        864  HIT:        157  MISS:        707
cpu0_L2C RFO       ACCESS:        207  HIT:        154  MISS:         53
cpu0_L2C PREFETCH  ACCESS:          0  HIT:          0  MISS:          0
cpu0_L2C WRITEBACK ACCESS:        829  HIT:        813  MISS:         16
LLC TOTAL     ACCESS:       1467  HIT:        784  MISS:        683
LLC LOAD      ACCESS:        707  HIT:         64  MISS:        643
LLC RFO       ACCESS:         53  HIT:         13  MISS:         40
LLC PREFETCH  ACCESS:          0  HIT:          0  MISS:          0
LLC WRITEBACK ACCESS:        707  HIT:        707  MISS:          0
Heartbeat CPU 0 instructions: 54000002 cycles: 17431877 heartbeat IPC: 0.819629 cumulative IPC: 0.814674 (Simulation time: 0 hr 27 min 27 sec) 

Region of Interest Statistics
cpu0_DTLB TOTAL     ACCESS:     850543  HIT:     842906  MISS:       7637
cpu0_DTLB LOAD      ACCESS:     679834  HIT:     673401  MISS:       6433
cpu0_DTLB RFO       ACCESS:     170709  HIT:     169505  MISS:       1204
cpu0_DTLB PREFETCH  ACCESS:          0  HIT:          0  MISS:          0
cpu0_DTLB WRITEBACK ACCESS:          0  HIT:          0  MISS:          0
cpu0_ITLB TOTAL     ACCESS:     392080  HIT:     392080  MISS:          0
cpu0_ITLB LOAD      ACCESS:     392080  HIT:     392080  MISS:          0
cpu0_ITLB RFO       ACCESS:          0  HIT:          0  MISS:          0
cpu0_ITLB PREFETCH  ACCESS:          0  HIT:          0  MISS:          0
cpu0_ITLB WRITEBACK ACCESS:          0  HIT:          0  MISS:          0
cpu0_L1I TOTAL     ACCESS:     219622  HIT:     219622  MISS:          0
cpu0_L1I LOAD      ACCESS:     219622  HIT:     219622  MISS:          0
cpu0_L1I RFO       ACCESS:          0  HIT:          0  MISS:          0
cpu0_L1I PREFETCH  ACCESS:          0  HIT:          0  MISS:          0
cpu0_L1I WRITEBACK ACCESS:          0  HIT:          0  MISS:          0
cpu0_STLB TOTAL     ACCESS:       7637  HIT:       6474  MISS:       1163
cpu0_STLB LOAD      ACCESS:       6433  HIT:       5274  MISS:       1159
cpu0_STLB RFO       ACCESS:       1204  HIT:       1200  MISS:          4
cpu0_STLB PREFETCH  ACCESS:          0  HIT:          0  MISS:          0
cpu0_STLB WRITEBACK ACCESS:          0  HIT:          0  MISS:          0
cpu0_L1D TOTAL     ACCESS:    1021339  HIT:    1019260  MISS:       2079
cpu0_L1D LOAD      ACCESS:     717584  HIT:     715881  MISS:       1703
cpu0_L1D RFO       ACCESS:     302592  HIT:     302225  MISS:        367
cpu0_L1D PREFETCH  ACCESS:          0  HIT:          0  MISS:          0
cpu0_L1D WRITEBACK ACCESS:          0  HIT:          0  MISS:          0
cpu0_L2C TOTAL     ACCESS:       3718  HIT:       2162  MISS:       1556
cpu0_L2C LOAD      ACCESS:       1703  HIT:        280  MISS:       1423
cpu0_L2C RFO       ACCESS:        367  HIT:        273  MISS:         94
cpu0_L2C PREFETCH  ACCESS:          0  HIT:          0  MISS:          0
cpu0_L2C WRITEBACK ACCESS:       1639  HIT:       1600  MISS:         39
LLC TOTAL     ACCESS:       2937  HIT:       1568  MISS:       1369
LLC LOAD      ACCESS:       1423  HIT:        129  MISS:       1294
LLC RFO       ACCESS:         94  HIT:         19  MISS:         75
LLC PREFETCH  ACCESS:          0  HIT:          0  MISS:          0
LLC WRITEBACK ACCESS:       1420  HIT:       1420  MISS:          0
Heartbeat CPU 0 instructions: 56000004 cycles: 19843090 heartbeat IPC: 0.829459 cumulative IPC: 0.819544 (Simulation time: 0 hr 28 min 31 sec) 

Region of Interest Statistics
cpu0_DTLB TOTAL     ACCESS:    1270031  HIT:    1258566  MISS:      11465
cpu0_DTLB LOAD      ACCESS:    1015284  HIT:    1005604  MISS:       9680
cpu0_DTLB RFO       ACCESS:     254747  HIT:     252962  MISS:       1785
cpu0_DTLB PREFETCH  ACCESS:          0  HIT:          0  MISS:          0
cpu0_DTLB WRITEBACK ACCESS:          0  HIT:          0  MISS:          0
cpu0_ITLB TOTAL     ACCESS:     586406  HIT:     586406  MISS:          0
cpu0_ITLB LOAD      ACCESS:     586406  HIT:     586406  MISS:          0
cpu0_ITLB RFO       ACCESS:          0  HIT:          0  MISS:          0
cpu0_ITLB PREFETCH  ACCESS:          0  HIT:          0  MISS:          0
cpu0_ITLB WRITEBACK ACCESS:          0  HIT:          0  MISS:          0
cpu0_L1I TOTAL     ACCESS:     328321  HIT:     328321  MISS:          0
cpu0_L1I LOAD      ACCESS:     328321  HIT:     328321  MISS:          0
cpu0_L1I RFO       ACCESS:          0  HIT:          0  MISS:          0
cpu0_L1I PREFETCH  ACCESS:          0  HIT:          0  MISS:          0
cpu0_L1I WRITEBACK ACCESS:          0  HIT:          0  MISS:          0
cpu0_STLB TOTAL     ACCESS:      11465  HIT:       9735  MISS:       1730
cpu0_STLB LOAD      ACCESS:       9680  HIT:       7954  MISS:       1726
cpu0_STLB RFO       ACCESS:       1785  HIT:       1781  MISS:          4
cpu0_STLB PREFETCH  ACCESS:          0  HIT:          0  MISS:          0
cpu0_STLB WRITEBACK ACCESS:          0  HIT:          0  MISS:          0
cpu0_L1D TOTAL     ACCESS:    1524175  HIT:    1521260  MISS:       2915
cpu0_L1D LOAD      ACCESS:    1069309  HIT:    1066869  MISS:       2440
cpu0_L1D RFO       ACCESS:     453136  HIT:     452673  MISS:        463
cpu0_L1D PREFETCH  ACCESS:          0  HIT:          0  MISS:          0
cpu0_L1D WRITEBACK ACCESS:          0  HIT:          0  MISS:          0
cpu0_L2C TOTAL     ACCESS:       5258  HIT:       3007  MISS:       2251
cpu0_L2C LOAD      ACCESS:       2440  HIT:        356  MISS:       2084
cpu0_L2C RFO       ACCESS:        463  HIT:        346  MISS:        117
cpu0_L2C PREFETCH  ACCESS:          0  HIT:          0  MISS:          0
cpu0_L2C WRITEBACK ACCESS:       2343  HIT:       2293  MISS:         50
LLC TOTAL     ACCESS:       4233  HIT:       2231  MISS:       2002
LLC LOAD      ACCESS:       2084  HIT:        179  MISS:       1905
LLC RFO       ACCESS:        117  HIT:         20  MISS:         97
LLC PREFETCH  ACCESS:          0  HIT:          0  MISS:          0
LLC WRITEBACK ACCESS:       2032  HIT:       2032  MISS:          0
Heartbeat CPU 0 instructions: 58000003 cycles: 22274532 heartbeat IPC: 0.822557 cumulative IPC: 0.820295 (Simulation time: 0 hr 29 min 33 sec) 

Region of Interest Statistics
cpu0_DTLB TOTAL     ACCESS:    1695293  HIT:    1679885  MISS:      15408
cpu0_DTLB LOAD      ACCESS:    1354792  HIT:    1341749  MISS:      13043
cpu0_DTLB RFO       ACCESS:     340501  HIT:     338136  MISS:       2365
cpu0_DTLB PREFETCH  ACCESS:          0  HIT:          0  MISS:          0
cpu0_DTLB WRITEBACK ACCESS:          0  HIT:          0  MISS:          0
cpu0_ITLB TOTAL     ACCESS:     780624  HIT:     780624  MISS:          0
cpu0_ITLB LOAD      ACCESS:     780624  HIT:     780624  MISS:          0
cpu0_ITLB RFO       ACCESS:          0  HIT:          0  MISS:          0
cpu0_ITLB PREFETCH  ACCESS:          0  HIT:          0  MISS:          0
cpu0_ITLB WRITEBACK ACCESS:          0  HIT:          0  MISS:          0
cpu0_L1I TOTAL     ACCESS:     438860  HIT:     438860  MISS:          0
cpu0_L1I LOAD      ACCESS:     438860  HIT:     438860  MISS:          0
cpu0_L1I RFO       ACCESS:          0  HIT:          0  MISS:          0
cpu0_L1I PREFETCH  ACCESS:          0  HIT:          0  MISS:          0
cpu0_L1I WRITEBACK ACCESS:          0  HIT:          0  MISS:          0
cpu0_STLB TOTAL     ACCESS:      15408  HIT:      13103  MISS:       2305
cpu0_STLB LOAD      ACCESS:      13043  HIT:      10744  MISS:       2299
cpu0_STLB RFO       ACCESS:       2365  HIT:       2359  MISS:          6
cpu0_STLB PREFETCH  ACCESS:          0  HIT:          0  MISS:          0
cpu0_STLB WRITEBACK ACCESS:          0  HIT:          0  MISS:          0
cpu0_L1D TOTAL     ACCESS:    2034600  HIT:    2030755  MISS:       3845
cpu0_L1D LOAD      ACCESS:    1426587  HIT:    1423360  MISS:       3227
cpu0_L1D RFO       ACCESS:     605708  HIT:     605107  MISS:        601
cpu0_L1D PREFETCH  ACCESS:          0  HIT:          0  MISS:          0
cpu0_L1D WRITEBACK ACCESS:          0  HIT:          0  MISS:          0
cpu0_L2C TOTAL     ACCESS:       6956  HIT:       3932  MISS:       3024
cpu0_L2C LOAD      ACCESS:       3227  HIT:        439  MISS:       2788
cpu0_L2C RFO       ACCESS:        601  HIT:        427  MISS:        174
cpu0_L2C PREFETCH  ACCESS:          0  HIT:          0  MISS:          0
cpu0_L2C WRITEBACK ACCESS:       3111  HIT:       3052  MISS:         59
LLC TOTAL     ACCESS:       5697  HIT:       3011  MISS:       2686
LLC LOAD      ACCESS:       2788  HIT:        251  MISS:       2537
LLC RFO       ACCESS:        174  HIT:         25  MISS:        149
LLC PREFETCH  ACCESS:          0  HIT:          0  MISS:          0
LLC WRITEBACK ACCESS:       2732  HIT:       2732  MISS:          0
Heartbeat CPU 0 instructions: 60000004 cycles: 24696456 heartbeat IPC: 0.82579 cumulative IPC: 0.821388 (Simulation time: 0 hr 30 min 37 sec) 

Region of Interest Statistics
cpu0_DTLB TOTAL     ACCESS:    2116677  HIT:    2097502  MISS:      19175
cpu0_DTLB LOAD      ACCESS:    1691953  HIT:    1675729  MISS:      16224
cpu0_DTLB RFO       ACCESS:     424724  HIT:     421773  MISS:       2951
cpu0_DTLB PREFETCH  ACCESS:          0  HIT:          0  MISS:          0
cpu0_DTLB WRITEBACK ACCESS:          0  HIT:          0  MISS:          0
cpu0_ITLB TOTAL     ACCESS:     975703  HIT:     975703  MISS:          0
cpu0_ITLB LOAD      ACCESS:     975703  HIT:     975703  MISS:          0
cpu0_ITLB RFO       ACCESS:          0  HIT:          0  MISS:          0
cpu0_ITLB PREFETCH  ACCESS:          0  HIT:          0  MISS:          0
cpu0_ITLB WRITEBACK ACCESS:          0  HIT:          0  MISS:          0
cpu0_L1I TOTAL     ACCESS:     547969  HIT:     547969  MISS:          0
cpu0_L1I LOAD      ACCESS:     547969  HIT:     547969  MISS:          0
cpu0_L1I RFO       ACCESS:          0  HIT:          0  MISS:          0
cpu0_L1I PREFETCH  ACCESS:          0  HIT:          0  MISS:          0
cpu0_L1I WRITEBACK ACCESS:          0  HIT:          0  MISS:          0
cpu0_STLB TOTAL     ACCESS:      19175  HIT:      16298  MISS:       2877
cpu0_STLB LOAD      ACCESS:      16224  HIT:      13354  MISS:       2870
cpu0_STLB RFO       ACCESS:       2951  HIT:       2944  MISS:          7
cpu0_STLB PREFETCH  ACCESS:          0  HIT:          0  MISS:          0
cpu0_STLB WRITEBACK ACCESS:          0  HIT:          0  MISS:          0
cpu0_L1D TOTAL     ACCESS:    2541134  HIT:    2536420  MISS:       4714
cpu0_L1D LOAD      ACCESS:    1781967  HIT:    1777984  MISS:       3983
cpu0_L1D RFO       ACCESS:     756290  HIT:     755580  MISS:        710
cpu0_L1D PREFETCH  ACCESS:          0  HIT:          0  MISS:          0
cpu0_L1D WRITEBACK ACCESS:          0  HIT:          0  MISS:          0
cpu0_L2C TOTAL     ACCESS:       8574  HIT:       4841  MISS:       3733
cpu0_L2C LOAD      ACCESS:       3983  HIT:        527  MISS:       3456
cpu0_L2C RFO       ACCESS:        710  HIT:        505  MISS:        205
cpu0_L2C PREFETCH  ACCESS:          0  HIT:          0  MISS:          0
cpu0_L2C WRITEBACK ACCESS:       3860  HIT:       3791  MISS:         69
LLC TOTAL     ACCESS:       7042  HIT:       3700  MISS:       3342
LLC LOAD      ACCESS:       3456  HIT:        286  MISS:       3170
LLC RFO       ACCESS:        205  HIT:         33  MISS:        172
LLC PREFETCH  ACCESS:          0  HIT:          0  MISS:          0
LLC WRITEBACK ACCESS:       3378  HIT:       3378  MISS:          0
Heartbeat CPU 0 instructions: 62000002 cycles: 27148081 heartbeat IPC: 0.815785 cumulative IPC: 0.820449 (Simulation time: 0 hr 31 min 38 sec) 

Region of Interest Statistics
cpu0_DTLB TOTAL     ACCESS:    2544387  HIT:    2521283  MISS:      23104
cpu0_DTLB LOAD      ACCESS:    2033614  HIT:    2014062  MISS:      19552
cpu0_DTLB RFO       ACCESS:     510773  HIT:     507221  MISS:       3552
cpu0_DTLB PREFETCH  ACCESS:          0  HIT:          0  MISS:          0
cpu0_DTLB WRITEBACK ACCESS:          0  HIT:          0  MISS:          0
cpu0_ITLB TOTAL     ACCESS:    1172083  HIT:    1172083  MISS:          0
cpu0_ITLB LOAD      ACCESS:    1172083  HIT:    1172083  MISS:          0
cpu0_ITLB RFO       ACCESS:          0  HIT:          0  MISS:          0
cpu0_ITLB PREFETCH  ACCESS:          0  HIT:          0  MISS:          0
cpu0_ITLB WRITEBACK ACCESS:          0  HIT:          0  MISS:          0
cpu0_L1I TOTAL     ACCESS:     658755  HIT:     658754  MISS:          1
cpu0_L1I LOAD      ACCESS:     658755  HIT:     658754  MISS:          1
cpu0_L1I RFO       ACCESS:          0  HIT:          0  MISS:          0
cpu0_L1I PREFETCH  ACCESS:          0  HIT:          0  MISS:          0
cpu0_L1I WRITEBACK ACCESS:          0  HIT:          0  MISS:          0
cpu0_STLB TOTAL     ACCESS:      23104  HIT:      19617  MISS:       3487
cpu0_STLB LOAD      ACCESS:      19552  HIT:      16072  MISS:       3480
cpu0_STLB RFO       ACCESS:       3552  HIT:       3545  MISS:          7
cpu0_STLB PREFETCH  ACCESS:          0  HIT:          0  MISS:          0
cpu0_STLB WRITEBACK ACCESS:          0  HIT:          0  MISS:          0
cpu0_L1D TOTAL     ACCESS:    3054967  HIT:    3049328  MISS:       5639
cpu0_L1D LOAD      ACCESS:    2142918  HIT:    2138129  MISS:       4789
cpu0_L1D RFO       ACCESS:     908562  HIT:     907737  MISS:        825
cpu0_L1D PREFETCH  ACCESS:          0  HIT:          0  MISS:          0
cpu0_L1D WRITEBACK ACCESS:          0  HIT:          0  MISS:          0
cpu0_L2C TOTAL     ACCESS:      10289  HIT:       5771  MISS:       4518
cpu0_L2C LOAD      ACCESS:       4790  HIT:        603  MISS:       4187
cpu0_L2C RFO       ACCESS:        824  HIT:        581  MISS:        243
cpu0_L2C PREFETCH  ACCESS:          0  HIT:          0  MISS:          0
cpu0_L2C WRITEBACK ACCESS:       4650  HIT:       4566  MISS:         84
LLC TOTAL     ACCESS:       8536  HIT:       4501  MISS:       4035
LLC LOAD      ACCESS:       4187  HIT:        352  MISS:       3835
LLC RFO       ACCESS:        243  HIT:         43  MISS:        200
LLC PREFETCH  ACCESS:          0  HIT:          0  MISS:          0
LLC WRITEBACK ACCESS:       4102  HIT:       4102  MISS:          0
Heartbeat CPU 0 instructions: 64000003 cycles: 29575735 heartbeat IPC: 0.823841 cumulative IPC: 0.820932 (Simulation time: 0 hr 32 min 38 sec) 

Region of Interest Statistics
cpu0_DTLB TOTAL     ACCESS:    2964084  HIT:    2936950  MISS:      27134
cpu0_DTLB LOAD      ACCESS:    2369784  HIT:    2346768  MISS:      23016
cpu0_DTLB RFO       ACCESS:     594300  HIT:     590182  MISS:       4118
cpu0_DTLB PREFETCH  ACCESS:          0  HIT:          0  MISS:          0
cpu0_DTLB WRITEBACK ACCESS:          0  HIT:          0  MISS:          0
cpu0_ITLB TOTAL     ACCESS:    1366757  HIT:    1366757  MISS:          0
cpu0_ITLB LOAD      ACCESS:    1366757  HIT:    1366757  MISS:          0
cpu0_ITLB RFO       ACCESS:          0  HIT:          0  MISS:          0
cpu0_ITLB PREFETCH  ACCESS:          0  HIT:          0  MISS:          0
cpu0_ITLB WRITEBACK ACCESS:          0  HIT:          0  MISS:          0
cpu0_L1I TOTAL     ACCESS:     765388  HIT:     765383  MISS:          5
cpu0_L1I LOAD      ACCESS:     765388  HIT:     765383  MISS:          5
cpu0_L1I RFO       ACCESS:          0  HIT:          0  MISS:          0
cpu0_L1I PREFETCH  ACCESS:          0  HIT:          0  MISS:          0
cpu0_L1I WRITEBACK ACCESS:          0  HIT:          0  MISS:          0
cpu0_STLB TOTAL     ACCESS:      27134  HIT:      23048  MISS:       4086
cpu0_STLB LOAD      ACCESS:      23016  HIT:      18942  MISS:       4074
cpu0_STLB RFO       ACCESS:       4118  HIT:       4106  MISS:         12
cpu0_STLB PREFETCH  ACCESS:          0  HIT:          0  MISS:          0
cpu0_STLB WRITEBACK ACCESS:          0  HIT:          0  MISS:          0
cpu0_L1D TOTAL     ACCESS:    3558181  HIT:    3551278  MISS:       6903
cpu0_L1D LOAD      ACCESS:    2497110  HIT:    2491324  MISS:       5786
cpu0_L1D RFO       ACCESS:    1056985  HIT:    1055900  MISS:       1085
cpu0_L1D PREFETCH  ACCESS:          0  HIT:          0  MISS:          0
cpu0_L1D WRITEBACK ACCESS:          0  HIT:          0  MISS:          0
cpu0_L2C TOTAL     ACCESS:      12575  HIT:       7022  MISS:       5553
cpu0_L2C LOAD      ACCESS:       5791  HIT:        748  MISS:       5043
cpu0_L2C RFO       ACCESS:       1084  HIT:        711  MISS:        373
cpu0_L2C PREFETCH  ACCESS:          0  HIT:          0  MISS:          0
cpu0_L2C WRITEBACK ACCESS:       5668  HIT:       5538  MISS:        130
LLC TOTAL     ACCESS:      10476  HIT:       5758  MISS:       4718
LLC LOAD      ACCESS:       5043  HIT:        554  MISS:       4489
LLC RFO       ACCESS:        373  HIT:        144  MISS:        229
LLC PREFETCH  ACCESS:          0  HIT:          0  MISS:          0
LLC WRITEBACK ACCESS:       5053  HIT:       5053  MISS:          0
Heartbeat CPU 0 instructions: 66000002 cycles: 31942036 heartbeat IPC: 0.845201 cumulative IPC: 0.823889 (Simulation time: 0 hr 33 min 43 sec) 

Region of Interest Statistics
cpu0_DTLB TOTAL     ACCESS:    3390681  HIT:    3360051  MISS:      30630
cpu0_DTLB LOAD      ACCESS:    2705719  HIT:    2679691  MISS:      26028
cpu0_DTLB RFO       ACCESS:     684962  HIT:     680360  MISS:       4602
cpu0_DTLB PREFETCH  ACCESS:          0  HIT:          0  MISS:          0
cpu0_DTLB WRITEBACK ACCESS:          0  HIT:          0  MISS:          0
cpu0_ITLB TOTAL     ACCESS:    1561987  HIT:    1561987  MISS:          0
cpu0_ITLB LOAD      ACCESS:    1561987  HIT:    1561987  MISS:          0
cpu0_ITLB RFO       ACCESS:          0  HIT:          0  MISS:          0
cpu0_ITLB PREFETCH  ACCESS:          0  HIT:          0  MISS:          0
cpu0_ITLB WRITEBACK ACCESS:          0  HIT:          0  MISS:          0
cpu0_L1I TOTAL     ACCESS:     885055  HIT:     885025  MISS:         30
cpu0_L1I LOAD      ACCESS:     885055  HIT:     885025  MISS:         30
cpu0_L1I RFO       ACCESS:          0  HIT:          0  MISS:          0
cpu0_L1I PREFETCH  ACCESS:          0  HIT:          0  MISS:          0
cpu0_L1I WRITEBACK ACCESS:          0  HIT:          0  MISS:          0
cpu0_STLB TOTAL     ACCESS:      30630  HIT:      25964  MISS:       4666
cpu0_STLB LOAD      ACCESS:      26028  HIT:      21379  MISS:       4649
cpu0_STLB RFO       ACCESS:       4602  HIT:       4585  MISS:         17
cpu0_STLB PREFETCH  ACCESS:          0  HIT:          0  MISS:          0
cpu0_STLB WRITEBACK ACCESS:          0  HIT:          0  MISS:          0
cpu0_L1D TOTAL     ACCESS:    4063510  HIT:    4055237  MISS:       8273
cpu0_L1D LOAD      ACCESS:    2844507  HIT:    2837693  MISS:       6814
cpu0_L1D RFO       ACCESS:    1214337  HIT:    1212910  MISS:       1427
cpu0_L1D PREFETCH  ACCESS:          0  HIT:          0  MISS:          0
cpu0_L1D WRITEBACK ACCESS:          0  HIT:          0  MISS:          0
cpu0_L2C TOTAL     ACCESS:      14894  HIT:       8394  MISS:       6500
cpu0_L2C LOAD      ACCESS:       6844  HIT:       1004  MISS:       5840
cpu0_L2C RFO       ACCESS:       1426  HIT:        943  MISS:        483
cpu0_L2C PREFETCH  ACCESS:          0  HIT:          0  MISS:          0
cpu0_L2C WRITEBACK ACCESS:       6592  HIT:       6422  MISS:        170
LLC TOTAL     ACCESS:      12242  HIT:       6887  MISS:       5355
LLC LOAD      ACCESS:       5840  HIT:        759  MISS:       5081
LLC RFO       ACCESS:        483  HIT:        209  MISS:        274
LLC PREFETCH  ACCESS:          0  HIT:          0  MISS:          0
LLC WRITEBACK ACCESS:       5912  HIT:       5912  MISS:          0
Heartbeat CPU 0 instructions: 68000000 cycles: 34337127 heartbeat IPC: 0.835041 cumulative IPC: 0.825113 (Simulation time: 0 hr 34 min 44 sec) 

Region of Interest Statistics
cpu0_DTLB TOTAL     ACCESS:    3813947  HIT:    3779699  MISS:      34248
cpu0_DTLB LOAD      ACCESS:    3040822  HIT:    3011663  MISS:      29159
cpu0_DTLB RFO       ACCESS:     773125  HIT:     768036  MISS:       5089
cpu0_DTLB PREFETCH  ACCESS:          0  HIT:          0  MISS:          0
cpu0_DTLB WRITEBACK ACCESS:          0  HIT:          0  MISS:          0
cpu0_ITLB TOTAL     ACCESS:    1757792  HIT:    1757792  MISS:          0
cpu0_ITLB LOAD      ACCESS:    1757792  HIT:    1757792  MISS:          0
cpu0_ITLB RFO       ACCESS:          0  HIT:          0  MISS:          0
cpu0_ITLB PREFETCH  ACCESS:          0  HIT:          0  MISS:          0
cpu0_ITLB WRITEBACK ACCESS:          0  HIT:          0  MISS:          0
cpu0_L1I TOTAL     ACCESS:    1000793  HIT:    1000747  MISS:         46
cpu0_L1I LOAD      ACCESS:    1000793  HIT:    1000747  MISS:         46
cpu0_L1I RFO       ACCESS:          0  HIT:          0  MISS:          0
cpu0_L1I PREFETCH  ACCESS:          0  HIT:          0  MISS:          0
cpu0_L1I WRITEBACK ACCESS:          0  HIT:          0  MISS:          0
cpu0_STLB TOTAL     ACCESS:      34248  HIT:      29005  MISS:       5243
cpu0_STLB LOAD      ACCESS:      29159  HIT:      23933  MISS:       5226
cpu0_STLB RFO       ACCESS:       5089  HIT:       5072  MISS:         17
cpu0_STLB PREFETCH  ACCESS:          0  HIT:          0  MISS:          0
cpu0_STLB WRITEBACK ACCESS:          0  HIT:          0  MISS:          0
cpu0_L1D TOTAL     ACCESS:    4565609  HIT:    4556093  MISS:       9516
cpu0_L1D LOAD      ACCESS:    3192133  HIT:    3184353  MISS:       7780
cpu0_L1D RFO       ACCESS:    1368233  HIT:    1366532  MISS:       1701
cpu0_L1D PREFETCH  ACCESS:          0  HIT:          0  MISS:          0
cpu0_L1D WRITEBACK ACCESS:          0  HIT:          0  MISS:          0
cpu0_L2C TOTAL     ACCESS:      17016  HIT:       9728  MISS:       7288
cpu0_L2C LOAD      ACCESS:       7826  HIT:       1275  MISS:       6551
cpu0_L2C RFO       ACCESS:       1700  HIT:       1156  MISS:        544
cpu0_L2C PREFETCH  ACCESS:          0  HIT:          0  MISS:          0
cpu0_L2C WRITEBACK ACCESS:       7455  HIT:       7269  MISS:        186
LLC TOTAL     ACCESS:      13664  HIT:       7664  MISS:       6000
LLC LOAD      ACCESS:       6551  HIT:        860  MISS:       5691
LLC RFO       ACCESS:        544  HIT:        235  MISS:        309
LLC PREFETCH  ACCESS:          0  HIT:          0  MISS:          0
LLC WRITEBACK ACCESS:       6562  HIT:       6562  MISS:          0
Heartbeat CPU 0 instructions: 70000004 cycles: 36723562 heartbeat IPC: 0.838072 cumulative IPC: 0.826391 (Simulation time: 0 hr 35 min 46 sec) 

Region of Interest Statistics
cpu0_DTLB TOTAL     ACCESS:    4239377  HIT:    4201409  MISS:      37968
cpu0_DTLB LOAD      ACCESS:    3380724  HIT:    3348409  MISS:      32315
cpu0_DTLB RFO       ACCESS:     858653  HIT:     853000  MISS:       5653
cpu0_DTLB PREFETCH  ACCESS:          0  HIT:          0  MISS:          0
cpu0_DTLB WRITEBACK ACCESS:          0  HIT:          0  MISS:          0
cpu0_ITLB TOTAL     ACCESS:    1955833  HIT:    1955833  MISS:          0
cpu0_ITLB LOAD      ACCESS:    1955833  HIT:    1955833  MISS:          0
cpu0_ITLB RFO       ACCESS:          0  HIT:          0  MISS:          0
cpu0_ITLB PREFETCH  ACCESS:          0  HIT:          0  MISS:          0
cpu0_ITLB WRITEBACK ACCESS:          0  HIT:          0  MISS:          0
cpu0_L1I TOTAL     ACCESS:    1107131  HIT:    1107070  MISS:         61
cpu0_L1I LOAD      ACCESS:    1107131  HIT:    1107070  MISS:         61
cpu0_L1I RFO       ACCESS:          0  HIT:          0  MISS:          0
cpu0_L1I PREFETCH  ACCESS:          0  HIT:          0  MISS:          0
cpu0_L1I WRITEBACK ACCESS:          0  HIT:          0  MISS:          0
cpu0_STLB TOTAL     ACCESS:      37968  HIT:      32117  MISS:       5851
cpu0_STLB LOAD      ACCESS:      32315  HIT:      26482  MISS:       5833
cpu0_STLB RFO       ACCESS:       5653  HIT:       5635  MISS:         18
cpu0_STLB PREFETCH  ACCESS:          0  HIT:          0  MISS:          0
cpu0_STLB WRITEBACK ACCESS:          0  HIT:          0  MISS:          0
cpu0_L1D TOTAL     ACCESS:    5076577  HIT:    5065707  MISS:      10870
cpu0_L1D LOAD      ACCESS:    3551465  HIT:    3542613  MISS:       8852
cpu0_L1D RFO       ACCESS:    1519261  HIT:    1517283  MISS:       1978
cpu0_L1D PREFETCH  ACCESS:          0  HIT:          0  MISS:          0
cpu0_L1D WRITEBACK ACCESS:          0  HIT:          0  MISS:          0
cpu0_L2C TOTAL     ACCESS:      19318  HIT:      11139  MISS:       8179
cpu0_L2C LOAD      ACCESS:       8913  HIT:       1579  MISS:       7334
cpu0_L2C RFO       ACCESS:       1977  HIT:       1350  MISS:        627
cpu0_L2C PREFETCH  ACCESS:          0  HIT:          0  MISS:          0
cpu0_L2C WRITEBACK ACCESS:       8388  HIT:       8178  MISS:        210
LLC TOTAL     ACCESS:      15254  HIT:       8569  MISS:       6685
LLC LOAD      ACCESS:       7334  HIT:        993  MISS:       6341
LLC RFO       ACCESS:        627  HIT:        283  MISS:        344
LLC PREFETCH  ACCESS:          0  HIT:          0  MISS:          0
LLC WRITEBACK ACCESS:       7285  HIT:       7285  MISS:          0
Heartbeat CPU 0 instructions: 72000000 cycles: 39071563 heartbeat IPC: 0.851787 cumulative IPC: 0.828637 (Simulation time: 0 hr 36 min 46 sec) 

Region of Interest Statistics
cpu0_DTLB TOTAL     ACCESS:    4668813  HIT:    4627252  MISS:      41561
cpu0_DTLB LOAD      ACCESS:    3721675  HIT:    3686301  MISS:      35374
cpu0_DTLB RFO       ACCESS:     947138  HIT:     940951  MISS:       6187
cpu0_DTLB PREFETCH  ACCESS:          0  HIT:          0  MISS:          0
cpu0_DTLB WRITEBACK ACCESS:          0  HIT:          0  MISS:          0
cpu0_ITLB TOTAL     ACCESS:    2153841  HIT:    2153841  MISS:          0
cpu0_ITLB LOAD      ACCESS:    2153841  HIT:    2153841  MISS:          0
cpu0_ITLB RFO       ACCESS:          0  HIT:          0  MISS:          0
cpu0_ITLB PREFETCH  ACCESS:          0  HIT:          0  MISS:          0
cpu0_ITLB WRITEBACK ACCESS:          0  HIT:          0  MISS:          0
cpu0_L1I TOTAL     ACCESS:    1218563  HIT:    1218473  MISS:         90
cpu0_L1I LOAD      ACCESS:    1218563  HIT:    1218473  MISS:         90
cpu0_L1I RFO       ACCESS:          0  HIT:          0  MISS:          0
cpu0_L1I PREFETCH  ACCESS:          0  HIT:          0  MISS:          0
cpu0_L1I WRITEBACK ACCESS:          0  HIT:          0  MISS:          0
cpu0_STLB TOTAL     ACCESS:      41561  HIT:      35100  MISS:       6461
cpu0_STLB LOAD      ACCESS:      35374  HIT:      28935  MISS:       6439
cpu0_STLB RFO       ACCESS:       6187  HIT:       6165  MISS:         22
cpu0_STLB PREFETCH  ACCESS:          0  HIT:          0  MISS:          0
cpu0_STLB WRITEBACK ACCESS:          0  HIT:          0  MISS:          0
cpu0_L1D TOTAL     ACCESS:    5590306  HIT:    5577994  MISS:      12312
cpu0_L1D LOAD      ACCESS:    3910022  HIT:    3900088  MISS:       9934
cpu0_L1D RFO       ACCESS:    1673823  HIT:    1671488  MISS:       2335
cpu0_L1D PREFETCH  ACCESS:          0  HIT:          0  MISS:          0
cpu0_L1D WRITEBACK ACCESS:          0  HIT:          0  MISS:          0
cpu0_L2C TOTAL     ACCESS:      21787  HIT:      12746  MISS:       9041
cpu0_L2C LOAD      ACCESS:      10024  HIT:       1956  MISS:       8068
cpu0_L2C RFO       ACCESS:       2334  HIT:       1606  MISS:        728
cpu0_L2C PREFETCH  ACCESS:          0  HIT:          0  MISS:          0
cpu0_L2C WRITEBACK ACCESS:       9386  HIT:       9150  MISS:        236
LLC TOTAL     ACCESS:      16782  HIT:       9423  MISS:       7359
LLC LOAD      ACCESS:       8068  HIT:       1092  MISS:       6976
LLC RFO       ACCESS:        728  HIT:        345  MISS:        383
LLC PREFETCH  ACCESS:          0  HIT:          0  MISS:          0
LLC WRITEBACK ACCESS:       7977  HIT:       7977  MISS:          0
Heartbeat CPU 0 instructions: 74000001 cycles: 41414589 heartbeat IPC: 0.853597 cumulative IPC: 0.830661 (Simulation time: 0 hr 37 min 47 sec) 

Region of Interest Statistics
cpu0_DTLB TOTAL     ACCESS:    5091730  HIT:    5046531  MISS:      45199
cpu0_DTLB LOAD      ACCESS:    4059734  HIT:    4021305  MISS:      38429
cpu0_DTLB RFO       ACCESS:    1031996  HIT:    1025226  MISS:       6770
cpu0_DTLB PREFETCH  ACCESS:          0  HIT:          0  MISS:          0
cpu0_DTLB WRITEBACK ACCESS:          0  HIT:          0  MISS:          0
cpu0_ITLB TOTAL     ACCESS:    2349379  HIT:    2349379  MISS:          0
cpu0_ITLB LOAD      ACCESS:    2349379  HIT:    2349379  MISS:          0
cpu0_ITLB RFO       ACCESS:          0  HIT:          0  MISS:          0
cpu0_ITLB PREFETCH  ACCESS:          0  HIT:          0  MISS:          0
cpu0_ITLB WRITEBACK ACCESS:          0  HIT:          0  MISS:          0
cpu0_L1I TOTAL     ACCESS:    1330016  HIT:    1329897  MISS:        119
cpu0_L1I LOAD      ACCESS:    1330016  HIT:    1329897  MISS:        119
cpu0_L1I RFO       ACCESS:          0  HIT:          0  MISS:          0
cpu0_L1I PREFETCH  ACCESS:          0  HIT:          0  MISS:          0
cpu0_L1I WRITEBACK ACCESS:          0  HIT:          0  MISS:          0
cpu0_STLB TOTAL     ACCESS:      45199  HIT:      38240  MISS:       6959
cpu0_STLB LOAD      ACCESS:      38429  HIT:      31493  MISS:       6936
cpu0_STLB RFO       ACCESS:       6770  HIT:       6747  MISS:         23
cpu0_STLB PREFETCH  ACCESS:          0  HIT:          0  MISS:          0
cpu0_STLB WRITEBACK ACCESS:          0  HIT:          0  MISS:          0
cpu0_L1D TOTAL     ACCESS:    6094484  HIT:    6081170  MISS:      13314
cpu0_L1D LOAD      ACCESS:    4263847  HIT:    4253112  MISS:      10735
cpu0_L1D RFO       ACCESS:    1823678  HIT:    1821143  MISS:       2535
cpu0_L1D PREFETCH  ACCESS:          0  HIT:          0  MISS:          0
cpu0_L1D WRITEBACK ACCESS:          0  HIT:          0  MISS:          0
cpu0_L2C TOTAL     ACCESS:      23548  HIT:      13809  MISS:       9739
cpu0_L2C LOAD      ACCESS:      10854  HIT:       2166  MISS:       8688
cpu0_L2C RFO       ACCESS:       2534  HIT:       1752  MISS:        782
cpu0_L2C PREFETCH  ACCESS:          0  HIT:          0  MISS:          0
cpu0_L2C WRITEBACK ACCESS:      10116  HIT:       9857  MISS:        259
LLC TOTAL     ACCESS:      18022  HIT:      10074  MISS:       7948
LLC LOAD      ACCESS:       8688  HIT:       1162  MISS:       7526
LLC RFO       ACCESS:        782  HIT:        360  MISS:        422
LLC PREFETCH  ACCESS:          0  HIT:          0  MISS:          0
LLC WRITEBACK ACCESS:       8542  HIT:       8542  MISS:          0
Heartbeat CPU 0 instructions: 76000000 cycles: 43831673 heartbeat IPC: 0.827443 cumulative IPC: 0.830413 (Simulation time: 0 hr 38 min 50 sec) 

Region of Interest Statistics
cpu0_DTLB TOTAL     ACCESS:    5510286  HIT:    5460810  MISS:      49476
cpu0_DTLB LOAD      ACCESS:    4397636  HIT:    4355610  MISS:      42026
cpu0_DTLB RFO       ACCESS:    1112650  HIT:    1105200  MISS:       7450
cpu0_DTLB PREFETCH  ACCESS:          0  HIT:          0  MISS:          0
cpu0_DTLB WRITEBACK ACCESS:          0  HIT:          0  MISS:          0
cpu0_ITLB TOTAL     ACCESS:    2543931  HIT:    2543931  MISS:          0
cpu0_ITLB LOAD      ACCESS:    2543931  HIT:    2543931  MISS:          0
cpu0_ITLB RFO       ACCESS:          0  HIT:          0  MISS:          0
cpu0_ITLB PREFETCH  ACCESS:          0  HIT:          0  MISS:          0
cpu0_ITLB WRITEBACK ACCESS:          0  HIT:          0  MISS:          0
cpu0_L1I TOTAL     ACCESS:    1433179  HIT:    1433057  MISS:        122
cpu0_L1I LOAD      ACCESS:    1433179  HIT:    1433057  MISS:        122
cpu0_L1I RFO       ACCESS:          0  HIT:          0  MISS:          0
cpu0_L1I PREFETCH  ACCESS:          0  HIT:          0  MISS:          0
cpu0_L1I WRITEBACK ACCESS:          0  HIT:          0  MISS:          0
cpu0_STLB TOTAL     ACCESS:      49476  HIT:      41948  MISS:       7528
cpu0_STLB LOAD      ACCESS:      42026  HIT:      34530  MISS:       7496
cpu0_STLB RFO       ACCESS:       7450  HIT:       7418  MISS:         32
cpu0_STLB PREFETCH  ACCESS:          0  HIT:          0  MISS:          0
cpu0_STLB WRITEBACK ACCESS:          0  HIT:          0  MISS:          0
cpu0_L1D TOTAL     ACCESS:    6596108  HIT:    6581761  MISS:      14347
cpu0_L1D LOAD      ACCESS:    4620383  HIT:    4608816  MISS:      11567
cpu0_L1D RFO       ACCESS:    1968197  HIT:    1965462  MISS:       2735
cpu0_L1D PREFETCH  ACCESS:          0  HIT:          0  MISS:          0
cpu0_L1D WRITEBACK ACCESS:          0  HIT:          0  MISS:          0
cpu0_L2C TOTAL     ACCESS:      25415  HIT:      14843  MISS:      10572
cpu0_L2C LOAD      ACCESS:      11689  HIT:       2294  MISS:       9395
cpu0_L2C RFO       ACCESS:       2734  HIT:       1861  MISS:        873
cpu0_L2C PREFETCH  ACCESS:          0  HIT:          0  MISS:          0
cpu0_L2C WRITEBACK ACCESS:      10947  HIT:      10654  MISS:        293
LLC TOTAL     ACCESS:      19515  HIT:      10903  MISS:       8612
LLC LOAD      ACCESS:       9395  HIT:       1249  MISS:       8146
LLC RFO       ACCESS:        873  HIT:        407  MISS:        466
LLC PREFETCH  ACCESS:          0  HIT:          0  MISS:          0
LLC WRITEBACK ACCESS:       9236  HIT:       9236  MISS:          0
Heartbeat CPU 0 instructions: 78000003 cycles: 46165373 heartbeat IPC: 0.857009 cumulative IPC: 0.832258 (Simulation time: 0 hr 39 min 51 sec) 

Region of Interest Statistics
cpu0_DTLB TOTAL     ACCESS:    5934022  HIT:    5880961  MISS:      53061
cpu0_DTLB LOAD      ACCESS:    4733632  HIT:    4688603  MISS:      45029
cpu0_DTLB RFO       ACCESS:    1200390  HIT:    1192358  MISS:       8032
cpu0_DTLB PREFETCH  ACCESS:          0  HIT:          0  MISS:          0
cpu0_DTLB WRITEBACK ACCESS:          0  HIT:          0  MISS:          0
cpu0_ITLB TOTAL     ACCESS:    2739772  HIT:    2739772  MISS:          0
cpu0_ITLB LOAD      ACCESS:    2739772  HIT:    2739772  MISS:          0
cpu0_ITLB RFO       ACCESS:          0  HIT:          0  MISS:          0
cpu0_ITLB PREFETCH  ACCESS:          0  HIT:          0  MISS:          0
cpu0_ITLB WRITEBACK ACCESS:          0  HIT:          0  MISS:          0
cpu0_L1I TOTAL     ACCESS:    1545347  HIT:    1545197  MISS:        150
cpu0_L1I LOAD      ACCESS:    1545347  HIT:    1545197  MISS:        150
cpu0_L1I RFO       ACCESS:          0  HIT:          0  MISS:          0
cpu0_L1I PREFETCH  ACCESS:          0  HIT:          0  MISS:          0
cpu0_L1I WRITEBACK ACCESS:          0  HIT:          0  MISS:          0
cpu0_STLB TOTAL     ACCESS:      53061  HIT:      44987  MISS:       8074
cpu0_STLB LOAD      ACCESS:      45029  HIT:      36988  MISS:       8041
cpu0_STLB RFO       ACCESS:       8032  HIT:       7999  MISS:         33
cpu0_STLB PREFETCH  ACCESS:          0  HIT:          0  MISS:          0
cpu0_STLB WRITEBACK ACCESS:          0  HIT:          0  MISS:          0
cpu0_L1D TOTAL     ACCESS:    7101356  HIT:    7085533  MISS:      15823
cpu0_L1D LOAD      ACCESS:    4971745  HIT:    4959114  MISS:      12631
cpu0_L1D RFO       ACCESS:    2121537  HIT:    2118399  MISS:       3138
cpu0_L1D PREFETCH  ACCESS:          0  HIT:          0  MISS:          0
cpu0_L1D WRITEBACK ACCESS:          0  HIT:          0  MISS:          0
cpu0_L2C TOTAL     ACCESS:      28006  HIT:      16480  MISS:      11526
cpu0_L2C LOAD      ACCESS:      12781  HIT:       2617  MISS:      10164
cpu0_L2C RFO       ACCESS:       3137  HIT:       2141  MISS:        996
cpu0_L2C PREFETCH  ACCESS:          0  HIT:          0  MISS:          0
cpu0_L2C WRITEBACK ACCESS:      12034  HIT:      11685  MISS:        349
LLC TOTAL     ACCESS:      21240  HIT:      11997  MISS:       9243
LLC LOAD      ACCESS:      10164  HIT:       1418  MISS:       8746
LLC RFO       ACCESS:        996  HIT:        499  MISS:        497
LLC PREFETCH  ACCESS:          0  HIT:          0  MISS:          0
LLC WRITEBACK ACCESS:      10063  HIT:      10063  MISS:          0
Heartbeat CPU 0 instructions: 80000003 cycles: 48489940 heartbeat IPC: 0.860375 cumulative IPC: 0.834075 (Simulation time: 0 hr 40 min 51 sec) 

Region of Interest Statistics
cpu0_DTLB TOTAL     ACCESS:    6363621  HIT:    6307065  MISS:      56556
cpu0_DTLB LOAD      ACCESS:    5071962  HIT:    5023982  MISS:      47980
cpu0_DTLB RFO       ACCESS:    1291659  HIT:    1283083  MISS:       8576
cpu0_DTLB PREFETCH  ACCESS:          0  HIT:          0  MISS:          0
cpu0_DTLB WRITEBACK ACCESS:          0  HIT:          0  MISS:          0
cpu0_ITLB TOTAL     ACCESS:    2933970  HIT:    2933970  MISS:          0
cpu0_ITLB LOAD      ACCESS:    2933970  HIT:    2933970  MISS:          0
cpu0_ITLB RFO       ACCESS:          0  HIT:          0  MISS:          0
cpu0_ITLB PREFETCH  ACCESS:          0  HIT:          0  MISS:          0
cpu0_ITLB WRITEBACK ACCESS:          0  HIT:          0  MISS:          0
cpu0_L1I TOTAL     ACCESS:    1669108  HIT:    1668938  MISS:        170
cpu0_L1I LOAD      ACCESS:    1669108  HIT:    1668938  MISS:        170
cpu0_L1I RFO       ACCESS:          0  HIT:          0  MISS:          0
cpu0_L1I PREFETCH  ACCESS:          0  HIT:          0  MISS:          0
cpu0_L1I WRITEBACK ACCESS:          0  HIT:          0  MISS:          0
cpu0_STLB TOTAL     ACCESS:      56556  HIT:      47949  MISS:       8607
cpu0_STLB LOAD      ACCESS:      47980  HIT:      39407  MISS:       8573
cpu0_STLB RFO       ACCESS:       8576  HIT:       8542  MISS:         34
cpu0_STLB PREFETCH  ACCESS:          0  HIT:          0  MISS:          0
cpu0_STLB WRITEBACK ACCESS:          0  HIT:          0  MISS:          0
cpu0_L1D TOTAL     ACCESS:    7613546  HIT:    7596576  MISS:      16970
cpu0_L1D LOAD      ACCESS:    5323998  HIT:    5310441  MISS:      13557
cpu0_L1D RFO       ACCESS:    2280941  HIT:    2277583  MISS:       3358
cpu0_L1D PREFETCH  ACCESS:          0  HIT:          0  MISS:          0
cpu0_L1D WRITEBACK ACCESS:          0  HIT:          0  MISS:          0
cpu0_L2C TOTAL     ACCESS:      29994  HIT:      17751  MISS:      12243
cpu0_L2C LOAD      ACCESS:      13727  HIT:       2896  MISS:      10831
cpu0_L2C RFO       ACCESS:       3357  HIT:       2322  MISS:       1035
cpu0_L2C PREFETCH  ACCESS:          0  HIT:          0  MISS:          0
cpu0_L2C WRITEBACK ACCESS:      12855  HIT:      12495  MISS:        360
LLC TOTAL     ACCESS:      22582  HIT:      12735  MISS:       9847
LLC LOAD      ACCESS:      10831  HIT:       1503  MISS:       9328
LLC RFO       ACCESS:       1035  HIT:        516  MISS:        519
LLC PREFETCH  ACCESS:          0  HIT:          0  MISS:          0
LLC WRITEBACK ACCESS:      10699  HIT:      10699  MISS:          0
Heartbeat CPU 0 instructions: 82000004 cycles: 50868522 heartbeat IPC: 0.840838 cumulative IPC: 0.834494 (Simulation time: 0 hr 41 min 51 sec) 

Region of Interest Statistics
cpu0_DTLB TOTAL     ACCESS:    6786756  HIT:    6726559  MISS:      60197
cpu0_DTLB LOAD      ACCESS:    5409107  HIT:    5358031  MISS:      51076
cpu0_DTLB RFO       ACCESS:    1377649  HIT:    1368528  MISS:       9121
cpu0_DTLB PREFETCH  ACCESS:          0  HIT:          0  MISS:          0
cpu0_DTLB WRITEBACK ACCESS:          0  HIT:          0  MISS:          0
cpu0_ITLB TOTAL     ACCESS:    3129216  HIT:    3129216  MISS:          0
cpu0_ITLB LOAD      ACCESS:    3129216  HIT:    3129216  MISS:          0
cpu0_ITLB RFO       ACCESS:          0  HIT:          0  MISS:          0
cpu0_ITLB PREFETCH  ACCESS:          0  HIT:          0  MISS:          0
cpu0_ITLB WRITEBACK ACCESS:          0  HIT:          0  MISS:          0
cpu0_L1I TOTAL     ACCESS:    1780220  HIT:    1780034  MISS:        186
cpu0_L1I LOAD      ACCESS:    1780220  HIT:    1780034  MISS:        186
cpu0_L1I RFO       ACCESS:          0  HIT:          0  MISS:          0
cpu0_L1I PREFETCH  ACCESS:          0  HIT:          0  MISS:          0
cpu0_L1I WRITEBACK ACCESS:          0  HIT:          0  MISS:          0
cpu0_STLB TOTAL     ACCESS:      60197  HIT:      51029  MISS:       9168
cpu0_STLB LOAD      ACCESS:      51076  HIT:      41943  MISS:       9133
cpu0_STLB RFO       ACCESS:       9121  HIT:       9086  MISS:         35
cpu0_STLB PREFETCH  ACCESS:          0  HIT:          0  MISS:          0
cpu0_STLB WRITEBACK ACCESS:          0  HIT:          0  MISS:          0
cpu0_L1D TOTAL     ACCESS:    8122047  HIT:    8104013  MISS:      18034
cpu0_L1D LOAD      ACCESS:    5678928  HIT:    5664518  MISS:      14410
cpu0_L1D RFO       ACCESS:    2433951  HIT:    2430383  MISS:       3568
cpu0_L1D PREFETCH  ACCESS:          0  HIT:          0  MISS:          0
cpu0_L1D WRITEBACK ACCESS:          0  HIT:          0  MISS:          0
cpu0_L2C TOTAL     ACCESS:      31863  HIT:      18841  MISS:      13022
cpu0_L2C LOAD      ACCESS:      14596  HIT:       3078  MISS:      11518
cpu0_L2C RFO       ACCESS:       3567  HIT:       2464  MISS:       1103
cpu0_L2C PREFETCH  ACCESS:          0  HIT:          0  MISS:          0
cpu0_L2C WRITEBACK ACCESS:      13644  HIT:      13260  MISS:        384
LLC TOTAL     ACCESS:      24012  HIT:      13515  MISS:      10497
LLC LOAD      ACCESS:      11518  HIT:       1573  MISS:       9945
LLC RFO       ACCESS:       1103  HIT:        551  MISS:        552
LLC PREFETCH  ACCESS:          0  HIT:          0  MISS:          0
LLC WRITEBACK ACCESS:      11374  HIT:      11374  MISS:          0
Heartbeat CPU 0 instructions: 84000001 cycles: 53256895 heartbeat IPC: 0.837389 cumulative IPC: 0.834664 (Simulation time: 0 hr 42 min 55 sec) 

Region of Interest Statistics
cpu0_DTLB TOTAL     ACCESS:    7209292  HIT:    7145455  MISS:      63837
cpu0_DTLB LOAD      ACCESS:    5745178  HIT:    5690993  MISS:      54185
cpu0_DTLB RFO       ACCESS:    1464114  HIT:    1454462  MISS:       9652
cpu0_DTLB PREFETCH  ACCESS:          0  HIT:          0  MISS:          0
cpu0_DTLB WRITEBACK ACCESS:          0  HIT:          0  MISS:          0
cpu0_ITLB TOTAL     ACCESS:    3323885  HIT:    3323885  MISS:          0
cpu0_ITLB LOAD      ACCESS:    3323885  HIT:    3323885  MISS:          0
cpu0_ITLB RFO       ACCESS:          0  HIT:          0  MISS:          0
cpu0_ITLB PREFETCH  ACCESS:          0  HIT:          0  MISS:          0
cpu0_ITLB WRITEBACK ACCESS:          0  HIT:          0  MISS:          0
cpu0_L1I TOTAL     ACCESS:    1893194  HIT:    1892984  MISS:        210
cpu0_L1I LOAD      ACCESS:    1893194  HIT:    1892984  MISS:        210
cpu0_L1I RFO       ACCESS:          0  HIT:          0  MISS:          0
cpu0_L1I PREFETCH  ACCESS:          0  HIT:          0  MISS:          0
cpu0_L1I WRITEBACK ACCESS:          0  HIT:          0  MISS:          0
cpu0_STLB TOTAL     ACCESS:      63837  HIT:      54129  MISS:       9708
cpu0_STLB LOAD      ACCESS:      54185  HIT:      44514  MISS:       9671
cpu0_STLB RFO       ACCESS:       9652  HIT:       9615  MISS:         37
cpu0_STLB PREFETCH  ACCESS:          0  HIT:          0  MISS:          0
cpu0_STLB WRITEBACK ACCESS:          0  HIT:          0  MISS:          0
cpu0_L1D TOTAL     ACCESS:    8628586  HIT:    8609289  MISS:      19297
cpu0_L1D LOAD      ACCESS:    6031622  HIT:    6016282  MISS:      15340
cpu0_L1D RFO       ACCESS:    2587256  HIT:    2583364  MISS:       3892
cpu0_L1D PREFETCH  ACCESS:          0  HIT:          0  MISS:          0
cpu0_L1D WRITEBACK ACCESS:          0  HIT:          0  MISS:          0
cpu0_L2C TOTAL     ACCESS:      34121  HIT:      20258  MISS:      13863
cpu0_L2C LOAD      ACCESS:      15550  HIT:       3325  MISS:      12225
cpu0_L2C RFO       ACCESS:       3891  HIT:       2678  MISS:       1213
cpu0_L2C PREFETCH  ACCESS:          0  HIT:          0  MISS:          0
cpu0_L2C WRITEBACK ACCESS:      14615  HIT:      14211  MISS:        404
LLC TOTAL     ACCESS:      25547  HIT:      14422  MISS:      11125
LLC LOAD      ACCESS:      12225  HIT:       1682  MISS:      10543
LLC RFO       ACCESS:       1213  HIT:        631  MISS:        582
LLC PREFETCH  ACCESS:          0  HIT:          0  MISS:          0
LLC WRITEBACK ACCESS:      12088  HIT:      12088  MISS:          0
Heartbeat CPU 0 instructions: 86000004 cycles: 55605324 heartbeat IPC: 0.851634 cumulative IPC: 0.835589 (Simulation time: 0 hr 43 min 54 sec) 

Region of Interest Statistics
cpu0_DTLB TOTAL     ACCESS:    7630081  HIT:    7562908  MISS:      67173
cpu0_DTLB LOAD      ACCESS:    6077195  HIT:    6020166  MISS:      57029
cpu0_DTLB RFO       ACCESS:    1552886  HIT:    1542742  MISS:      10144
cpu0_DTLB PREFETCH  ACCESS:          0  HIT:          0  MISS:          0
cpu0_DTLB WRITEBACK ACCESS:          0  HIT:          0  MISS:          0
cpu0_ITLB TOTAL     ACCESS:    3518027  HIT:    3518027  MISS:          0
cpu0_ITLB LOAD      ACCESS:    3518027  HIT:    3518027  MISS:          0
cpu0_ITLB RFO       ACCESS:          0  HIT:          0  MISS:          0
cpu0_ITLB PREFETCH  ACCESS:          0  HIT:          0  MISS:          0
cpu0_ITLB WRITEBACK ACCESS:          0  HIT:          0  MISS:          0
cpu0_L1I TOTAL     ACCESS:    2012037  HIT:    2011802  MISS:        235
cpu0_L1I LOAD      ACCESS:    2012037  HIT:    2011802  MISS:        235
cpu0_L1I RFO       ACCESS:          0  HIT:          0  MISS:          0
cpu0_L1I PREFETCH  ACCESS:          0  HIT:          0  MISS:          0
cpu0_L1I WRITEBACK ACCESS:          0  HIT:          0  MISS:          0
cpu0_STLB TOTAL     ACCESS:      67173  HIT:      56944  MISS:      10229
cpu0_STLB LOAD      ACCESS:      57029  HIT:      46838  MISS:      10191
cpu0_STLB RFO       ACCESS:      10144  HIT:      10106  MISS:         38
cpu0_STLB PREFETCH  ACCESS:          0  HIT:          0  MISS:          0
cpu0_STLB WRITEBACK ACCESS:          0  HIT:          0  MISS:          0
cpu0_L1D TOTAL     ACCESS:    9132687  HIT:    9112136  MISS:      20551
cpu0_L1D LOAD      ACCESS:    6378460  HIT:    6362172  MISS:      16288
cpu0_L1D RFO       ACCESS:    2743998  HIT:    2739808  MISS:       4190
cpu0_L1D PREFETCH  ACCESS:          0  HIT:          0  MISS:          0
cpu0_L1D WRITEBACK ACCESS:          0  HIT:          0  MISS:          0
cpu0_L2C TOTAL     ACCESS:      36310  HIT:      21707  MISS:      14603
cpu0_L2C LOAD      ACCESS:      16523  HIT:       3635  MISS:      12888
cpu0_L2C RFO       ACCESS:       4189  HIT:       2921  MISS:       1268
cpu0_L2C PREFETCH  ACCESS:          0  HIT:          0  MISS:          0
cpu0_L2C WRITEBACK ACCESS:      15525  HIT:      15099  MISS:        426
LLC TOTAL     ACCESS:      26937  HIT:      15221  MISS:      11716
LLC LOAD      ACCESS:      12888  HIT:       1778  MISS:      11110
LLC RFO       ACCESS:       1268  HIT:        662  MISS:        606
LLC PREFETCH  ACCESS:          0  HIT:          0  MISS:          0
LLC WRITEBACK ACCESS:      12760  HIT:      12760  MISS:          0
Heartbeat CPU 0 instructions: 88000000 cycles: 57990542 heartbeat IPC: 0.838496 cumulative IPC: 0.835742 (Simulation time: 0 hr 44 min 54 sec) 

Region of Interest Statistics
cpu0_DTLB TOTAL     ACCESS:    8057402  HIT:    7986485  MISS:      70917
cpu0_DTLB LOAD      ACCESS:    6416825  HIT:    6356628  MISS:      60197
cpu0_DTLB RFO       ACCESS:    1640577  HIT:    1629857  MISS:      10720
cpu0_DTLB PREFETCH  ACCESS:          0  HIT:          0  MISS:          0
cpu0_DTLB WRITEBACK ACCESS:          0  HIT:          0  MISS:          0
cpu0_ITLB TOTAL     ACCESS:    3712722  HIT:    3712722  MISS:          0
cpu0_ITLB LOAD      ACCESS:    3712722  HIT:    3712722  MISS:          0
cpu0_ITLB RFO       ACCESS:          0  HIT:          0  MISS:          0
cpu0_ITLB PREFETCH  ACCESS:          0  HIT:          0  MISS:          0
cpu0_ITLB WRITEBACK ACCESS:          0  HIT:          0  MISS:          0
cpu0_L1I TOTAL     ACCESS:    2125927  HIT:    2125682  MISS:        245
cpu0_L1I LOAD      ACCESS:    2125927  HIT:    2125682  MISS:        245
cpu0_L1I RFO       ACCESS:          0  HIT:          0  MISS:          0
cpu0_L1I PREFETCH  ACCESS:          0  HIT:          0  MISS:          0
cpu0_L1I WRITEBACK ACCESS:          0  HIT:          0  MISS:          0
cpu0_STLB TOTAL     ACCESS:      70917  HIT:      60109  MISS:      10808
cpu0_STLB LOAD      ACCESS:      60197  HIT:      49427  MISS:      10770
cpu0_STLB RFO       ACCESS:      10720  HIT:      10682  MISS:         38
cpu0_STLB PREFETCH  ACCESS:          0  HIT:          0  MISS:          0
cpu0_STLB WRITEBACK ACCESS:          0  HIT:          0  MISS:          0
cpu0_L1D TOTAL     ACCESS:    9644616  HIT:    9622779  MISS:      21837
cpu0_L1D LOAD      ACCESS:    6735817  HIT:    6718537  MISS:      17280
cpu0_L1D RFO       ACCESS:    2897991  HIT:    2893509  MISS:       4482
cpu0_L1D PREFETCH  ACCESS:          0  HIT:          0  MISS:          0
cpu0_L1D WRITEBACK ACCESS:          0  HIT:          0  MISS:          0
cpu0_L2C TOTAL     ACCESS:      38541  HIT:      23125  MISS:      15416
cpu0_L2C LOAD      ACCESS:      17525  HIT:       3909  MISS:      13616
cpu0_L2C RFO       ACCESS:       4481  HIT:       3157  MISS:       1324
cpu0_L2C PREFETCH  ACCESS:          0  HIT:          0  MISS:          0
cpu0_L2C WRITEBACK ACCESS:      16460  HIT:      16005  MISS:        455
LLC TOTAL     ACCESS:      28425  HIT:      16047  MISS:      12378
LLC LOAD      ACCESS:      13616  HIT:       1869  MISS:      11747
LLC RFO       ACCESS:       1324  HIT:        693  MISS:        631
LLC PREFETCH  ACCESS:          0  HIT:          0  MISS:          0
LLC WRITEBACK ACCESS:      13464  HIT:      13464  MISS:          0
Heartbeat CPU 0 instructions: 90000001 cycles: 60420360 heartbeat IPC: 0.823107 cumulative IPC: 0.835101 (Simulation time: 0 hr 45 min 57 sec) 

Region of Interest Statistics
cpu0_DTLB TOTAL     ACCESS:    8486731  HIT:    8411874  MISS:      74857
cpu0_DTLB LOAD      ACCESS:    6759182  HIT:    6695668  MISS:      63514
cpu0_DTLB RFO       ACCESS:    1727549  HIT:    1716206  MISS:      11343
cpu0_DTLB PREFETCH  ACCESS:          0  HIT:          0  MISS:          0
cpu0_DTLB WRITEBACK ACCESS:          0  HIT:          0  MISS:          0
cpu0_ITLB TOTAL     ACCESS:    3908513  HIT:    3908513  MISS:          0
cpu0_ITLB LOAD      ACCESS:    3908513  HIT:    3908513  MISS:          0
cpu0_ITLB RFO       ACCESS:          0  HIT:          0  MISS:          0
cpu0_ITLB PREFETCH  ACCESS:          0  HIT:          0  MISS:          0
cpu0_ITLB WRITEBACK ACCESS:          0  HIT:          0  MISS:          0
cpu0_L1I TOTAL     ACCESS:    2238460  HIT:    2238196  MISS:        264
cpu0_L1I LOAD      ACCESS:    2238460  HIT:    2238196  MISS:        264
cpu0_L1I RFO       ACCESS:          0  HIT:          0  MISS:          0
cpu0_L1I PREFETCH  ACCESS:          0  HIT:          0  MISS:          0
cpu0_L1I WRITEBACK ACCESS:          0  HIT:          0  MISS:          0
cpu0_STLB TOTAL     ACCESS:      74857  HIT:      63460  MISS:      11397
cpu0_STLB LOAD      ACCESS:      63514  HIT:      52160  MISS:      11354
cpu0_STLB RFO       ACCESS:      11343  HIT:      11300  MISS:         43
cpu0_STLB PREFETCH  ACCESS:          0  HIT:          0  MISS:          0
cpu0_STLB WRITEBACK ACCESS:          0  HIT:          0  MISS:          0
cpu0_L1D TOTAL     ACCESS:   10157082  HIT:   10134154  MISS:      22928
cpu0_L1D LOAD      ACCESS:    7093822  HIT:    7075649  MISS:      18173
cpu0_L1D RFO       ACCESS:    3051863  HIT:    3047188  MISS:       4675
cpu0_L1D PREFETCH  ACCESS:          0  HIT:          0  MISS:          0
cpu0_L1D WRITEBACK ACCESS:          0  HIT:          0  MISS:          0
cpu0_L2C TOTAL     ACCESS:      40464  HIT:      24160  MISS:      16304
cpu0_L2C LOAD      ACCESS:      18437  HIT:       4064  MISS:      14373
cpu0_L2C RFO       ACCESS:       4674  HIT:       3244  MISS:       1430
cpu0_L2C PREFETCH  ACCESS:          0  HIT:          0  MISS:          0
cpu0_L2C WRITEBACK ACCESS:      17273  HIT:      16794  MISS:        479
LLC TOTAL     ACCESS:      30063  HIT:      17002  MISS:      13061
LLC LOAD      ACCESS:      14373  HIT:       1984  MISS:      12389
LLC RFO       ACCESS:       1430  HIT:        758  MISS:        672
LLC PREFETCH  ACCESS:          0  HIT:          0  MISS:          0
LLC WRITEBACK ACCESS:      14238  HIT:      14238  MISS:          0
Heartbeat CPU 0 instructions: 92000004 cycles: 62865874 heartbeat IPC: 0.817825 cumulative IPC: 0.834261 (Simulation time: 0 hr 46 min 57 sec) 

Region of Interest Statistics
cpu0_DTLB TOTAL     ACCESS:    8911882  HIT:    8833119  MISS:      78763
cpu0_DTLB LOAD      ACCESS:    7100260  HIT:    7033459  MISS:      66801
cpu0_DTLB RFO       ACCESS:    1811622  HIT:    1799660  MISS:      11962
cpu0_DTLB PREFETCH  ACCESS:          0  HIT:          0  MISS:          0
cpu0_DTLB WRITEBACK ACCESS:          0  HIT:          0  MISS:          0
cpu0_ITLB TOTAL     ACCESS:    4104732  HIT:    4104732  MISS:          0
cpu0_ITLB LOAD      ACCESS:    4104732  HIT:    4104732  MISS:          0
cpu0_ITLB RFO       ACCESS:          0  HIT:          0  MISS:          0
cpu0_ITLB PREFETCH  ACCESS:          0  HIT:          0  MISS:          0
cpu0_ITLB WRITEBACK ACCESS:          0  HIT:          0  MISS:          0
cpu0_L1I TOTAL     ACCESS:    2347057  HIT:    2346779  MISS:        278
cpu0_L1I LOAD      ACCESS:    2347057  HIT:    2346779  MISS:        278
cpu0_L1I RFO       ACCESS:          0  HIT:          0  MISS:          0
cpu0_L1I PREFETCH  ACCESS:          0  HIT:          0  MISS:          0
cpu0_L1I WRITEBACK ACCESS:          0  HIT:          0  MISS:          0
cpu0_STLB TOTAL     ACCESS:      78763  HIT:      66778  MISS:      11985
cpu0_STLB LOAD      ACCESS:      66801  HIT:      54860  MISS:      11941
cpu0_STLB RFO       ACCESS:      11962  HIT:      11918  MISS:         44
cpu0_STLB PREFETCH  ACCESS:          0  HIT:          0  MISS:          0
cpu0_STLB WRITEBACK ACCESS:          0  HIT:          0  MISS:          0
cpu0_L1D TOTAL     ACCESS:   10664203  HIT:   10640367  MISS:      23836
cpu0_L1D LOAD      ACCESS:    7450310  HIT:    7431308  MISS:      19002
cpu0_L1D RFO       ACCESS:    3201908  HIT:    3197156  MISS:       4752
cpu0_L1D PREFETCH  ACCESS:          0  HIT:          0  MISS:          0
cpu0_L1D WRITEBACK ACCESS:          0  HIT:          0  MISS:          0
cpu0_L2C TOTAL     ACCESS:      42121  HIT:      25051  MISS:      17070
cpu0_L2C LOAD      ACCESS:      19280  HIT:       4191  MISS:      15089
cpu0_L2C RFO       ACCESS:       4751  HIT:       3284  MISS:       1467
cpu0_L2C PREFETCH  ACCESS:          0  HIT:          0  MISS:          0
cpu0_L2C WRITEBACK ACCESS:      18008  HIT:      17517  MISS:        491
LLC TOTAL     ACCESS:      31481  HIT:      17763  MISS:      13718
LLC LOAD      ACCESS:      15089  HIT:       2077  MISS:      13012
LLC RFO       ACCESS:       1467  HIT:        761  MISS:        706
LLC PREFETCH  ACCESS:          0  HIT:          0  MISS:          0
LLC WRITEBACK ACCESS:      14902  HIT:      14902  MISS:          0
Heartbeat CPU 0 instructions: 94000001 cycles: 65270657 heartbeat IPC: 0.831675 cumulative IPC: 0.834144 (Simulation time: 0 hr 47 min 58 sec) 

Region of Interest Statistics
cpu0_DTLB TOTAL     ACCESS:    9345933  HIT:    9263321  MISS:      82612
cpu0_DTLB LOAD      ACCESS:    7448273  HIT:    7378160  MISS:      70113
cpu0_DTLB RFO       ACCESS:    1897660  HIT:    1885161  MISS:      12499
cpu0_DTLB PREFETCH  ACCESS:          0  HIT:          0  MISS:          0
cpu0_DTLB WRITEBACK ACCESS:          0  HIT:          0  MISS:          0
cpu0_ITLB TOTAL     ACCESS:    4303079  HIT:    4303079  MISS:          0
cpu0_ITLB LOAD      ACCESS:    4303079  HIT:    4303079  MISS:          0
cpu0_ITLB RFO       ACCESS:          0  HIT:          0  MISS:          0
cpu0_ITLB PREFETCH  ACCESS:          0  HIT:          0  MISS:          0
cpu0_ITLB WRITEBACK ACCESS:          0  HIT:          0  MISS:          0
cpu0_L1I TOTAL     ACCESS:    2453825  HIT:    2453525  MISS:        300
cpu0_L1I LOAD      ACCESS:    2453825  HIT:    2453525  MISS:        300
cpu0_L1I RFO       ACCESS:          0  HIT:          0  MISS:          0
cpu0_L1I PREFETCH  ACCESS:          0  HIT:          0  MISS:          0
cpu0_L1I WRITEBACK ACCESS:          0  HIT:          0  MISS:          0
cpu0_STLB TOTAL     ACCESS:      82612  HIT:      69999  MISS:      12613
cpu0_STLB LOAD      ACCESS:      70113  HIT:      57549  MISS:      12564
cpu0_STLB RFO       ACCESS:      12499  HIT:      12450  MISS:         49
cpu0_STLB PREFETCH  ACCESS:          0  HIT:          0  MISS:          0
cpu0_STLB WRITEBACK ACCESS:          0  HIT:          0  MISS:          0
cpu0_L1D TOTAL     ACCESS:   11183781  HIT:   11158706  MISS:      25075
cpu0_L1D LOAD      ACCESS:    7817726  HIT:    7797704  MISS:      20022
cpu0_L1D RFO       ACCESS:    3353442  HIT:    3348474  MISS:       4968
cpu0_L1D PREFETCH  ACCESS:          0  HIT:          0  MISS:          0
cpu0_L1D WRITEBACK ACCESS:          0  HIT:          0  MISS:          0
cpu0_L2C TOTAL     ACCESS:      44326  HIT:      26230  MISS:      18096
cpu0_L2C LOAD      ACCESS:      20322  HIT:       4381  MISS:      15941
cpu0_L2C RFO       ACCESS:       4967  HIT:       3372  MISS:       1595
cpu0_L2C PREFETCH  ACCESS:          0  HIT:          0  MISS:          0
cpu0_L2C WRITEBACK ACCESS:      18952  HIT:      18418  MISS:        534
LLC TOTAL     ACCESS:      33354  HIT:      18904  MISS:      14450
LLC LOAD      ACCESS:      15941  HIT:       2241  MISS:      13700
LLC RFO       ACCESS:       1595  HIT:        845  MISS:        750
LLC PREFETCH  ACCESS:          0  HIT:          0  MISS:          0
LLC WRITEBACK ACCESS:      15792  HIT:      15792  MISS:          0
Heartbeat CPU 0 instructions: 96000000 cycles: 67659556 heartbeat IPC: 0.837205 cumulative IPC: 0.834276 (Simulation time: 0 hr 48 min 58 sec) 

Region of Interest Statistics
cpu0_DTLB TOTAL     ACCESS:    9780405  HIT:    9694091  MISS:      86314
cpu0_DTLB LOAD      ACCESS:    7794556  HIT:    7721309  MISS:      73247
cpu0_DTLB RFO       ACCESS:    1985849  HIT:    1972782  MISS:      13067
cpu0_DTLB PREFETCH  ACCESS:          0  HIT:          0  MISS:          0
cpu0_DTLB WRITEBACK ACCESS:          0  HIT:          0  MISS:          0
cpu0_ITLB TOTAL     ACCESS:    4499965  HIT:    4499965  MISS:          0
cpu0_ITLB LOAD      ACCESS:    4499965  HIT:    4499965  MISS:          0
cpu0_ITLB RFO       ACCESS:          0  HIT:          0  MISS:          0
cpu0_ITLB PREFETCH  ACCESS:          0  HIT:          0  MISS:          0
cpu0_ITLB WRITEBACK ACCESS:          0  HIT:          0  MISS:          0
cpu0_L1I TOTAL     ACCESS:    2567696  HIT:    2567384  MISS:        312
cpu0_L1I LOAD      ACCESS:    2567696  HIT:    2567384  MISS:        312
cpu0_L1I RFO       ACCESS:          0  HIT:          0  MISS:          0
cpu0_L1I PREFETCH  ACCESS:          0  HIT:          0  MISS:          0
cpu0_L1I WRITEBACK ACCESS:          0  HIT:          0  MISS:          0
cpu0_STLB TOTAL     ACCESS:      86314  HIT:      73112  MISS:      13202
cpu0_STLB LOAD      ACCESS:      73247  HIT:      60095  MISS:      13152
cpu0_STLB RFO       ACCESS:      13067  HIT:      13017  MISS:         50
cpu0_STLB PREFETCH  ACCESS:          0  HIT:          0  MISS:          0
cpu0_STLB WRITEBACK ACCESS:          0  HIT:          0  MISS:          0
cpu0_L1D TOTAL     ACCESS:   11701686  HIT:   11675381  MISS:      26305
cpu0_L1D LOAD      ACCESS:    8181356  HIT:    8160351  MISS:      21005
cpu0_L1D RFO       ACCESS:    3507128  HIT:    3501916  MISS:       5212
cpu0_L1D PREFETCH  ACCESS:          0  HIT:          0  MISS:          0
cpu0_L1D WRITEBACK ACCESS:          0  HIT:          0  MISS:          0
cpu0_L2C TOTAL     ACCESS:      46445  HIT:      27530  MISS:      18915
cpu0_L2C LOAD      ACCESS:      21317  HIT:       4648  MISS:      16669
cpu0_L2C RFO       ACCESS:       5211  HIT:       3549  MISS:       1662
cpu0_L2C PREFETCH  ACCESS:          0  HIT:          0  MISS:          0
cpu0_L2C WRITEBACK ACCESS:      19829  HIT:      19272  MISS:        557
LLC TOTAL     ACCESS:      34854  HIT:      19738  MISS:      15116
LLC LOAD      ACCESS:      16669  HIT:       2341  MISS:      14328
LLC RFO       ACCESS:       1662  HIT:        874  MISS:        788
LLC PREFETCH  ACCESS:          0  HIT:          0  MISS:          0
LLC WRITEBACK ACCESS:      16496  HIT:      16496  MISS:          0
Heartbeat CPU 0 instructions: 98000002 cycles: 70061966 heartbeat IPC: 0.832498 cumulative IPC: 0.834202 (Simulation time: 0 hr 50 min 0 sec) 

Region of Interest Statistics
cpu0_DTLB TOTAL     ACCESS:   10216699  HIT:   10126590  MISS:      90109
cpu0_DTLB LOAD      ACCESS:    8142616  HIT:    8066148  MISS:      76468
cpu0_DTLB RFO       ACCESS:    2074083  HIT:    2060442  MISS:      13641
cpu0_DTLB PREFETCH  ACCESS:          0  HIT:          0  MISS:          0
cpu0_DTLB WRITEBACK ACCESS:          0  HIT:          0  MISS:          0
cpu0_ITLB TOTAL     ACCESS:    4696706  HIT:    4696706  MISS:          0
cpu0_ITLB LOAD      ACCESS:    4696706  HIT:    4696706  MISS:          0
cpu0_ITLB RFO       ACCESS:          0  HIT:          0  MISS:          0
cpu0_ITLB PREFETCH  ACCESS:          0  HIT:          0  MISS:          0
cpu0_ITLB WRITEBACK ACCESS:          0  HIT:          0  MISS:          0
cpu0_L1I TOTAL     ACCESS:    2679937  HIT:    2679600  MISS:        337
cpu0_L1I LOAD      ACCESS:    2679937  HIT:    2679600  MISS:        337
cpu0_L1I RFO       ACCESS:          0  HIT:          0  MISS:          0
cpu0_L1I PREFETCH  ACCESS:          0  HIT:          0  MISS:          0
cpu0_L1I WRITEBACK ACCESS:          0  HIT:          0  MISS:          0
cpu0_STLB TOTAL     ACCESS:      90109  HIT:      76303  MISS:      13806
cpu0_STLB LOAD      ACCESS:      76468  HIT:      62713  MISS:      13755
cpu0_STLB RFO       ACCESS:      13641  HIT:      13590  MISS:         51
cpu0_STLB PREFETCH  ACCESS:          0  HIT:          0  MISS:          0
cpu0_STLB WRITEBACK ACCESS:          0  HIT:          0  MISS:          0
cpu0_L1D TOTAL     ACCESS:   12223114  HIT:   12195584  MISS:      27530
cpu0_L1D LOAD      ACCESS:    8547928  HIT:    8525941  MISS:      21987
cpu0_L1D RFO       ACCESS:    3661380  HIT:    3655927  MISS:       5453
cpu0_L1D PREFETCH  ACCESS:          0  HIT:          0  MISS:          0
cpu0_L1D WRITEBACK ACCESS:          0  HIT:          0  MISS:          0
cpu0_L2C TOTAL     ACCESS:      48606  HIT:      28843  MISS:      19763
cpu0_L2C LOAD      ACCESS:      22324  HIT:       4894  MISS:      17430
cpu0_L2C RFO       ACCESS:       5452  HIT:       3723  MISS:       1729
cpu0_L2C PREFETCH  ACCESS:          0  HIT:          0  MISS:          0
cpu0_L2C WRITEBACK ACCESS:      20740  HIT:      20163  MISS:        577
LLC TOTAL     ACCESS:      36415  HIT:      20609  MISS:      15806
LLC LOAD      ACCESS:      17430  HIT:       2443  MISS:      14987
LLC RFO       ACCESS:       1729  HIT:        911  MISS:        818
LLC PREFETCH  ACCESS:          0  HIT:          0  MISS:          0
LLC WRITEBACK ACCESS:      17229  HIT:      17228  MISS:          1
Heartbeat CPU 0 instructions: 100000000 cycles: 72436430 heartbeat IPC: 0.842295 cumulative IPC: 0.834523 (Simulation time: 0 hr 51 min 2 sec) 

Region of Interest Statistics
cpu0_DTLB TOTAL     ACCESS:   10652589  HIT:   10558566  MISS:      94023
cpu0_DTLB LOAD      ACCESS:    8489003  HIT:    8409199  MISS:      79804
cpu0_DTLB RFO       ACCESS:    2163586  HIT:    2149367  MISS:      14219
cpu0_DTLB PREFETCH  ACCESS:          0  HIT:          0  MISS:          0
cpu0_DTLB WRITEBACK ACCESS:          0  HIT:          0  MISS:          0
cpu0_ITLB TOTAL     ACCESS:    4894998  HIT:    4894998  MISS:          0
cpu0_ITLB LOAD      ACCESS:    4894998  HIT:    4894998  MISS:          0
cpu0_ITLB RFO       ACCESS:          0  HIT:          0  MISS:          0
cpu0_ITLB PREFETCH  ACCESS:          0  HIT:          0  MISS:          0
cpu0_ITLB WRITEBACK ACCESS:          0  HIT:          0  MISS:          0
cpu0_L1I TOTAL     ACCESS:    2794794  HIT:    2794444  MISS:        350
cpu0_L1I LOAD      ACCESS:    2794794  HIT:    2794444  MISS:        350
cpu0_L1I RFO       ACCESS:          0  HIT:          0  MISS:          0
cpu0_L1I PREFETCH  ACCESS:          0  HIT:          0  MISS:          0
cpu0_L1I WRITEBACK ACCESS:          0  HIT:          0  MISS:          0
cpu0_STLB TOTAL     ACCESS:      94023  HIT:      79578  MISS:      14445
cpu0_STLB LOAD      ACCESS:      79804  HIT:      65414  MISS:      14390
cpu0_STLB RFO       ACCESS:      14219  HIT:      14164  MISS:         55
cpu0_STLB PREFETCH  ACCESS:          0  HIT:          0  MISS:          0
cpu0_STLB WRITEBACK ACCESS:          0  HIT:          0  MISS:          0
cpu0_L1D TOTAL     ACCESS:   12741533  HIT:   12712613  MISS:      28920
cpu0_L1D LOAD      ACCESS:    8910743  HIT:    8887653  MISS:      23090
cpu0_L1D RFO       ACCESS:    3816345  HIT:    3810610  MISS:       5735
cpu0_L1D PREFETCH  ACCESS:          0  HIT:          0  MISS:          0
cpu0_L1D WRITEBACK ACCESS:          0  HIT:          0  MISS:          0
cpu0_L2C TOTAL     ACCESS:      50986  HIT:      30276  MISS:      20710
cpu0_L2C LOAD      ACCESS:      23440  HIT:       5197  MISS:      18243
cpu0_L2C RFO       ACCESS:       5734  HIT:       3904  MISS:       1830
cpu0_L2C PREFETCH  ACCESS:          0  HIT:          0  MISS:          0
cpu0_L2C WRITEBACK ACCESS:      21717  HIT:      21108  MISS:        609
LLC TOTAL     ACCESS:      38143  HIT:      21613  MISS:      16530
LLC LOAD      ACCESS:      18243  HIT:       2577  MISS:      15666
LLC RFO       ACCESS:       1830  HIT:        967  MISS:        863
LLC PREFETCH  ACCESS:          0  HIT:          0  MISS:          0
LLC WRITEBACK ACCESS:      18042  HIT:      18041  MISS:          1
Heartbeat CPU 0 instructions: 102000001 cycles: 74845526 heartbeat IPC: 0.830187 cumulative IPC: 0.834355 (Simulation time: 0 hr 52 min 1 sec) 

Region of Interest Statistics
cpu0_DTLB TOTAL     ACCESS:   11081246  HIT:   10983381  MISS:      97865
cpu0_DTLB LOAD      ACCESS:    8831266  HIT:    8748218  MISS:      83048
cpu0_DTLB RFO       ACCESS:    2249980  HIT:    2235163  MISS:      14817
cpu0_DTLB PREFETCH  ACCESS:          0  HIT:          0  MISS:          0
cpu0_DTLB WRITEBACK ACCESS:          0  HIT:          0  MISS:          0
cpu0_ITLB TOTAL     ACCESS:    5091012  HIT:    5091012  MISS:          0
cpu0_ITLB LOAD      ACCESS:    5091012  HIT:    5091012  MISS:          0
cpu0_ITLB RFO       ACCESS:          0  HIT:          0  MISS:          0
cpu0_ITLB PREFETCH  ACCESS:          0  HIT:          0  MISS:          0
cpu0_ITLB WRITEBACK ACCESS:          0  HIT:          0  MISS:          0
cpu0_L1I TOTAL     ACCESS:    2905873  HIT:    2905513  MISS:        360
cpu0_L1I LOAD      ACCESS:    2905873  HIT:    2905513  MISS:        360
cpu0_L1I RFO       ACCESS:          0  HIT:          0  MISS:          0
cpu0_L1I PREFETCH  ACCESS:          0  HIT:          0  MISS:          0
cpu0_L1I WRITEBACK ACCESS:          0  HIT:          0  MISS:          0
cpu0_STLB TOTAL     ACCESS:      97865  HIT:      82823  MISS:      15042
cpu0_STLB LOAD      ACCESS:      83048  HIT:      68063  MISS:      14985
cpu0_STLB RFO       ACCESS:      14817  HIT:      14760  MISS:         57
cpu0_STLB PREFETCH  ACCESS:          0  HIT:          0  MISS:          0
cpu0_STLB WRITEBACK ACCESS:          0  HIT:          0  MISS:          0
cpu0_L1D TOTAL     ACCESS:   13252248  HIT:   13222071  MISS:      30177
cpu0_L1D LOAD      ACCESS:    9270018  HIT:    9245917  MISS:      24101
cpu0_L1D RFO       ACCESS:    3967188  HIT:    3961211  MISS:       5977
cpu0_L1D PREFETCH  ACCESS:          0  HIT:          0  MISS:          0
cpu0_L1D WRITEBACK ACCESS:          0  HIT:          0  MISS:          0
cpu0_L2C TOTAL     ACCESS:      53128  HIT:      31575  MISS:      21553
cpu0_L2C LOAD      ACCESS:      24460  HIT:       5475  MISS:      18985
cpu0_L2C RFO       ACCESS:       5976  HIT:       4069  MISS:       1907
cpu0_L2C PREFETCH  ACCESS:          0  HIT:          0  MISS:          0
cpu0_L2C WRITEBACK ACCESS:      22593  HIT:      21961  MISS:        632
LLC TOTAL     ACCESS:      39697  HIT:      22503  MISS:      17194
LLC LOAD      ACCESS:      18985  HIT:       2690  MISS:      16295
LLC RFO       ACCESS:       1907  HIT:       1009  MISS:        898
LLC PREFETCH  ACCESS:          0  HIT:          0  MISS:          0
LLC WRITEBACK ACCESS:      18776  HIT:      18775  MISS:          1
Heartbeat CPU 0 instructions: 104000001 cycles: 77247012 heartbeat IPC: 0.832818 cumulative IPC: 0.834298 (Simulation time: 0 hr 53 min 4 sec) 

Region of Interest Statistics
cpu0_DTLB TOTAL     ACCESS:   11510786  HIT:   11408923  MISS:     101863
cpu0_DTLB LOAD      ACCESS:    9175292  HIT:    9088833  MISS:      86459
cpu0_DTLB RFO       ACCESS:    2335494  HIT:    2320090  MISS:      15404
cpu0_DTLB PREFETCH  ACCESS:          0  HIT:          0  MISS:          0
cpu0_DTLB WRITEBACK ACCESS:          0  HIT:          0  MISS:          0
cpu0_ITLB TOTAL     ACCESS:    5290895  HIT:    5290895  MISS:          0
cpu0_ITLB LOAD      ACCESS:    5290895  HIT:    5290895  MISS:          0
cpu0_ITLB RFO       ACCESS:          0  HIT:          0  MISS:          0
cpu0_ITLB PREFETCH  ACCESS:          0  HIT:          0  MISS:          0
cpu0_ITLB WRITEBACK ACCESS:          0  HIT:          0  MISS:          0
cpu0_L1I TOTAL     ACCESS:    3010706  HIT:    3010333  MISS:        373
cpu0_L1I LOAD      ACCESS:    3010706  HIT:    3010333  MISS:        373
cpu0_L1I RFO       ACCESS:          0  HIT:          0  MISS:          0
cpu0_L1I PREFETCH  ACCESS:          0  HIT:          0  MISS:          0
cpu0_L1I WRITEBACK ACCESS:          0  HIT:          0  MISS:          0
cpu0_STLB TOTAL     ACCESS:     101863  HIT:      86128  MISS:      15735
cpu0_STLB LOAD      ACCESS:      86459  HIT:      70784  MISS:      15675
cpu0_STLB RFO       ACCESS:      15404  HIT:      15344  MISS:         60
cpu0_STLB PREFETCH  ACCESS:          0  HIT:          0  MISS:          0
cpu0_STLB WRITEBACK ACCESS:          0  HIT:          0  MISS:          0
cpu0_L1D TOTAL     ACCESS:   13765277  HIT:   13733572  MISS:      31705
cpu0_L1D LOAD      ACCESS:    9632822  HIT:    9607503  MISS:      25319
cpu0_L1D RFO       ACCESS:    4116720  HIT:    4110437  MISS:       6283
cpu0_L1D PREFETCH  ACCESS:          0  HIT:          0  MISS:          0
cpu0_L1D WRITEBACK ACCESS:          0  HIT:          0  MISS:          0
cpu0_L2C TOTAL     ACCESS:      55749  HIT:      33160  MISS:      22589
cpu0_L2C LOAD      ACCESS:      25691  HIT:       5819  MISS:      19872
cpu0_L2C RFO       ACCESS:       6281  HIT:       4280  MISS:       2001
cpu0_L2C PREFETCH  ACCESS:          0  HIT:          0  MISS:          0
cpu0_L2C WRITEBACK ACCESS:      23674  HIT:      22989  MISS:        685
LLC TOTAL     ACCESS:      41569  HIT:      23577  MISS:      17992
LLC LOAD      ACCESS:      19872  HIT:       2822  MISS:      17050
LLC RFO       ACCESS:       2001  HIT:       1060  MISS:        941
LLC PREFETCH  ACCESS:          0  HIT:          0  MISS:          0
LLC WRITEBACK ACCESS:      19665  HIT:      19664  MISS:          1
Heartbeat CPU 0 instructions: 106000002 cycles: 79538931 heartbeat IPC: 0.872632 cumulative IPC: 0.835609 (Simulation time: 0 hr 54 min 3 sec) 

Region of Interest Statistics
cpu0_DTLB TOTAL     ACCESS:   11932731  HIT:   11827339  MISS:     105392
cpu0_DTLB LOAD      ACCESS:    9506254  HIT:    9416783  MISS:      89471
cpu0_DTLB RFO       ACCESS:    2426477  HIT:    2410556  MISS:      15921
cpu0_DTLB PREFETCH  ACCESS:          0  HIT:          0  MISS:          0
cpu0_DTLB WRITEBACK ACCESS:          0  HIT:          0  MISS:          0
cpu0_ITLB TOTAL     ACCESS:    5482538  HIT:    5482538  MISS:          0
cpu0_ITLB LOAD      ACCESS:    5482538  HIT:    5482538  MISS:          0
cpu0_ITLB RFO       ACCESS:          0  HIT:          0  MISS:          0
cpu0_ITLB PREFETCH  ACCESS:          0  HIT:          0  MISS:          0
cpu0_ITLB WRITEBACK ACCESS:          0  HIT:          0  MISS:          0
cpu0_L1I TOTAL     ACCESS:    3138920  HIT:    3138485  MISS:        435
cpu0_L1I LOAD      ACCESS:    3138920  HIT:    3138485  MISS:        435
cpu0_L1I RFO       ACCESS:          0  HIT:          0  MISS:          0
cpu0_L1I PREFETCH  ACCESS:          0  HIT:          0  MISS:          0
cpu0_L1I WRITEBACK ACCESS:          0  HIT:          0  MISS:          0
cpu0_STLB TOTAL     ACCESS:     105392  HIT:      89157  MISS:      16235
cpu0_STLB LOAD      ACCESS:      89471  HIT:      73297  MISS:      16174
cpu0_STLB RFO       ACCESS:      15921  HIT:      15860  MISS:         61
cpu0_STLB PREFETCH  ACCESS:          0  HIT:          0  MISS:          0
cpu0_STLB WRITEBACK ACCESS:          0  HIT:          0  MISS:          0
cpu0_L1D TOTAL     ACCESS:   14263935  HIT:   14230828  MISS:      33107
cpu0_L1D LOAD      ACCESS:    9973198  HIT:    9946858  MISS:      26340
cpu0_L1D RFO       ACCESS:    4274502  HIT:    4267839  MISS:       6663
cpu0_L1D PREFETCH  ACCESS:          0  HIT:          0  MISS:          0
cpu0_L1D WRITEBACK ACCESS:          0  HIT:          0  MISS:          0
cpu0_L2C TOTAL     ACCESS:      58103  HIT:      34744  MISS:      23359
cpu0_L2C LOAD      ACCESS:      26774  HIT:       6247  MISS:      20527
cpu0_L2C RFO       ACCESS:       6661  HIT:       4563  MISS:       2098
cpu0_L2C PREFETCH  ACCESS:          0  HIT:          0  MISS:          0
cpu0_L2C WRITEBACK ACCESS:      24564  HIT:      23861  MISS:        703
[...]
cpu0_DTLB RFO       ACCESS:   67095572  HIT:   66708861  MISS:     386711
cpu0_DTLB PREFETCH  ACCESS:          0  HIT:          0  MISS:          0
cpu0_DTLB WRITEBACK ACCESS:          0  HIT:          0  MISS:          0
cpu0_DTLB TRANSLATION ACCESS:          0  HIT:          0  MISS:          0
cpu0_DTLB PREFETCH  REQUESTED:          0  ISSUED:          0  USEFUL:          0  USELESS:          0
cpu0_DTLB AVERAGE MISS LATENCY: 12.7062 cycles
cpu0_ITLB TOTAL     ACCESS:  148230932  HIT:  148230917  MISS:         15
cpu0_ITLB LOAD      ACCESS:  148230932  HIT:  148230917  MISS:         15
cpu0_ITLB RFO       ACCESS:          0  HIT:          0  MISS:          0
cpu0_ITLB PREFETCH  ACCESS:          0  HIT:          0  MISS:          0
cpu0_ITLB WRITEBACK ACCESS:          0  HIT:          0  MISS:          0
cpu0_ITLB TRANSLATION ACCESS:          0  HIT:          0  MISS:          0
cpu0_ITLB PREFETCH  REQUESTED:          0  ISSUED:          0  USEFUL:          0  USELESS:          0
cpu0_ITLB AVERAGE MISS LATENCY: 217 cycles
cpu0_L1I TOTAL     ACCESS:   86000088  HIT:   85978299  MISS:      21789
cpu0_L1I LOAD      ACCESS:   86000088  HIT:   85978299  MISS:      21789
cpu0_L1I RFO       ACCESS:          0  HIT:          0  MISS:          0
cpu0_L1I PREFETCH  ACCESS:          0  HIT:          0  MISS:          0
cpu0_L1I WRITEBACK ACCESS:          0  HIT:          0  MISS:          0
cpu0_L1I TRANSLATION ACCESS:          0  HIT:          0  MISS:          0
cpu0_L1I PREFETCH  REQUESTED:          0  ISSUED:          0  USEFUL:          0  USELESS:          0
cpu0_L1I AVERAGE MISS LATENCY: 16.6421 cycles
cpu0_STLB TOTAL     ACCESS:    2656435  HIT:    2202097  MISS:     454338
cpu0_STLB LOAD      ACCESS:    2269724  HIT:    1817165  MISS:     452559
cpu0_STLB RFO       ACCESS:     386711  HIT:     384932  MISS:       1779
cpu0_STLB PREFETCH  ACCESS:          0  HIT:          0  MISS:          0
cpu0_STLB WRITEBACK ACCESS:          0  HIT:          0  MISS:          0
cpu0_STLB TRANSLATION ACCESS:          0  HIT:          0  MISS:          0
cpu0_STLB PREFETCH  REQUESTED:          0  ISSUED:          0  USEFUL:          0  USELESS:          0
cpu0_STLB AVERAGE MISS LATENCY: 21.5948 cycles
cpu0_L1D TOTAL     ACCESS:  382157436  HIT:  381235785  MISS:     921651
cpu0_L1D LOAD      ACCESS:  264867924  HIT:  264118499  MISS:     749425
cpu0_L1D RFO       ACCESS:  116835181  HIT:  116665559  MISS:     169622
cpu0_L1D PREFETCH  ACCESS:          0  HIT:          0  MISS:          0
cpu0_L1D WRITEBACK ACCESS:          0  HIT:          0  MISS:          0
cpu0_L1D TRANSLATION ACCESS:     454331  HIT:     451727  MISS:       2604
cpu0_L1D PREFETCH  REQUESTED:          0  ISSUED:          0  USEFUL:          0  USELESS:          0
cpu0_L1D AVERAGE MISS LATENCY: 111.274 cycles
cpu0_L2C TOTAL     ACCESS:    1581937  HIT:     932036  MISS:     649901
cpu0_L2C LOAD      ACCESS:     771209  HIT:     195561  MISS:     575648
cpu0_L2C RFO       ACCESS:     169583  HIT:     113047  MISS:      56536
cpu0_L2C PREFETCH  ACCESS:          0  HIT:          0  MISS:          0
cpu0_L2C WRITEBACK ACCESS:     638541  HIT:     621699  MISS:      16842
cpu0_L2C TRANSLATION ACCESS:       2604  HIT:       1729  MISS:        875
cpu0_L2C PREFETCH  REQUESTED:          0  ISSUED:          0  USEFUL:          0  USELESS:          0
cpu0_L2C AVERAGE MISS LATENCY: 142.379 cycles
LLC TOTAL     ACCESS:    1156539  HIT:     670760  MISS:     485779
LLC LOAD      ACCESS:     575648  HIT:     115266  MISS:     460382
LLC RFO       ACCESS:      56536  HIT:      31634  MISS:      24902
LLC PREFETCH  ACCESS:          0  HIT:          0  MISS:          0
LLC WRITEBACK ACCESS:     523480  HIT:     522986  MISS:        494
LLC TRANSLATION ACCESS:        875  HIT:        874  MISS:          1
LLC PREFETCH  REQUESTED:          0  ISSUED:          0  USEFUL:          0  USELESS:          0
LLC AVERAGE MISS LATENCY: 163.115 cycles
~~~~~~~~~~Reuse Distance Profiler output~~~~~~~~~~
0	55282480	16220896
1	33992512	16662624
2	24191568	14331520
3	19499152	13371664
4	15019984	11152592
5	12118384	9322256
6	9823408	7026608
7	8684816	6463648
8	8395520	6378208
9	8460464	6447792
10	6291248	4844224
11	6487136	5081936
12	5889872	4549216
13	5398032	4257520
14	5048976	3847696
15	4517952	3532320
16	3618304	2945936
17	3454048	2697104
18	3458720	2890448
19	3856848	3115456
20	3660576	2979376
21	3533360	2928160
22	3481680	2969440
23	3700960	3065664
24	3844512	3264736
25	3912000	3512528
26	3431920	3072128
27	3206080	2788336
28	3021104	2673872
29	2305328	2003776
30	2280560	1946720
31	2552384	2216208
32	2591952	2205136
33	2162160	1893744
34	1900880	1573536
35	1750816	1482384
36	1540640	1284576
37	1511984	1200144
38	1518720	1177088
39	1559344	1247024
40	1353856	1187168
41	1289232	1142832
42	1258816	1100960
43	1170160	991648
44	991488	845440
45	977680	838672
46	896128	734960
47	825104	695664
48	796576	645376
49	757056	639376
50	735280	609648
51	716112	596064
52	695840	588016
53	663808	570032
54	650736	561744
55	686816	580992
56	698224	591760
57	732432	602416
58	678480	553360
59	668864	551360
60	758432	547360
61	632704	503888
62	590336	473456
63	634912	470112
64	1074912	858448
66	980576	785440
68	925408	750976
70	924720	753296
72	901696	751536
74	903712	767344
76	864592	723024
78	804656	669728
80	846112	719712
82	803040	673136
84	750016	623744
86	723984	604736
88	720480	610768
90	791888	692688
92	717632	613744
94	700208	604608
96	693024	592848
98	698336	601760
100	712976	628464
102	659248	582832
104	630832	567504
106	628304	567600
108	597904	535184
110	566800	500240
112	529936	463504
114	540688	471072
116	521328	452640
118	470688	398352
120	438544	353760
122	394320	321712
124	399904	316944
126	378640	315072
128	747056	636224
132	707168	620128
136	698144	617248
140	681520	605440
144	647456	580784
148	615456	547632
152	603920	528528
156	608688	514272
160	583600	490384
164	574112	481360
168	521712	443408
172	495840	429088
176	484736	427568
180	424880	370528
184	408176	349088
188	397760	337264
192	381504	330928
196	364032	324624
200	351456	319504
204	334960	303424
208	302864	270064
212	296544	257632
216	303296	259008
220	303520	257920
224	296784	252512
228	274512	235024
232	242112	210624
236	221328	192592
240	206512	181808
244	186656	167568
248	170432	153696
252	156880	142176
256	314160	283552
264	331056	294256
272	301056	265968
280	279488	248416
288	257952	231968
296	253280	226048
304	277760	244576
312	289376	252848
320	286144	248928
328	269888	233360
336	260432	230416
344	276896	252176
352	280464	260064
360	246880	229600
368	241472	223264
376	227104	209808
384	226448	206736
392	218384	198560
400	206240	187296
408	207008	187600
416	202480	183216
424	194000	173312
432	180384	160080
440	182416	159712
448	194384	171280
456	188192	165328
464	181280	158608
472	177920	154816
480	181296	155472
488	178496	150736
496	174208	145440
504	177296	150416
512	365808	310320
528	367152	315104
544	338016	286816
560	331632	284000
576	330480	285232
592	298816	259680
608	266752	233440
624	247184	216848
640	221744	194832
656	208240	181024
672	215088	188128
688	210880	183840
704	219920	192528
720	227888	197104
736	229552	198256
752	226512	194976
768	233296	200992
784	228048	197536
800	242736	211104
816	259840	229120
832	277888	249392
848	290992	261184
864	314768	280816
880	353296	315104
896	377408	335696
912	383776	339072
928	373808	330704
944	359744	314160
960	344672	297856
976	315920	278896
992	305312	266688
1008	281552	252400
1024	549040	502096
1056	494736	457040
1088	496224	441136
1120	451072	399920
1152	807216	721936
1184	620176	564800
1216	380896	351088
1248	350208	324992
1280	343216	318592
1312	336256	311520
1344	333696	306240
1376	381024	350448
1408	372720	336304
1440	352208	311920
1472	359472	318336
1504	384512	340320
1536	409536	359904
1568	430352	380704
1600	461536	414880
1632	463648	419856
1664	433008	392208
1696	418400	379440
1728	416144	377152
1760	402960	365488
1792	378256	341696
1824	358000	323008
1856	324480	290224
1888	305840	273344
1920	287808	256496
1952	273456	241664
1984	266288	235984
2016	257440	229600
2048	460560	409184
2112	412848	367472
2176	352912	310688
2240	329952	292176
2304	310416	275824
2368	277088	242368
2432	256624	224768
2496	231024	199216
2560	215904	185104
2624	212128	182080
2688	200224	170784
2752	167200	139568
2816	156400	130320
2880	144144	118800
2944	140032	115728
3008	130480	106592
3072	119232	96832
3136	112512	90624
3200	107328	86704
3264	104368	83264
3328	104832	85360
3392	99712	80560
3456	99680	80832
3520	99088	80672
3584	95376	78496
3648	91104	73152
3712	84240	67920
3776	84032	66304
3840	80336	64144
3904	72112	56912
3968	69840	54208
4032	65760	50256
4096	117328	87472
4224	108336	79648
4352	102640	75600
4480	99776	75216
4608	98336	73184
4736	96496	71456
4864	93376	68448
4992	88192	64160
5120	80816	57424
5248	83792	58656
5376	82160	57088
5504	80800	56512
5632	79168	55040
5760	76624	53232
5888	73264	51504
6016	69376	48704
6144	64464	44224
6272	62992	42656
6400	60992	41264
6528	60064	40992
6656	55968	37424
6784	57040	39024
6912	55600	37872
7040	55472	38208
7168	53344	35936
7296	50832	34704
7424	50000	33456
7552	45952	31424
7680	46368	30784
7808	42880	28528
7936	42928	28736
8064	40896	26576
8192	78336	51680
8448	74912	48880
8704	73680	47760
8960	70288	44928
9216	67488	44032
9472	63824	41440
9728	61408	39328
9984	59456	38304
10240	57408	36560
10496	53152	34288
10752	52576	35056
11008	50944	32768
11264	48368	30672
11520	45680	29040
11776	45616	28832
12032	46912	30224
12288	41056	26336
12544	41952	26032
12800	39216	25040
13056	36240	21824
13312	36240	22000
13568	34752	21600
13824	33184	20240
14080	33296	20368
14336	31152	19504
14592	29952	18336
14848	28800	17744
15104	29920	18960
15360	28096	17360
15616	27440	17216
15872	26640	16128
16128	25040	15232
16384	50416	31456
16896	49936	30592
17408	46672	27888
17920	43840	27232
18432	40576	24976
18944	38064	22960
19456	36112	21696
19968	34416	20096
20480	34160	21120
20992	31536	18960
21504	30608	17600
22016	28624	16992
22528	27696	16416
23040	26112	14848
23552	24912	15296
24064	22880	13584
24576	22928	13600
25088	21168	12592
25600	20896	11872
26112	19984	11584
26624	19984	11520
27136	19920	12096
27648	17904	11136
28160	16816	9872
28672	16736	9552
29184	16928	9888
29696	15248	9680
30208	15008	9040
30720	14944	8304
31232	15344	8896
31744	14160	8816
32256	14208	8176
32768	25280	15056
33792	26128	15568
34816	24800	14736
35840	22160	12736
36864	20720	12016
37888	21600	12336
38912	20336	12144
39936	19936	11936
40960	20144	12144
41984	18608	11216
43008	17296	10048
44032	17104	10384
45056	16016	9504
46080	15712	9008
47104	14992	9232
48128	15072	9136
49152	14720	9040
50176	13728	8000
51200	13440	7648
52224	12608	8144
53248	11344	6448
54272	10640	6720
55296	10400	6192
56320	10944	6736
57344	10352	6288
58368	10384	5968
59392	10448	6528
60416	9440	5536
61440	9024	5456
62464	7648	4768
63488	7808	4832
64512	7696	4960
65536	14448	8592
67584	13600	8208
69632	13504	7760
71680	12048	7456
73728	11088	6704
75776	9920	6048
77824	10752	6416
79872	9760	5840
81920	9424	5712
83968	8736	5328
86016	8592	4864
88064	7680	4336
90112	7104	4160
92160	7120	4352
94208	7840	4224
96256	7360	4336
98304	6832	4048
100352	7056	4208
102400	6896	4064
104448	5760	3376
106496	6064	3264
108544	5792	3472
110592	5792	3200
112640	5312	3136
114688	4672	2976
116736	5056	3136
118784	4976	2768
120832	4912	3040
122880	4688	2560
124928	4112	2560
126976	4096	2320
129024	4176	2464
131072	7232	4576
135168	7136	3872
139264	6304	3408
143360	7520	4160
147456	5904	3440
151552	6592	3968
155648	5616	3472
159744	5312	3376
163840	5120	3184
167936	4640	2640
172032	4352	2480
176128	4960	2976
180224	3920	2336
184320	3632	2384
188416	4272	2656
192512	3872	2128
196608	3360	2112
200704	3504	1888
204800	3360	2000
208896	3104	1776
212992	3120	1856
217088	3760	2288
221184	3008	2000
225280	2656	1504
229376	3168	1968
233472	2608	1616
237568	2464	1792
241664	2464	1472
245760	2512	1408
249856	2832	1760
253952	2880	1664
258048	2208	1360
262144	4176	2496
270336	4832	2880
278528	4704	2784
286720	4288	2720
294912	3888	2544
303104	3712	2288
311296	3472	2256
319488	3152	1968
327680	2928	1920
335872	3008	1936
344064	3360	2048
352256	3424	2240
360448	3040	1888
368640	2704	1712
376832	2336	1520
385024	2880	1936
393216	2544	1696
401408	2448	1616
409600	2496	1520
417792	2000	1344
425984	2128	1344
434176	1744	1376
442368	2192	1632
450560	1936	1152
458752	1552	1040
466944	1888	1264
475136	1536	1184
483328	1856	1344
491520	1696	1120
499712	1552	1008
507904	1584	960
516096	1376	896
524288	3200	2240
540672	2496	1664
557056	2624	1808
573440	2848	1824
589824	2368	1424
606208	2912	1968
622592	2768	1632
638976	2080	1424
655360	2432	1344
671744	1888	1328
688128	1840	1232
704512	1808	1200
720896	2000	1248
737280	1344	912
753664	1856	1184
770048	1712	1104
786432	1568	976
802816	1568	1104
819200	1584	1232
835584	1696	1152
851968	1296	864
868352	1312	928
884736	1264	848
901120	1120	768
917504	1264	928
933888	1232	928
950272	1664	1328
966656	1120	800
983040	1104	800
999424	1248	864
1015808	816	560
1032192	1136	736
1048576	1760	1392
1081344	1808	1232
1114112	1840	1392
1146880	1632	1168
1179648	1664	1104
1212416	1440	1168
1245184	1408	1072
1277952	864	640
1310720	1216	944
1343488	1280	1040
1376256	1136	784
1409024	1040	704
1441792	1072	784
1474560	848	496
1507328	992	704
1540096	1136	720
1572864	992	608
1605632	1008	704
1638400	784	656
1671168	608	496
1703936	992	752
1736704	768	544
1769472	656	528
1802240	576	448
1835008	976	656
1867776	688	544
1900544	768	576
1933312	512	304
1966080	576	448
1998848	752	512
2031616	560	432
2064384	704	464
2097152	1200	848
2162688	1296	736
2228224	976	784
2293760	704	512
2359296	672	432
2424832	880	560
2490368	624	496
2555904	624	416
2621440	848	544
2686976	704	544
2752512	576	464
2818048	688	512
2883584	1008	736
2949120	688	512
3014656	640	448
3080192	528	432
3145728	544	368
3211264	416	384
3276800	336	336
3342336	416	288
3407872	432	304
3473408	592	432
3538944	480	400
3604480	592	496
3670016	480	352
3735552	592	432
3801088	480	368
3866624	416	288
3932160	512	336
3997696	384	336
4063232	320	288
4128768	320	240
4194304	640	496
4325376	736	512
4456448	672	544
4587520	432	304
4718592	560	400
4849664	528	432
4980736	544	464
5111808	592	400
5242880	544	416
5373952	400	336
5505024	400	336
5636096	416	304
5767168	400	336
5898240	336	224
6029312	288	208
6160384	448	400
6291456	400	368
6422528	416	352
6553600	320	288
6684672	336	256
6815744	384	256
6946816	288	176
7077888	288	224
7208960	224	160
7340032	608	432
7471104	400	336
7602176	448	256
7733248	480	400
7864320	368	304
7995392	384	352
8126464	384	352
8257536	352	272
8388608	592	448
8650752	640	480
8912896	544	448
9175040	752	720
9437184	448	288
9699328	656	480
9961472	736	608
10223616	768	608
10485760	544	464
10747904	480	432
11010048	592	528
11272192	464	416
11534336	608	512
11796480	528	432
12058624	384	288
12320768	496	416
12582912	480	368
12845056	384	320
13107200	304	224
13369344	320	256
13631488	464	416
13893632	496	448
14155776	304	272
14417920	480	368
14680064	336	272
14942208	224	176
15204352	288	240
15466496	304	240
15728640	320	272
15990784	384	368
16252928	432	368
16515072	336	336
16777216	800	640
17301504	816	720
17825792	688	656
18350080	608	480
18874368	576	512
19398656	784	656
19922944	720	624
20447232	672	576
20971520	592	528
21495808	560	512
22020096	592	544
22544384	544	464
23068672	768	656
23592960	432	352
24117248	448	416
24641536	464	400
25165824	432	400
25690112	480	416
26214400	624	592
26738688	416	304
27262976	368	336
27787264	416	336
28311552	400	400
28835840	608	528
29360128	592	576
29884416	384	368
30408704	320	288
30932992	496	400
31457280	544	464
31981568	528	512
32505856	544	496
33030144	496	496
33554432	752	704
34603008	960	848
35651584	1120	1040
36700160	832	736
37748736	832	704
38797312	736	672
39845888	816	704
40894464	1024	928
41943040	832	736
42991616	784	672
44040192	912	864
45088768	784	736
46137344	768	688
47185920	832	768
48234496	896	768
49283072	944	928
50331648	848	752
51380224	688	608
52428800	576	496
53477376	800	768
54525952	720	720
55574528	672	576
56623104	912	896
57671680	672	624
58720256	832	800
59768832	640	592
60817408	592	528
61865984	608	544
62914560	656	592
63963136	688	624
65011712	512	448
66060288	656	576
67108864	1328	1216
69206016	1488	1360
71303168	1296	1168
73400320	1408	1280
75497472	1424	1296
77594624	1328	1248
79691776	1344	1264
81788928	880	816
83886080	1056	1008
85983232	1328	1216
88080384	1104	1056
90177536	1328	1216
92274688	1376	1264
94371840	1120	1008
96468992	1168	1088
98566144	960	896
100663296	1024	928
102760448	1088	928
104857600	1216	1072
106954752	1216	1104
109051904	1056	992
111149056	912	848
113246208	1168	1056
115343360	944	800
117440512	880	752
119537664	896	752
121634816	736	720
123731968	768	688
125829120	896	768
127926272	848	736
130023424	944	832
132120576	784	784
134217728	1808	1680
138412032	1744	1632
142606336	1728	1584
146800640	1648	1504
150994944	1376	1280
155189248	1552	1520
159383552	1600	1472
163577856	1248	1152
167772160	1264	1184
171966464	1424	1280
176160768	1424	1360
180355072	1216	1168
184549376	1264	1168
188743680	1136	1024
192937984	928	800
197132288	1072	992
201326592	1232	1136
205520896	1088	992
209715200	944	880
213909504	1024	896
218103808	1024	1008
222298112	1136	1072
226492416	800	752
230686720	1072	992
234881024	656	640
239075328	736	704
243269632	960	816
247463936	720	704
251658240	736	688
255852544	640	592
260046848	528	480
264241152	624	592
268435456	1232	1152
276824064	976	928
285212672	1008	960
293601280	976	912
301989888	736	704
310378496	816	736
318767104	864	832
327155712	656	608
335544320	432	400
343932928	416	368
352321536	336	320
360710144	352	352
369098752	240	208
377487360	160	160
385875968	16	16
394264576	0	0
402653184	0	0
411041792	0	0
419430400	0	0
427819008	0	0
436207616	0	0
444596224	0	0
452984832	0	0
461373440	0	0
469762048	0	0
478150656	0	0
486539264	0	0
494927872	0	0
503316480	0	0
511705088	0	0
520093696	0	0
528482304	0	0
536870912	0	0
553648128	0	0
570425344	0	0
587202560	0	0
603979776	0	0
620756992	0	0
637534208	0	0
654311424	0	0
671088640	0	0
687865856	0	0
704643072	0	0
721420288	0	0
738197504	0	0
754974720	0	0
771751936	0	0
788529152	0	0
805306368	0	0
822083584	0	0
838860800	0	0
855638016	0	0
872415232	0	0
889192448	0	0
905969664	0	0
922746880	0	0
939524096	0	0
956301312	0	0
973078528	0	0
989855744	0	0
1006632960	0	0
1023410176	0	0
1040187392	0	0
1056964608	0	0
1073741824	0	0
1107296256	0	0
1140850688	0	0
1174405120	0	0
1207959552	0	0
1241513984	0	0
1275068416	0	0
1308622848	0	0
1342177280	0	0
1375731712	0	0
1409286144	0	0
1442840576	0	0
1476395008	0	0
1509949440	0	0
1543503872	0	0
1577058304	0	0
1610612736	0	0
1644167168	0	0
1677721600	0	0
1711276032	0	0
1744830464	0	0
1778384896	0	0
1811939328	0	0
1845493760	0	0
1879048192	0	0
1912602624	0	0
1946157056	0	0
1979711488	0	0
2013265920	0	0
2046820352	0	0
2080374784	0	0
2113929216	0	0
2147483648	0	0
2214592512	0	0
2281701376	0	0
2348810240	0	0
2415919104	0	0
2483027968	0	0
2550136832	0	0
2617245696	0	0
2684354560	0	0
2751463424	0	0
2818572288	0	0
2885681152	0	0
2952790016	0	0
3019898880	0	0
3087007744	0	0
3154116608	0	0
3221225472	0	0
3288334336	0	0
3355443200	0	0
3422552064	0	0
3489660928	0	0
3556769792	0	0
3623878656	0	0
3690987520	0	0
3758096384	0	0
3825205248	0	0
3892314112	0	0
3959422976	0	0
4026531840	0	0
4093640704	0	0
4160749568	0	0
4227858432	0	0
~~~~~~~~~~Reuse Distance Profiler output end~~~~~~~~~~

Sampler size:25450

DRAM Statistics
 CHANNEL 0
 RQ ROW_BUFFER_HIT:        131  ROW_BUFFER_MISS:     485154
 DBUS AVG_CONGESTED_CYCLE:    3.61961
 WQ ROW_BUFFER_HIT:      11117  ROW_BUFFER_MISS:     384302  FULL:          0


CPU 0 Branch Prediction Accuracy: 85.4056% MPKI: 32.2789 Average ROB Occupancy at Mispredict: 16.5443
Branch type MPKI
BRANCH_DIRECT_JUMP: 3.46667e-05
BRANCH_INDIRECT: 0.985567
BRANCH_CONDITIONAL: 30.8609
BRANCH_DIRECT_CALL: 3.2e-05
BRANCH_INDIRECT_CALL: 0.432305
BRANCH_RETURN: 3.2e-05

