
*** ChampSim Multicore Out-of-Order Simulator ***

Warmup Instructions: 50000000
Simulation Instructions: 1500000000
Number of CPUs: 1
Off-chip DRAM Size: 4 GiB Channels: 1 Width: 64-bit Data Rate: 3200 MT/s

VirtualMemory physical capacity: 8588881920 num_ppages: 2096895
VirtualMemory page size: 4096 log2_page_size: 12

CPU 0 runs /s/traces/champsim_traces/464.h264ref-57B.champsimtrace.xz
CPU 0 Bimodal branch predictor
Basic BTB sets: 1024 ways: 8 indirect buffer size: 4096 RAS size: 64
Initializing LRU.
Initializing LRU.
Initializing LRU.
Initializing LRU.
Initializing rdLRU.
Initializing LRU.
Initializing LRU.
Heartbeat CPU 0 instructions: 2000000 cycles: 1003611 heartbeat IPC: 1.9928 cumulative IPC: 1.9928 (Simulation time: 0 hr 2 min 50 sec) 
Heartbeat CPU 0 instructions: 4000000 cycles: 1967131 heartbeat IPC: 2.07572 cumulative IPC: 2.03342 (Simulation time: 0 hr 5 min 27 sec) 
Heartbeat CPU 0 instructions: 6000003 cycles: 2925989 heartbeat IPC: 2.08582 cumulative IPC: 2.05059 (Simulation time: 0 hr 8 min 1 sec) 
Heartbeat CPU 0 instructions: 8000001 cycles: 3884900 heartbeat IPC: 2.0857 cumulative IPC: 2.05926 (Simulation time: 0 hr 10 min 37 sec) 
Heartbeat CPU 0 instructions: 10000001 cycles: 4607055 heartbeat IPC: 2.76949 cumulative IPC: 2.17058 (Simulation time: 0 hr 12 min 29 sec) 
Heartbeat CPU 0 instructions: 12000001 cycles: 5115033 heartbeat IPC: 3.93718 cumulative IPC: 2.34603 (Simulation time: 0 hr 13 min 37 sec) 
Heartbeat CPU 0 instructions: 14000000 cycles: 5627492 heartbeat IPC: 3.90275 cumulative IPC: 2.48779 (Simulation time: 0 hr 14 min 49 sec) 
Heartbeat CPU 0 instructions: 16000002 cycles: 6132646 heartbeat IPC: 3.95919 cumulative IPC: 2.60899 (Simulation time: 0 hr 15 min 57 sec) 
Heartbeat CPU 0 instructions: 18000004 cycles: 6639021 heartbeat IPC: 3.94965 cumulative IPC: 2.71124 (Simulation time: 0 hr 17 min 7 sec) 
Heartbeat CPU 0 instructions: 20000002 cycles: 7146045 heartbeat IPC: 3.94458 cumulative IPC: 2.79875 (Simulation time: 0 hr 18 min 18 sec) 
Heartbeat CPU 0 instructions: 22000001 cycles: 7652168 heartbeat IPC: 3.95161 cumulative IPC: 2.875 (Simulation time: 0 hr 19 min 25 sec) 
Heartbeat CPU 0 instructions: 24000000 cycles: 8154599 heartbeat IPC: 3.98064 cumulative IPC: 2.94312 (Simulation time: 0 hr 20 min 34 sec) 
Heartbeat CPU 0 instructions: 26000003 cycles: 8725925 heartbeat IPC: 3.50063 cumulative IPC: 2.97963 (Simulation time: 0 hr 22 min 11 sec) 
Heartbeat CPU 0 instructions: 28000002 cycles: 9282388 heartbeat IPC: 3.59413 cumulative IPC: 3.01647 (Simulation time: 0 hr 23 min 52 sec) 
Heartbeat CPU 0 instructions: 30000001 cycles: 10167224 heartbeat IPC: 2.2603 cumulative IPC: 2.95066 (Simulation time: 0 hr 26 min 6 sec) 
Heartbeat CPU 0 instructions: 32000003 cycles: 11129612 heartbeat IPC: 2.07817 cumulative IPC: 2.87521 (Simulation time: 0 hr 28 min 33 sec) 
Heartbeat CPU 0 instructions: 34000000 cycles: 12091022 heartbeat IPC: 2.08027 cumulative IPC: 2.812 (Simulation time: 0 hr 31 min 0 sec) 
Heartbeat CPU 0 instructions: 36000002 cycles: 13050573 heartbeat IPC: 2.08431 cumulative IPC: 2.7585 (Simulation time: 0 hr 33 min 22 sec) 
Heartbeat CPU 0 instructions: 38000003 cycles: 14009776 heartbeat IPC: 2.08507 cumulative IPC: 2.71239 (Simulation time: 0 hr 35 min 49 sec) 
Heartbeat CPU 0 instructions: 40000002 cycles: 14968946 heartbeat IPC: 2.08513 cumulative IPC: 2.6722 (Simulation time: 0 hr 38 min 13 sec) 
Heartbeat CPU 0 instructions: 42000003 cycles: 15959558 heartbeat IPC: 2.01895 cumulative IPC: 2.63165 (Simulation time: 0 hr 40 min 41 sec) 
Heartbeat CPU 0 instructions: 44000000 cycles: 16975851 heartbeat IPC: 1.96793 cumulative IPC: 2.59192 (Simulation time: 0 hr 43 min 14 sec) 
Heartbeat CPU 0 instructions: 46000002 cycles: 17940343 heartbeat IPC: 2.07363 cumulative IPC: 2.56405 (Simulation time: 0 hr 45 min 33 sec) 
Heartbeat CPU 0 instructions: 48000003 cycles: 18899643 heartbeat IPC: 2.08485 cumulative IPC: 2.53973 (Simulation time: 0 hr 47 min 54 sec) 
Heartbeat CPU 0 instructions: 50000000 cycles: 19858951 heartbeat IPC: 2.08483 cumulative IPC: 2.51776 (Simulation time: 0 hr 50 min 18 sec) 

Warmup complete CPU 0 instructions: 50000003 cycles: 19858952 (Simulation time: 0 hr 50 min 18 sec) 

Heartbeat CPU 0 instructions: 52000003 cycles: 20861994 heartbeat IPC: 1.99394 cumulative IPC: 1.99393 (Simulation time: 0 hr 51 min 48 sec) 

Region of Interest Statistics
cpu0_DTLB TOTAL     ACCESS:     403515  HIT:     403010  MISS:        505
cpu0_DTLB LOAD      ACCESS:     328342  HIT:     327898  MISS:        444
cpu0_DTLB RFO       ACCESS:      75173  HIT:      75112  MISS:         61
cpu0_DTLB PREFETCH  ACCESS:          0  HIT:          0  MISS:          0
cpu0_DTLB WRITEBACK ACCESS:          0  HIT:          0  MISS:          0
cpu0_ITLB TOTAL     ACCESS:     168375  HIT:     168375  MISS:          0
cpu0_ITLB LOAD      ACCESS:     168375  HIT:     168375  MISS:          0
cpu0_ITLB RFO       ACCESS:          0  HIT:          0  MISS:          0
cpu0_ITLB PREFETCH  ACCESS:          0  HIT:          0  MISS:          0
cpu0_ITLB WRITEBACK ACCESS:          0  HIT:          0  MISS:          0
cpu0_L1I TOTAL     ACCESS:      49688  HIT:      49633  MISS:         55
cpu0_L1I LOAD      ACCESS:      49688  HIT:      49633  MISS:         55
cpu0_L1I RFO       ACCESS:          0  HIT:          0  MISS:          0
cpu0_L1I PREFETCH  ACCESS:          0  HIT:          0  MISS:          0
cpu0_L1I WRITEBACK ACCESS:          0  HIT:          0  MISS:          0
cpu0_STLB TOTAL     ACCESS:        505  HIT:        483  MISS:         22
cpu0_STLB LOAD      ACCESS:        444  HIT:        426  MISS:         18
cpu0_STLB RFO       ACCESS:         61  HIT:         57  MISS:          4
cpu0_STLB PREFETCH  ACCESS:          0  HIT:          0  MISS:          0
cpu0_STLB WRITEBACK ACCESS:          0  HIT:          0  MISS:          0
cpu0_L1D TOTAL     ACCESS:     448410  HIT:     440838  MISS:       7572
cpu0_L1D LOAD      ACCESS:     298046  HIT:     292762  MISS:       5284
cpu0_L1D RFO       ACCESS:     150345  HIT:     148062  MISS:       2283
cpu0_L1D PREFETCH  ACCESS:          0  HIT:          0  MISS:          0
cpu0_L1D WRITEBACK ACCESS:          0  HIT:          0  MISS:          0
cpu0_L2C TOTAL     ACCESS:      10442  HIT:       4685  MISS:       5757
cpu0_L2C LOAD      ACCESS:       5339  HIT:       1909  MISS:       3430
cpu0_L2C RFO       ACCESS:       2283  HIT:         14  MISS:       2269
cpu0_L2C PREFETCH  ACCESS:          0  HIT:          0  MISS:          0
cpu0_L2C WRITEBACK ACCESS:       2815  HIT:       2761  MISS:         54
LLC TOTAL     ACCESS:       9139  HIT:       8871  MISS:        268
LLC LOAD      ACCESS:       3430  HIT:       3280  MISS:        150
LLC RFO       ACCESS:       2269  HIT:       2151  MISS:        118
LLC PREFETCH  ACCESS:          0  HIT:          0  MISS:          0
LLC WRITEBACK ACCESS:       3436  HIT:       3436  MISS:          0
Heartbeat CPU 0 instructions: 54000004 cycles: 21754450 heartbeat IPC: 2.24101 cumulative IPC: 2.11026 (Simulation time: 0 hr 52 min 58 sec) 

Region of Interest Statistics
cpu0_DTLB TOTAL     ACCESS:     752989  HIT:     751473  MISS:       1516
cpu0_DTLB LOAD      ACCESS:     583531  HIT:     582111  MISS:       1420
cpu0_DTLB RFO       ACCESS:     169458  HIT:     169362  MISS:         96
cpu0_DTLB PREFETCH  ACCESS:          0  HIT:          0  MISS:          0
cpu0_DTLB WRITEBACK ACCESS:          0  HIT:          0  MISS:          0
cpu0_ITLB TOTAL     ACCESS:     401012  HIT:     401012  MISS:          0
cpu0_ITLB LOAD      ACCESS:     401012  HIT:     401012  MISS:          0
cpu0_ITLB RFO       ACCESS:          0  HIT:          0  MISS:          0
cpu0_ITLB PREFETCH  ACCESS:          0  HIT:          0  MISS:          0
cpu0_ITLB WRITEBACK ACCESS:          0  HIT:          0  MISS:          0
cpu0_L1I TOTAL     ACCESS:      55150  HIT:      55084  MISS:         66
cpu0_L1I LOAD      ACCESS:      55150  HIT:      55084  MISS:         66
cpu0_L1I RFO       ACCESS:          0  HIT:          0  MISS:          0
cpu0_L1I PREFETCH  ACCESS:          0  HIT:          0  MISS:          0
cpu0_L1I WRITEBACK ACCESS:          0  HIT:          0  MISS:          0
cpu0_STLB TOTAL     ACCESS:       1516  HIT:       1478  MISS:         38
cpu0_STLB LOAD      ACCESS:       1420  HIT:       1386  MISS:         34
cpu0_STLB RFO       ACCESS:         96  HIT:         92  MISS:          4
cpu0_STLB PREFETCH  ACCESS:          0  HIT:          0  MISS:          0
cpu0_STLB WRITEBACK ACCESS:          0  HIT:          0  MISS:          0
cpu0_L1D TOTAL     ACCESS:     878503  HIT:     865720  MISS:      12783
cpu0_L1D LOAD      ACCESS:     509073  HIT:     498825  MISS:      10248
cpu0_L1D RFO       ACCESS:     369397  HIT:     366876  MISS:       2521
cpu0_L1D PREFETCH  ACCESS:          0  HIT:          0  MISS:          0
cpu0_L1D WRITEBACK ACCESS:          0  HIT:          0  MISS:          0
cpu0_L2C TOTAL     ACCESS:      15927  HIT:       5429  MISS:      10498
cpu0_L2C LOAD      ACCESS:      10314  HIT:       2368  MISS:       7946
cpu0_L2C RFO       ACCESS:       2521  HIT:         39  MISS:       2482
cpu0_L2C PREFETCH  ACCESS:          0  HIT:          0  MISS:          0
cpu0_L2C WRITEBACK ACCESS:       3078  HIT:       3015  MISS:         63
LLC TOTAL     ACCESS:      14172  HIT:      13579  MISS:        593
LLC LOAD      ACCESS:       7946  HIT:       7473  MISS:        473
LLC RFO       ACCESS:       2482  HIT:       2362  MISS:        120
LLC PREFETCH  ACCESS:          0  HIT:          0  MISS:          0
LLC WRITEBACK ACCESS:       3737  HIT:       3737  MISS:          0
Heartbeat CPU 0 instructions: 56000000 cycles: 22763952 heartbeat IPC: 1.98117 cumulative IPC: 2.0654 (Simulation time: 0 hr 54 min 9 sec) 

Region of Interest Statistics
cpu0_DTLB TOTAL     ACCESS:    1107658  HIT:    1105043  MISS:       2615
cpu0_DTLB LOAD      ACCESS:     851804  HIT:     849328  MISS:       2476
cpu0_DTLB RFO       ACCESS:     255854  HIT:     255715  MISS:        139
cpu0_DTLB PREFETCH  ACCESS:          0  HIT:          0  MISS:          0
cpu0_DTLB WRITEBACK ACCESS:          0  HIT:          0  MISS:          0
cpu0_ITLB TOTAL     ACCESS:     629405  HIT:     629404  MISS:          1
cpu0_ITLB LOAD      ACCESS:     629405  HIT:     629404  MISS:          1
cpu0_ITLB RFO       ACCESS:          0  HIT:          0  MISS:          0
cpu0_ITLB PREFETCH  ACCESS:          0  HIT:          0  MISS:          0
cpu0_ITLB WRITEBACK ACCESS:          0  HIT:          0  MISS:          0
cpu0_L1I TOTAL     ACCESS:      66578  HIT:      66230  MISS:        348
cpu0_L1I LOAD      ACCESS:      66578  HIT:      66230  MISS:        348
cpu0_L1I RFO       ACCESS:          0  HIT:          0  MISS:          0
cpu0_L1I PREFETCH  ACCESS:          0  HIT:          0  MISS:          0
cpu0_L1I WRITEBACK ACCESS:          0  HIT:          0  MISS:          0
cpu0_STLB TOTAL     ACCESS:       2616  HIT:       2558  MISS:         58
cpu0_STLB LOAD      ACCESS:       2477  HIT:       2424  MISS:         53
cpu0_STLB RFO       ACCESS:        139  HIT:        134  MISS:          5
cpu0_STLB PREFETCH  ACCESS:          0  HIT:          0  MISS:          0
cpu0_STLB WRITEBACK ACCESS:          0  HIT:          0  MISS:          0
cpu0_L1D TOTAL     ACCESS:    1290152  HIT:    1270871  MISS:      19281
cpu0_L1D LOAD      ACCESS:     723075  HIT:     706705  MISS:      16370
cpu0_L1D RFO       ACCESS:     567028  HIT:     564139  MISS:       2889
cpu0_L1D PREFETCH  ACCESS:          0  HIT:          0  MISS:          0
cpu0_L1D WRITEBACK ACCESS:          0  HIT:          0  MISS:          0
cpu0_L2C TOTAL     ACCESS:      23136  HIT:       6589  MISS:      16547
cpu0_L2C LOAD      ACCESS:      16718  HIT:       3080  MISS:      13638
cpu0_L2C RFO       ACCESS:       2889  HIT:         75  MISS:       2814
cpu0_L2C PREFETCH  ACCESS:          0  HIT:          0  MISS:          0
cpu0_L2C WRITEBACK ACCESS:       3507  HIT:       3424  MISS:         83
LLC TOTAL     ACCESS:      20523  HIT:      19793  MISS:        730
LLC LOAD      ACCESS:      13638  HIT:      13044  MISS:        594
LLC RFO       ACCESS:       2814  HIT:       2678  MISS:        136
LLC PREFETCH  ACCESS:          0  HIT:          0  MISS:          0
LLC WRITEBACK ACCESS:       4059  HIT:       4059  MISS:          0
Heartbeat CPU 0 instructions: 58000002 cycles: 24157611 heartbeat IPC: 1.43507 cumulative IPC: 1.86105 (Simulation time: 0 hr 55 min 23 sec) 

Region of Interest Statistics
cpu0_DTLB TOTAL     ACCESS:    1478736  HIT:    1474860  MISS:       3876
cpu0_DTLB LOAD      ACCESS:    1151027  HIT:    1147339  MISS:       3688
cpu0_DTLB RFO       ACCESS:     327709  HIT:     327521  MISS:        188
cpu0_DTLB PREFETCH  ACCESS:          0  HIT:          0  MISS:          0
cpu0_DTLB WRITEBACK ACCESS:          0  HIT:          0  MISS:          0
cpu0_ITLB TOTAL     ACCESS:     852992  HIT:     852991  MISS:          1
cpu0_ITLB LOAD      ACCESS:     852992  HIT:     852991  MISS:          1
cpu0_ITLB RFO       ACCESS:          0  HIT:          0  MISS:          0
cpu0_ITLB PREFETCH  ACCESS:          0  HIT:          0  MISS:          0
cpu0_ITLB WRITEBACK ACCESS:          0  HIT:          0  MISS:          0
cpu0_L1I TOTAL     ACCESS:      82948  HIT:      82516  MISS:        432
cpu0_L1I LOAD      ACCESS:      82948  HIT:      82516  MISS:        432
cpu0_L1I RFO       ACCESS:          0  HIT:          0  MISS:          0
cpu0_L1I PREFETCH  ACCESS:          0  HIT:          0  MISS:          0
cpu0_L1I WRITEBACK ACCESS:          0  HIT:          0  MISS:          0
cpu0_STLB TOTAL     ACCESS:       3877  HIT:       3781  MISS:         96
cpu0_STLB LOAD      ACCESS:       3689  HIT:       3599  MISS:         90
cpu0_STLB RFO       ACCESS:        188  HIT:        182  MISS:          6
cpu0_STLB PREFETCH  ACCESS:          0  HIT:          0  MISS:          0
cpu0_STLB WRITEBACK ACCESS:          0  HIT:          0  MISS:          0
cpu0_L1D TOTAL     ACCESS:    1691154  HIT:    1663518  MISS:      27636
cpu0_L1D LOAD      ACCESS:     960683  HIT:     936393  MISS:      24290
cpu0_L1D RFO       ACCESS:     730390  HIT:     727073  MISS:       3317
cpu0_L1D PREFETCH  ACCESS:          0  HIT:          0  MISS:          0
cpu0_L1D WRITEBACK ACCESS:          0  HIT:          0  MISS:          0
cpu0_L2C TOTAL     ACCESS:      31943  HIT:       7303  MISS:      24640
cpu0_L2C LOAD      ACCESS:      24722  HIT:       3408  MISS:      21314
cpu0_L2C RFO       ACCESS:       3317  HIT:        106  MISS:       3211
cpu0_L2C PREFETCH  ACCESS:          0  HIT:          0  MISS:          0
cpu0_L2C WRITEBACK ACCESS:       3875  HIT:       3776  MISS:         99
LLC TOTAL     ACCESS:      29014  HIT:      28041  MISS:        973
LLC LOAD      ACCESS:      21314  HIT:      20484  MISS:        830
LLC RFO       ACCESS:       3211  HIT:       3068  MISS:        143
LLC PREFETCH  ACCESS:          0  HIT:          0  MISS:          0
LLC WRITEBACK ACCESS:       4473  HIT:       4473  MISS:          0
Heartbeat CPU 0 instructions: 60000003 cycles: 25959488 heartbeat IPC: 1.10995 cumulative IPC: 1.6392 (Simulation time: 0 hr 56 min 38 sec) 

Region of Interest Statistics
cpu0_DTLB TOTAL     ACCESS:    1864982  HIT:    1859892  MISS:       5090
cpu0_DTLB LOAD      ACCESS:    1470607  HIT:    1465759  MISS:       4848
cpu0_DTLB RFO       ACCESS:     394375  HIT:     394133  MISS:        242
cpu0_DTLB PREFETCH  ACCESS:          0  HIT:          0  MISS:          0
cpu0_DTLB WRITEBACK ACCESS:          0  HIT:          0  MISS:          0
cpu0_ITLB TOTAL     ACCESS:    1080714  HIT:    1080713  MISS:          1
cpu0_ITLB LOAD      ACCESS:    1080714  HIT:    1080713  MISS:          1
cpu0_ITLB RFO       ACCESS:          0  HIT:          0  MISS:          0
cpu0_ITLB PREFETCH  ACCESS:          0  HIT:          0  MISS:          0
cpu0_ITLB WRITEBACK ACCESS:          0  HIT:          0  MISS:          0
cpu0_L1I TOTAL     ACCESS:      97252  HIT:      96811  MISS:        441
cpu0_L1I LOAD      ACCESS:      97252  HIT:      96811  MISS:        441
cpu0_L1I RFO       ACCESS:          0  HIT:          0  MISS:          0
cpu0_L1I PREFETCH  ACCESS:          0  HIT:          0  MISS:          0
cpu0_L1I WRITEBACK ACCESS:          0  HIT:          0  MISS:          0
cpu0_STLB TOTAL     ACCESS:       5091  HIT:       4993  MISS:         98
cpu0_STLB LOAD      ACCESS:       4849  HIT:       4757  MISS:         92
cpu0_STLB RFO       ACCESS:        242  HIT:        236  MISS:          6
cpu0_STLB PREFETCH  ACCESS:          0  HIT:          0  MISS:          0
cpu0_STLB WRITEBACK ACCESS:          0  HIT:          0  MISS:          0
cpu0_L1D TOTAL     ACCESS:    2112579  HIT:    2077646  MISS:      34933
cpu0_L1D LOAD      ACCESS:    1229662  HIT:    1198323  MISS:      31339
cpu0_L1D RFO       ACCESS:     882834  HIT:     879270  MISS:       3564
cpu0_L1D PREFETCH  ACCESS:          0  HIT:          0  MISS:          0
cpu0_L1D WRITEBACK ACCESS:          0  HIT:          0  MISS:          0
cpu0_L2C TOTAL     ACCESS:      39635  HIT:       8236  MISS:      31399
cpu0_L2C LOAD      ACCESS:      31780  HIT:       3934  MISS:      27846
cpu0_L2C RFO       ACCESS:       3564  HIT:        137  MISS:       3427
cpu0_L2C PREFETCH  ACCESS:          0  HIT:          0  MISS:          0
cpu0_L2C WRITEBACK ACCESS:       4261  HIT:       4152  MISS:        109
LLC TOTAL     ACCESS:      36116  HIT:      35067  MISS:       1049
LLC LOAD      ACCESS:      27846  HIT:      26942  MISS:        904
LLC RFO       ACCESS:       3427  HIT:       3282  MISS:        145
LLC PREFETCH  ACCESS:          0  HIT:          0  MISS:          0
LLC WRITEBACK ACCESS:       4826  HIT:       4826  MISS:          0
Heartbeat CPU 0 instructions: 62000004 cycles: 27259871 heartbeat IPC: 1.53801 cumulative IPC: 1.62142 (Simulation time: 0 hr 57 min 51 sec) 

Region of Interest Statistics
cpu0_DTLB TOTAL     ACCESS:    2229456  HIT:    2223047  MISS:       6409
cpu0_DTLB LOAD      ACCESS:    1758506  HIT:    1752378  MISS:       6128
cpu0_DTLB RFO       ACCESS:     470950  HIT:     470669  MISS:        281
cpu0_DTLB PREFETCH  ACCESS:          0  HIT:          0  MISS:          0
cpu0_DTLB WRITEBACK ACCESS:          0  HIT:          0  MISS:          0
cpu0_ITLB TOTAL     ACCESS:    1305556  HIT:    1305555  MISS:          1
cpu0_ITLB LOAD      ACCESS:    1305556  HIT:    1305555  MISS:          1
cpu0_ITLB RFO       ACCESS:          0  HIT:          0  MISS:          0
cpu0_ITLB PREFETCH  ACCESS:          0  HIT:          0  MISS:          0
cpu0_ITLB WRITEBACK ACCESS:          0  HIT:          0  MISS:          0
cpu0_L1I TOTAL     ACCESS:     113497  HIT:     112954  MISS:        543
cpu0_L1I LOAD      ACCESS:     113497  HIT:     112954  MISS:        543
cpu0_L1I RFO       ACCESS:          0  HIT:          0  MISS:          0
cpu0_L1I PREFETCH  ACCESS:          0  HIT:          0  MISS:          0
cpu0_L1I WRITEBACK ACCESS:          0  HIT:          0  MISS:          0
cpu0_STLB TOTAL     ACCESS:       6410  HIT:       6245  MISS:        165
cpu0_STLB LOAD      ACCESS:       6129  HIT:       5971  MISS:        158
cpu0_STLB RFO       ACCESS:        281  HIT:        274  MISS:          7
cpu0_STLB PREFETCH  ACCESS:          0  HIT:          0  MISS:          0
cpu0_STLB WRITEBACK ACCESS:          0  HIT:          0  MISS:          0
cpu0_L1D TOTAL     ACCESS:    2514979  HIT:    2472214  MISS:      42765
cpu0_L1D LOAD      ACCESS:    1458321  HIT:    1419542  MISS:      38779
cpu0_L1D RFO       ACCESS:    1056519  HIT:    1052568  MISS:       3951
cpu0_L1D PREFETCH  ACCESS:          0  HIT:          0  MISS:          0
cpu0_L1D WRITEBACK ACCESS:          0  HIT:          0  MISS:          0
cpu0_L2C TOTAL     ACCESS:      48012  HIT:       9211  MISS:      38801
cpu0_L2C LOAD      ACCESS:      39322  HIT:       4448  MISS:      34874
cpu0_L2C RFO       ACCESS:       3951  HIT:        169  MISS:       3782
cpu0_L2C PREFETCH  ACCESS:          0  HIT:          0  MISS:          0
cpu0_L2C WRITEBACK ACCESS:       4704  HIT:       4579  MISS:        125
LLC TOTAL     ACCESS:      43915  HIT:      42523  MISS:       1392
LLC LOAD      ACCESS:      34874  HIT:      33637  MISS:       1237
LLC RFO       ACCESS:       3782  HIT:       3627  MISS:        155
LLC PREFETCH  ACCESS:          0  HIT:          0  MISS:          0
LLC WRITEBACK ACCESS:       5239  HIT:       5239  MISS:          0
Heartbeat CPU 0 instructions: 64000001 cycles: 28503021 heartbeat IPC: 1.60881 cumulative IPC: 1.61961 (Simulation time: 0 hr 59 min 5 sec) 

Region of Interest Statistics
cpu0_DTLB TOTAL     ACCESS:    2592603  HIT:    2584738  MISS:       7865
cpu0_DTLB LOAD      ACCESS:    2048603  HIT:    2041074  MISS:       7529
cpu0_DTLB RFO       ACCESS:     544000  HIT:     543664  MISS:        336
cpu0_DTLB PREFETCH  ACCESS:          0  HIT:          0  MISS:          0
cpu0_DTLB WRITEBACK ACCESS:          0  HIT:          0  MISS:          0
cpu0_ITLB TOTAL     ACCESS:    1529149  HIT:    1529148  MISS:          1
cpu0_ITLB LOAD      ACCESS:    1529149  HIT:    1529148  MISS:          1
cpu0_ITLB RFO       ACCESS:          0  HIT:          0  MISS:          0
cpu0_ITLB PREFETCH  ACCESS:          0  HIT:          0  MISS:          0
cpu0_ITLB WRITEBACK ACCESS:          0  HIT:          0  MISS:          0
cpu0_L1I TOTAL     ACCESS:     130209  HIT:     129577  MISS:        632
cpu0_L1I LOAD      ACCESS:     130209  HIT:     129577  MISS:        632
cpu0_L1I RFO       ACCESS:          0  HIT:          0  MISS:          0
cpu0_L1I PREFETCH  ACCESS:          0  HIT:          0  MISS:          0
cpu0_L1I WRITEBACK ACCESS:          0  HIT:          0  MISS:          0
cpu0_STLB TOTAL     ACCESS:       7866  HIT:       7670  MISS:        196
cpu0_STLB LOAD      ACCESS:       7530  HIT:       7341  MISS:        189
cpu0_STLB RFO       ACCESS:        336  HIT:        329  MISS:          7
cpu0_STLB PREFETCH  ACCESS:          0  HIT:          0  MISS:          0
cpu0_STLB WRITEBACK ACCESS:          0  HIT:          0  MISS:          0
cpu0_L1D TOTAL     ACCESS:    2902260  HIT:    2850925  MISS:      51335
cpu0_L1D LOAD      ACCESS:    1679862  HIT:    1632957  MISS:      46905
cpu0_L1D RFO       ACCESS:    1222230  HIT:    1217843  MISS:       4387
cpu0_L1D PREFETCH  ACCESS:          0  HIT:          0  MISS:          0
cpu0_L1D WRITEBACK ACCESS:          0  HIT:          0  MISS:          0
cpu0_L2C TOTAL     ACCESS:      57167  HIT:      10154  MISS:      47013
cpu0_L2C LOAD      ACCESS:      47537  HIT:       4865  MISS:      42672
cpu0_L2C RFO       ACCESS:       4387  HIT:        204  MISS:       4183
cpu0_L2C PREFETCH  ACCESS:          0  HIT:          0  MISS:          0
cpu0_L2C WRITEBACK ACCESS:       5200  HIT:       5066  MISS:        134
LLC TOTAL     ACCESS:      52479  HIT:      50862  MISS:       1617
LLC LOAD      ACCESS:      42672  HIT:      41215  MISS:       1457
LLC RFO       ACCESS:       4183  HIT:       4023  MISS:        160
LLC PREFETCH  ACCESS:          0  HIT:          0  MISS:          0
LLC WRITEBACK ACCESS:       5600  HIT:       5600  MISS:          0
Heartbeat CPU 0 instructions: 66000001 cycles: 30004279 heartbeat IPC: 1.33222 cumulative IPC: 1.57708 (Simulation time: 1 hr 0 min 19 sec) 

Region of Interest Statistics
cpu0_DTLB TOTAL     ACCESS:    2963407  HIT:    2954257  MISS:       9150
cpu0_DTLB LOAD      ACCESS:    2351672  HIT:    2342913  MISS:       8759
cpu0_DTLB RFO       ACCESS:     611735  HIT:     611344  MISS:        391
cpu0_DTLB PREFETCH  ACCESS:          0  HIT:          0  MISS:          0
cpu0_DTLB WRITEBACK ACCESS:          0  HIT:          0  MISS:          0
cpu0_ITLB TOTAL     ACCESS:    1752275  HIT:    1752274  MISS:          1
cpu0_ITLB LOAD      ACCESS:    1752275  HIT:    1752274  MISS:          1
cpu0_ITLB RFO       ACCESS:          0  HIT:          0  MISS:          0
cpu0_ITLB PREFETCH  ACCESS:          0  HIT:          0  MISS:          0
cpu0_ITLB WRITEBACK ACCESS:          0  HIT:          0  MISS:          0
cpu0_L1I TOTAL     ACCESS:     147029  HIT:     146388  MISS:        641
cpu0_L1I LOAD      ACCESS:     147029  HIT:     146388  MISS:        641
cpu0_L1I RFO       ACCESS:          0  HIT:          0  MISS:          0
cpu0_L1I PREFETCH  ACCESS:          0  HIT:          0  MISS:          0
cpu0_L1I WRITEBACK ACCESS:          0  HIT:          0  MISS:          0
cpu0_STLB TOTAL     ACCESS:       9151  HIT:       8928  MISS:        223
cpu0_STLB LOAD      ACCESS:       8760  HIT:       8544  MISS:        216
cpu0_STLB RFO       ACCESS:        391  HIT:        384  MISS:          7
cpu0_STLB PREFETCH  ACCESS:          0  HIT:          0  MISS:          0
cpu0_STLB WRITEBACK ACCESS:          0  HIT:          0  MISS:          0
cpu0_L1D TOTAL     ACCESS:    3296612  HIT:    3237130  MISS:      59482
cpu0_L1D LOAD      ACCESS:    1919751  HIT:    1865041  MISS:      54710
cpu0_L1D RFO       ACCESS:    1376669  HIT:    1371946  MISS:       4723
cpu0_L1D PREFETCH  ACCESS:          0  HIT:          0  MISS:          0
cpu0_L1D WRITEBACK ACCESS:          0  HIT:          0  MISS:          0
cpu0_L2C TOTAL     ACCESS:      65658  HIT:      10911  MISS:      54747
cpu0_L2C LOAD      ACCESS:      55351  HIT:       5280  MISS:      50071
cpu0_L2C RFO       ACCESS:       4723  HIT:        217  MISS:       4506
cpu0_L2C PREFETCH  ACCESS:          0  HIT:          0  MISS:          0
cpu0_L2C WRITEBACK ACCESS:       5535  HIT:       5395  MISS:        140
LLC TOTAL     ACCESS:      60650  HIT:      58581  MISS:       2069
LLC LOAD      ACCESS:      50071  HIT:      48163  MISS:       1908
LLC RFO       ACCESS:       4506  HIT:       4345  MISS:        161
LLC PREFETCH  ACCESS:          0  HIT:          0  MISS:          0
LLC WRITEBACK ACCESS:       6043  HIT:       6043  MISS:          0
Heartbeat CPU 0 instructions: 68000000 cycles: 31711308 heartbeat IPC: 1.17163 cumulative IPC: 1.51869 (Simulation time: 1 hr 1 min 35 sec) 

Region of Interest Statistics
cpu0_DTLB TOTAL     ACCESS:    3469692  HIT:    3459570  MISS:      10122
cpu0_DTLB LOAD      ACCESS:    2733230  HIT:    2723585  MISS:       9645
cpu0_DTLB RFO       ACCESS:     736462  HIT:     735985  MISS:        477
cpu0_DTLB PREFETCH  ACCESS:          0  HIT:          0  MISS:          0
cpu0_DTLB WRITEBACK ACCESS:          0  HIT:          0  MISS:          0
cpu0_ITLB TOTAL     ACCESS:    1892839  HIT:    1892836  MISS:          3
cpu0_ITLB LOAD      ACCESS:    1892839  HIT:    1892836  MISS:          3
cpu0_ITLB RFO       ACCESS:          0  HIT:          0  MISS:          0
cpu0_ITLB PREFETCH  ACCESS:          0  HIT:          0  MISS:          0
cpu0_ITLB WRITEBACK ACCESS:          0  HIT:          0  MISS:          0
cpu0_L1I TOTAL     ACCESS:     252378  HIT:     250093  MISS:       2285
cpu0_L1I LOAD      ACCESS:     252378  HIT:     250093  MISS:       2285
cpu0_L1I RFO       ACCESS:          0  HIT:          0  MISS:          0
cpu0_L1I PREFETCH  ACCESS:          0  HIT:          0  MISS:          0
cpu0_L1I WRITEBACK ACCESS:          0  HIT:          0  MISS:          0
cpu0_STLB TOTAL     ACCESS:      10125  HIT:       9885  MISS:        240
cpu0_STLB LOAD      ACCESS:       9648  HIT:       9421  MISS:        227
cpu0_STLB RFO       ACCESS:        477  HIT:        464  MISS:         13
cpu0_STLB PREFETCH  ACCESS:          0  HIT:          0  MISS:          0
cpu0_STLB WRITEBACK ACCESS:          0  HIT:          0  MISS:          0
cpu0_L1D TOTAL     ACCESS:    3886618  HIT:    3824682  MISS:      61936
cpu0_L1D LOAD      ACCESS:    2299431  HIT:    2243184  MISS:      56247
cpu0_L1D RFO       ACCESS:    1586979  HIT:    1581343  MISS:       5636
cpu0_L1D PREFETCH  ACCESS:          0  HIT:          0  MISS:          0
cpu0_L1D WRITEBACK ACCESS:          0  HIT:          0  MISS:          0
cpu0_L2C TOTAL     ACCESS:      70514  HIT:      13051  MISS:      57463
cpu0_L2C LOAD      ACCESS:      58532  HIT:       6455  MISS:      52077
cpu0_L2C RFO       ACCESS:       5636  HIT:        486  MISS:       5150
cpu0_L2C PREFETCH  ACCESS:          0  HIT:          0  MISS:          0
cpu0_L2C WRITEBACK ACCESS:       6293  HIT:       6089  MISS:        204
LLC TOTAL     ACCESS:      63541  HIT:      61209  MISS:       2332
LLC LOAD      ACCESS:      52077  HIT:      50090  MISS:       1987
LLC RFO       ACCESS:       5150  HIT:       4805  MISS:        345
LLC PREFETCH  ACCESS:          0  HIT:          0  MISS:          0
LLC WRITEBACK ACCESS:       6282  HIT:       6282  MISS:          0
Heartbeat CPU 0 instructions: 70000001 cycles: 33528077 heartbeat IPC: 1.10086 cumulative IPC: 1.46315 (Simulation time: 1 hr 2 min 49 sec) 

Region of Interest Statistics
cpu0_DTLB TOTAL     ACCESS:    3988799  HIT:    3978076  MISS:      10723
cpu0_DTLB LOAD      ACCESS:    3109840  HIT:    3099646  MISS:      10194
cpu0_DTLB RFO       ACCESS:     878959  HIT:     878430  MISS:        529
cpu0_DTLB PREFETCH  ACCESS:          0  HIT:          0  MISS:          0
cpu0_DTLB WRITEBACK ACCESS:          0  HIT:          0  MISS:          0
cpu0_ITLB TOTAL     ACCESS:    2036311  HIT:    2036308  MISS:          3
cpu0_ITLB LOAD      ACCESS:    2036311  HIT:    2036308  MISS:          3
cpu0_ITLB RFO       ACCESS:          0  HIT:          0  MISS:          0
cpu0_ITLB PREFETCH  ACCESS:          0  HIT:          0  MISS:          0
cpu0_ITLB WRITEBACK ACCESS:          0  HIT:          0  MISS:          0
cpu0_L1I TOTAL     ACCESS:     369246  HIT:     365921  MISS:       3325
cpu0_L1I LOAD      ACCESS:     369246  HIT:     365921  MISS:       3325
cpu0_L1I RFO       ACCESS:          0  HIT:          0  MISS:          0
cpu0_L1I PREFETCH  ACCESS:          0  HIT:          0  MISS:          0
cpu0_L1I WRITEBACK ACCESS:          0  HIT:          0  MISS:          0
cpu0_STLB TOTAL     ACCESS:      10726  HIT:      10486  MISS:        240
cpu0_STLB LOAD      ACCESS:      10197  HIT:       9970  MISS:        227
cpu0_STLB RFO       ACCESS:        529  HIT:        516  MISS:         13
cpu0_STLB PREFETCH  ACCESS:          0  HIT:          0  MISS:          0
cpu0_STLB WRITEBACK ACCESS:          0  HIT:          0  MISS:          0
cpu0_L1D TOTAL     ACCESS:    4509354  HIT:    4447198  MISS:      62156
cpu0_L1D LOAD      ACCESS:    2677718  HIT:    2621347  MISS:      56371
cpu0_L1D RFO       ACCESS:    1831428  HIT:    1825696  MISS:       5732
cpu0_L1D PREFETCH  ACCESS:          0  HIT:          0  MISS:          0
cpu0_L1D WRITEBACK ACCESS:          0  HIT:          0  MISS:          0
cpu0_L2C TOTAL     ACCESS:      71909  HIT:      14407  MISS:      57502
cpu0_L2C LOAD      ACCESS:      59696  HIT:       7586  MISS:      52110
cpu0_L2C RFO       ACCESS:       5732  HIT:        578  MISS:       5154
cpu0_L2C PREFETCH  ACCESS:          0  HIT:          0  MISS:          0
cpu0_L2C WRITEBACK ACCESS:       6428  HIT:       6222  MISS:        206
LLC TOTAL     ACCESS:      63590  HIT:      61258  MISS:       2332
LLC LOAD      ACCESS:      52110  HIT:      50123  MISS:       1987
LLC RFO       ACCESS:       5154  HIT:       4809  MISS:        345
LLC PREFETCH  ACCESS:          0  HIT:          0  MISS:          0
LLC WRITEBACK ACCESS:       6294  HIT:       6294  MISS:          0
Heartbeat CPU 0 instructions: 72000001 cycles: 35103155 heartbeat IPC: 1.26978 cumulative IPC: 1.44317 (Simulation time: 1 hr 4 min 36 sec) 

Region of Interest Statistics
cpu0_DTLB TOTAL     ACCESS:    4489103  HIT:    4477945  MISS:      11158
cpu0_DTLB LOAD      ACCESS:    3519996  HIT:    3509439  MISS:      10557
cpu0_DTLB RFO       ACCESS:     969107  HIT:     968506  MISS:        601
cpu0_DTLB PREFETCH  ACCESS:          0  HIT:          0  MISS:          0
cpu0_DTLB WRITEBACK ACCESS:          0  HIT:          0  MISS:          0
cpu0_ITLB TOTAL     ACCESS:    2136079  HIT:    2136074  MISS:          5
cpu0_ITLB LOAD      ACCESS:    2136079  HIT:    2136074  MISS:          5
cpu0_ITLB RFO       ACCESS:          0  HIT:          0  MISS:          0
cpu0_ITLB PREFETCH  ACCESS:          0  HIT:          0  MISS:          0
cpu0_ITLB WRITEBACK ACCESS:          0  HIT:          0  MISS:          0
cpu0_L1I TOTAL     ACCESS:     495577  HIT:     491789  MISS:       3788
cpu0_L1I LOAD      ACCESS:     495577  HIT:     491789  MISS:       3788
cpu0_L1I RFO       ACCESS:          0  HIT:          0  MISS:          0
cpu0_L1I PREFETCH  ACCESS:          0  HIT:          0  MISS:          0
cpu0_L1I WRITEBACK ACCESS:          0  HIT:          0  MISS:          0
cpu0_STLB TOTAL     ACCESS:      11163  HIT:      10914  MISS:        249
cpu0_STLB LOAD      ACCESS:      10562  HIT:      10328  MISS:        234
cpu0_STLB RFO       ACCESS:        601  HIT:        586  MISS:         15
cpu0_STLB PREFETCH  ACCESS:          0  HIT:          0  MISS:          0
cpu0_STLB WRITEBACK ACCESS:          0  HIT:          0  MISS:          0
cpu0_L1D TOTAL     ACCESS:    5057228  HIT:    4993862  MISS:      63366
cpu0_L1D LOAD      ACCESS:    3071164  HIT:    3014366  MISS:      56798
cpu0_L1D RFO       ACCESS:    1985847  HIT:    1979333  MISS:       6514
cpu0_L1D PREFETCH  ACCESS:          0  HIT:          0  MISS:          0
cpu0_L1D WRITEBACK ACCESS:          0  HIT:          0  MISS:          0
cpu0_L2C TOTAL     ACCESS:      74221  HIT:      15245  MISS:      58976
cpu0_L2C LOAD      ACCESS:      60586  HIT:       7884  MISS:      52702
cpu0_L2C RFO       ACCESS:       6514  HIT:        602  MISS:       5912
cpu0_L2C PREFETCH  ACCESS:          0  HIT:          0  MISS:          0
cpu0_L2C WRITEBACK ACCESS:       7067  HIT:       6738  MISS:        329
LLC TOTAL     ACCESS:      65387  HIT:      62972  MISS:       2415
LLC LOAD      ACCESS:      52702  HIT:      50666  MISS:       2036
LLC RFO       ACCESS:       5912  HIT:       5533  MISS:        379
LLC PREFETCH  ACCESS:          0  HIT:          0  MISS:          0
LLC WRITEBACK ACCESS:       6740  HIT:       6740  MISS:          0
Heartbeat CPU 0 instructions: 74000003 cycles: 36310559 heartbeat IPC: 1.65645 cumulative IPC: 1.45882 (Simulation time: 1 hr 6 min 30 sec) 

Region of Interest Statistics
cpu0_DTLB TOTAL     ACCESS:    4939763  HIT:    4928465  MISS:      11298
cpu0_DTLB LOAD      ACCESS:    3917797  HIT:    3907158  MISS:      10639
cpu0_DTLB RFO       ACCESS:    1021966  HIT:    1021307  MISS:        659
cpu0_DTLB PREFETCH  ACCESS:          0  HIT:          0  MISS:          0
cpu0_DTLB WRITEBACK ACCESS:          0  HIT:          0  MISS:          0
cpu0_ITLB TOTAL     ACCESS:    2229479  HIT:    2229474  MISS:          5
cpu0_ITLB LOAD      ACCESS:    2229479  HIT:    2229474  MISS:          5
cpu0_ITLB RFO       ACCESS:          0  HIT:          0  MISS:          0
cpu0_ITLB PREFETCH  ACCESS:          0  HIT:          0  MISS:          0
cpu0_ITLB WRITEBACK ACCESS:          0  HIT:          0  MISS:          0
cpu0_L1I TOTAL     ACCESS:     602306  HIT:     598431  MISS:       3875
cpu0_L1I LOAD      ACCESS:     602306  HIT:     598431  MISS:       3875
cpu0_L1I RFO       ACCESS:          0  HIT:          0  MISS:          0
cpu0_L1I PREFETCH  ACCESS:          0  HIT:          0  MISS:          0
cpu0_L1I WRITEBACK ACCESS:          0  HIT:          0  MISS:          0
cpu0_STLB TOTAL     ACCESS:      11303  HIT:      11043  MISS:        260
cpu0_STLB LOAD      ACCESS:      10644  HIT:      10405  MISS:        239
cpu0_STLB RFO       ACCESS:        659  HIT:        638  MISS:         21
cpu0_STLB PREFETCH  ACCESS:          0  HIT:          0  MISS:          0
cpu0_STLB WRITEBACK ACCESS:          0  HIT:          0  MISS:          0
cpu0_L1D TOTAL     ACCESS:    5505189  HIT:    5435844  MISS:      69345
cpu0_L1D LOAD      ACCESS:    3432392  HIT:    3372353  MISS:      60039
cpu0_L1D RFO       ACCESS:    2072569  HIT:    2063320  MISS:       9249
cpu0_L1D PREFETCH  ACCESS:          0  HIT:          0  MISS:          0
cpu0_L1D WRITEBACK ACCESS:          0  HIT:          0  MISS:          0
cpu0_L2C TOTAL     ACCESS:      83086  HIT:      20083  MISS:      63003
cpu0_L2C LOAD      ACCESS:      63914  HIT:       9959  MISS:      53955
cpu0_L2C RFO       ACCESS:       9249  HIT:        614  MISS:       8635
cpu0_L2C PREFETCH  ACCESS:          0  HIT:          0  MISS:          0
cpu0_L2C WRITEBACK ACCESS:       9866  HIT:       9489  MISS:        377
LLC TOTAL     ACCESS:      71881  HIT:      69308  MISS:       2573
LLC LOAD      ACCESS:      53955  HIT:      51763  MISS:       2192
LLC RFO       ACCESS:       8635  HIT:       8255  MISS:        380
LLC PREFETCH  ACCESS:          0  HIT:          0  MISS:          0
LLC WRITEBACK ACCESS:       9255  HIT:       9254  MISS:          1
Heartbeat CPU 0 instructions: 76000002 cycles: 37518617 heartbeat IPC: 1.65555 cumulative IPC: 1.47228 (Simulation time: 1 hr 8 min 25 sec) 

Region of Interest Statistics
cpu0_DTLB TOTAL     ACCESS:    5391138  HIT:    5379698  MISS:      11440
cpu0_DTLB LOAD      ACCESS:    4316323  HIT:    4305601  MISS:      10722
cpu0_DTLB RFO       ACCESS:    1074815  HIT:    1074097  MISS:        718
cpu0_DTLB PREFETCH  ACCESS:          0  HIT:          0  MISS:          0
cpu0_DTLB WRITEBACK ACCESS:          0  HIT:          0  MISS:          0
cpu0_ITLB TOTAL     ACCESS:    2322657  HIT:    2322652  MISS:          5
cpu0_ITLB LOAD      ACCESS:    2322657  HIT:    2322652  MISS:          5
cpu0_ITLB RFO       ACCESS:          0  HIT:          0  MISS:          0
cpu0_ITLB PREFETCH  ACCESS:          0  HIT:          0  MISS:          0
cpu0_ITLB WRITEBACK ACCESS:          0  HIT:          0  MISS:          0
cpu0_L1I TOTAL     ACCESS:     709013  HIT:     705135  MISS:       3878
cpu0_L1I LOAD      ACCESS:     709013  HIT:     705135  MISS:       3878
cpu0_L1I RFO       ACCESS:          0  HIT:          0  MISS:          0
cpu0_L1I PREFETCH  ACCESS:          0  HIT:          0  MISS:          0
cpu0_L1I WRITEBACK ACCESS:          0  HIT:          0  MISS:          0
cpu0_STLB TOTAL     ACCESS:      11445  HIT:      11176  MISS:        269
cpu0_STLB LOAD      ACCESS:      10727  HIT:      10486  MISS:        241
cpu0_STLB RFO       ACCESS:        718  HIT:        690  MISS:         28
cpu0_STLB PREFETCH  ACCESS:          0  HIT:          0  MISS:          0
cpu0_STLB WRITEBACK ACCESS:          0  HIT:          0  MISS:          0
cpu0_L1D TOTAL     ACCESS:    5955462  HIT:    5880100  MISS:      75362
cpu0_L1D LOAD      ACCESS:    3796217  HIT:    3732899  MISS:      63318
cpu0_L1D RFO       ACCESS:    2159008  HIT:    2147025  MISS:      11983
cpu0_L1D PREFETCH  ACCESS:          0  HIT:          0  MISS:          0
cpu0_L1D WRITEBACK ACCESS:          0  HIT:          0  MISS:          0
cpu0_L2C TOTAL     ACCESS:      91956  HIT:      25059  MISS:      66897
cpu0_L2C LOAD      ACCESS:      67196  HIT:      12100  MISS:      55096
cpu0_L2C RFO       ACCESS:      11983  HIT:        625  MISS:      11358
cpu0_L2C PREFETCH  ACCESS:          0  HIT:          0  MISS:          0
cpu0_L2C WRITEBACK ACCESS:      12716  HIT:      12311  MISS:        405
LLC TOTAL     ACCESS:      78463  HIT:      75670  MISS:       2793
LLC LOAD      ACCESS:      55096  HIT:      52712  MISS:       2384
LLC RFO       ACCESS:      11358  HIT:      10950  MISS:        408
LLC PREFETCH  ACCESS:          0  HIT:          0  MISS:          0
LLC WRITEBACK ACCESS:      11971  HIT:      11970  MISS:          1
Heartbeat CPU 0 instructions: 78000002 cycles: 38724963 heartbeat IPC: 1.6579 cumulative IPC: 1.48415 (Simulation time: 1 hr 10 min 20 sec) 

Region of Interest Statistics
cpu0_DTLB TOTAL     ACCESS:    5843371  HIT:    5831786  MISS:      11585
cpu0_DTLB LOAD      ACCESS:    4715959  HIT:    4705151  MISS:      10808
cpu0_DTLB RFO       ACCESS:    1127412  HIT:    1126635  MISS:        777
cpu0_DTLB PREFETCH  ACCESS:          0  HIT:          0  MISS:          0
cpu0_DTLB WRITEBACK ACCESS:          0  HIT:          0  MISS:          0
cpu0_ITLB TOTAL     ACCESS:    2413288  HIT:    2413283  MISS:          5
cpu0_ITLB LOAD      ACCESS:    2413288  HIT:    2413283  MISS:          5
cpu0_ITLB RFO       ACCESS:          0  HIT:          0  MISS:          0
cpu0_ITLB PREFETCH  ACCESS:          0  HIT:          0  MISS:          0
cpu0_ITLB WRITEBACK ACCESS:          0  HIT:          0  MISS:          0
cpu0_L1I TOTAL     ACCESS:     815642  HIT:     811763  MISS:       3879
cpu0_L1I LOAD      ACCESS:     815642  HIT:     811763  MISS:       3879
cpu0_L1I RFO       ACCESS:          0  HIT:          0  MISS:          0
cpu0_L1I PREFETCH  ACCESS:          0  HIT:          0  MISS:          0
cpu0_L1I WRITEBACK ACCESS:          0  HIT:          0  MISS:          0
cpu0_STLB TOTAL     ACCESS:      11590  HIT:      11312  MISS:        278
cpu0_STLB LOAD      ACCESS:      10813  HIT:      10569  MISS:        244
cpu0_STLB RFO       ACCESS:        777  HIT:        743  MISS:         34
cpu0_STLB PREFETCH  ACCESS:          0  HIT:          0  MISS:          0
cpu0_STLB WRITEBACK ACCESS:          0  HIT:          0  MISS:          0
cpu0_L1D TOTAL     ACCESS:    6408437  HIT:    6327073  MISS:      81364
cpu0_L1D LOAD      ACCESS:    4162342  HIT:    4095764  MISS:      66578
cpu0_L1D RFO       ACCESS:    2245849  HIT:    2231128  MISS:      14721
cpu0_L1D PREFETCH  ACCESS:          0  HIT:          0  MISS:          0
cpu0_L1D WRITEBACK ACCESS:          0  HIT:          0  MISS:          0
cpu0_L2C TOTAL     ACCESS:     100790  HIT:      29490  MISS:      71300
cpu0_L2C LOAD      ACCESS:      70457  HIT:      13698  MISS:      56759
cpu0_L2C RFO       ACCESS:      14721  HIT:        633  MISS:      14088
cpu0_L2C PREFETCH  ACCESS:          0  HIT:          0  MISS:          0
cpu0_L2C WRITEBACK ACCESS:      15547  HIT:      15134  MISS:        413
LLC TOTAL     ACCESS:      85788  HIT:      82797  MISS:       2991
LLC LOAD      ACCESS:      56759  HIT:      54238  MISS:       2521
LLC RFO       ACCESS:      14088  HIT:      13619  MISS:        469
LLC PREFETCH  ACCESS:          0  HIT:          0  MISS:          0
LLC WRITEBACK ACCESS:      14901  HIT:      14900  MISS:          1
Heartbeat CPU 0 instructions: 80000001 cycles: 39929041 heartbeat IPC: 1.66102 cumulative IPC: 1.49476 (Simulation time: 1 hr 12 min 15 sec) 

Region of Interest Statistics
cpu0_DTLB TOTAL     ACCESS:    6297712  HIT:    6285984  MISS:      11728
cpu0_DTLB LOAD      ACCESS:    5117481  HIT:    5106589  MISS:      10892
cpu0_DTLB RFO       ACCESS:    1180231  HIT:    1179395  MISS:        836
cpu0_DTLB PREFETCH  ACCESS:          0  HIT:          0  MISS:          0
cpu0_DTLB WRITEBACK ACCESS:          0  HIT:          0  MISS:          0
cpu0_ITLB TOTAL     ACCESS:    2504915  HIT:    2504910  MISS:          5
cpu0_ITLB LOAD      ACCESS:    2504915  HIT:    2504910  MISS:          5
cpu0_ITLB RFO       ACCESS:          0  HIT:          0  MISS:          0
cpu0_ITLB PREFETCH  ACCESS:          0  HIT:          0  MISS:          0
cpu0_ITLB WRITEBACK ACCESS:          0  HIT:          0  MISS:          0
cpu0_L1I TOTAL     ACCESS:     921503  HIT:     917623  MISS:       3880
cpu0_L1I LOAD      ACCESS:     921503  HIT:     917623  MISS:       3880
cpu0_L1I RFO       ACCESS:          0  HIT:          0  MISS:          0
cpu0_L1I PREFETCH  ACCESS:          0  HIT:          0  MISS:          0
cpu0_L1I WRITEBACK ACCESS:          0  HIT:          0  MISS:          0
cpu0_STLB TOTAL     ACCESS:      11733  HIT:      11444  MISS:        289
cpu0_STLB LOAD      ACCESS:      10897  HIT:      10652  MISS:        245
cpu0_STLB RFO       ACCESS:        836  HIT:        792  MISS:         44
cpu0_STLB PREFETCH  ACCESS:          0  HIT:          0  MISS:          0
cpu0_STLB WRITEBACK ACCESS:          0  HIT:          0  MISS:          0
cpu0_L1D TOTAL     ACCESS:    6867056  HIT:    6779689  MISS:      87367
cpu0_L1D LOAD      ACCESS:    4534012  HIT:    4464169  MISS:      69843
cpu0_L1D RFO       ACCESS:    2332787  HIT:    2315332  MISS:      17455
cpu0_L1D PREFETCH  ACCESS:          0  HIT:          0  MISS:          0
cpu0_L1D WRITEBACK ACCESS:          0  HIT:          0  MISS:          0
cpu0_L2C TOTAL     ACCESS:     109576  HIT:      33964  MISS:      75612
cpu0_L2C LOAD      ACCESS:      73723  HIT:      15423  MISS:      58300
cpu0_L2C RFO       ACCESS:      17455  HIT:        644  MISS:      16811
cpu0_L2C PREFETCH  ACCESS:          0  HIT:          0  MISS:          0
cpu0_L2C WRITEBACK ACCESS:      18329  HIT:      17869  MISS:        460
LLC TOTAL     ACCESS:      92551  HIT:      89427  MISS:       3124
LLC LOAD      ACCESS:      58300  HIT:      55686  MISS:       2614
LLC RFO       ACCESS:      16811  HIT:      16302  MISS:        509
LLC PREFETCH  ACCESS:          0  HIT:          0  MISS:          0
LLC WRITEBACK ACCESS:      17399  HIT:      17398  MISS:          1
Heartbeat CPU 0 instructions: 82000003 cycles: 41145418 heartbeat IPC: 1.64423 cumulative IPC: 1.5033 (Simulation time: 1 hr 14 min 11 sec) 

Region of Interest Statistics
cpu0_DTLB TOTAL     ACCESS:    6756310  HIT:    6744499  MISS:      11811
cpu0_DTLB LOAD      ACCESS:    5525500  HIT:    5514566  MISS:      10934
cpu0_DTLB RFO       ACCESS:    1230810  HIT:    1229933  MISS:        877
cpu0_DTLB PREFETCH  ACCESS:          0  HIT:          0  MISS:          0
cpu0_DTLB WRITEBACK ACCESS:          0  HIT:          0  MISS:          0
cpu0_ITLB TOTAL     ACCESS:    2591119  HIT:    2591114  MISS:          5
cpu0_ITLB LOAD      ACCESS:    2591119  HIT:    2591114  MISS:          5
cpu0_ITLB RFO       ACCESS:          0  HIT:          0  MISS:          0
cpu0_ITLB PREFETCH  ACCESS:          0  HIT:          0  MISS:          0
cpu0_ITLB WRITEBACK ACCESS:          0  HIT:          0  MISS:          0
cpu0_L1I TOTAL     ACCESS:    1030886  HIT:    1027006  MISS:       3880
cpu0_L1I LOAD      ACCESS:    1030886  HIT:    1027006  MISS:       3880
cpu0_L1I RFO       ACCESS:          0  HIT:          0  MISS:          0
cpu0_L1I PREFETCH  ACCESS:          0  HIT:          0  MISS:          0
cpu0_L1I WRITEBACK ACCESS:          0  HIT:          0  MISS:          0
cpu0_STLB TOTAL     ACCESS:      11816  HIT:      11518  MISS:        298
cpu0_STLB LOAD      ACCESS:      10939  HIT:      10692  MISS:        247
cpu0_STLB RFO       ACCESS:        877  HIT:        826  MISS:         51
cpu0_STLB PREFETCH  ACCESS:          0  HIT:          0  MISS:          0
cpu0_STLB WRITEBACK ACCESS:          0  HIT:          0  MISS:          0
cpu0_L1D TOTAL     ACCESS:    7327715  HIT:    7234511  MISS:      93204
cpu0_L1D LOAD      ACCESS:    4912959  HIT:    4840003  MISS:      72956
cpu0_L1D RFO       ACCESS:    2414490  HIT:    2394315  MISS:      20175
cpu0_L1D PREFETCH  ACCESS:          0  HIT:          0  MISS:          0
cpu0_L1D WRITEBACK ACCESS:          0  HIT:          0  MISS:          0
cpu0_L2C TOTAL     ACCESS:     117992  HIT:      38183  MISS:      79809
cpu0_L2C LOAD      ACCESS:      76836  HIT:      17078  MISS:      59758
cpu0_L2C RFO       ACCESS:      20175  HIT:        655  MISS:      19520
cpu0_L2C PREFETCH  ACCESS:          0  HIT:          0  MISS:          0
cpu0_L2C WRITEBACK ACCESS:      20908  HIT:      20420  MISS:        488
LLC TOTAL     ACCESS:      99584  HIT:      96374  MISS:       3210
LLC LOAD      ACCESS:      59758  HIT:      57108  MISS:       2650
LLC RFO       ACCESS:      19520  HIT:      18961  MISS:        559
LLC PREFETCH  ACCESS:          0  HIT:          0  MISS:          0
LLC WRITEBACK ACCESS:      20263  HIT:      20262  MISS:          1
Heartbeat CPU 0 instructions: 84000000 cycles: 42420277 heartbeat IPC: 1.5688 cumulative IPC: 1.507 (Simulation time: 1 hr 16 min 14 sec) 

Region of Interest Statistics
cpu0_DTLB TOTAL     ACCESS:    7226030  HIT:    7214140  MISS:      11890
cpu0_DTLB LOAD      ACCESS:    5947868  HIT:    5936883  MISS:      10985
cpu0_DTLB RFO       ACCESS:    1278162  HIT:    1277257  MISS:        905
cpu0_DTLB PREFETCH  ACCESS:          0  HIT:          0  MISS:          0
cpu0_DTLB WRITEBACK ACCESS:          0  HIT:          0  MISS:          0
cpu0_ITLB TOTAL     ACCESS:    2662998  HIT:    2662993  MISS:          5
cpu0_ITLB LOAD      ACCESS:    2662998  HIT:    2662993  MISS:          5
cpu0_ITLB RFO       ACCESS:          0  HIT:          0  MISS:          0
cpu0_ITLB PREFETCH  ACCESS:          0  HIT:          0  MISS:          0
cpu0_ITLB WRITEBACK ACCESS:          0  HIT:          0  MISS:          0
cpu0_L1I TOTAL     ACCESS:    1151723  HIT:    1147843  MISS:       3880
cpu0_L1I LOAD      ACCESS:    1151723  HIT:    1147843  MISS:       3880
cpu0_L1I RFO       ACCESS:          0  HIT:          0  MISS:          0
cpu0_L1I PREFETCH  ACCESS:          0  HIT:          0  MISS:          0
cpu0_L1I WRITEBACK ACCESS:          0  HIT:          0  MISS:          0
cpu0_STLB TOTAL     ACCESS:      11895  HIT:      11588  MISS:        307
cpu0_STLB LOAD      ACCESS:      10990  HIT:      10737  MISS:        253
cpu0_STLB RFO       ACCESS:        905  HIT:        851  MISS:         54
cpu0_STLB PREFETCH  ACCESS:          0  HIT:          0  MISS:          0
cpu0_STLB WRITEBACK ACCESS:          0  HIT:          0  MISS:          0
cpu0_L1D TOTAL     ACCESS:    7811036  HIT:    7714805  MISS:      96231
cpu0_L1D LOAD      ACCESS:    5314533  HIT:    5240223  MISS:      74310
cpu0_L1D RFO       ACCESS:    2496228  HIT:    2474383  MISS:      21845
cpu0_L1D PREFETCH  ACCESS:          0  HIT:          0  MISS:          0
cpu0_L1D WRITEBACK ACCESS:          0  HIT:          0  MISS:          0
cpu0_L2C TOTAL     ACCESS:     122967  HIT:      40964  MISS:      82003
cpu0_L2C LOAD      ACCESS:      78190  HIT:      17909  MISS:      60281
cpu0_L2C RFO       ACCESS:      21845  HIT:        666  MISS:      21179
cpu0_L2C PREFETCH  ACCESS:          0  HIT:          0  MISS:          0
cpu0_L2C WRITEBACK ACCESS:      22856  HIT:      22358  MISS:        498
LLC TOTAL     ACCESS:     103148  HIT:      99877  MISS:       3271
LLC LOAD      ACCESS:      60281  HIT:      57605  MISS:       2676
LLC RFO       ACCESS:      21179  HIT:      20585  MISS:        594
LLC PREFETCH  ACCESS:          0  HIT:          0  MISS:          0
LLC WRITEBACK ACCESS:      21643  HIT:      21642  MISS:          1
Heartbeat CPU 0 instructions: 86000000 cycles: 43642602 heartbeat IPC: 1.63623 cumulative IPC: 1.51364 (Simulation time: 1 hr 18 min 10 sec) 

Region of Interest Statistics
cpu0_DTLB TOTAL     ACCESS:    7683347  HIT:    7671318  MISS:      12029
cpu0_DTLB LOAD      ACCESS:    6353641  HIT:    6342566  MISS:      11075
cpu0_DTLB RFO       ACCESS:    1329706  HIT:    1328752  MISS:        954
cpu0_DTLB PREFETCH  ACCESS:          0  HIT:          0  MISS:          0
cpu0_DTLB WRITEBACK ACCESS:          0  HIT:          0  MISS:          0
cpu0_ITLB TOTAL     ACCESS:    2756246  HIT:    2756241  MISS:          5
cpu0_ITLB LOAD      ACCESS:    2756246  HIT:    2756241  MISS:          5
cpu0_ITLB RFO       ACCESS:          0  HIT:          0  MISS:          0
cpu0_ITLB PREFETCH  ACCESS:          0  HIT:          0  MISS:          0
cpu0_ITLB WRITEBACK ACCESS:          0  HIT:          0  MISS:          0
cpu0_L1I TOTAL     ACCESS:    1259835  HIT:    1255944  MISS:       3891
cpu0_L1I LOAD      ACCESS:    1259835  HIT:    1255944  MISS:       3891
cpu0_L1I RFO       ACCESS:          0  HIT:          0  MISS:          0
cpu0_L1I PREFETCH  ACCESS:          0  HIT:          0  MISS:          0
cpu0_L1I WRITEBACK ACCESS:          0  HIT:          0  MISS:          0
cpu0_STLB TOTAL     ACCESS:      12034  HIT:      11714  MISS:        320
cpu0_STLB LOAD      ACCESS:      11080  HIT:      10827  MISS:        253
cpu0_STLB RFO       ACCESS:        954  HIT:        887  MISS:         67
cpu0_STLB PREFETCH  ACCESS:          0  HIT:          0  MISS:          0
cpu0_STLB WRITEBACK ACCESS:          0  HIT:          0  MISS:          0
cpu0_L1D TOTAL     ACCESS:    8277129  HIT:    8176304  MISS:     100825
cpu0_L1D LOAD      ACCESS:    5693066  HIT:    5616402  MISS:      76664
cpu0_L1D RFO       ACCESS:    2583775  HIT:    2559693  MISS:      24082
cpu0_L1D PREFETCH  ACCESS:          0  HIT:          0  MISS:          0
cpu0_L1D WRITEBACK ACCESS:          0  HIT:          0  MISS:          0
cpu0_L2C TOTAL     ACCESS:     129519  HIT:      44034  MISS:      85485
cpu0_L2C LOAD      ACCESS:      80555  HIT:      19037  MISS:      61518
cpu0_L2C RFO       ACCESS:      24082  HIT:        666  MISS:      23416
cpu0_L2C PREFETCH  ACCESS:          0  HIT:          0  MISS:          0
cpu0_L2C WRITEBACK ACCESS:      24803  HIT:      24297  MISS:        506
LLC TOTAL     ACCESS:     109092  HIT:     105703  MISS:       3389
LLC LOAD      ACCESS:      61518  HIT:      58757  MISS:       2761
LLC RFO       ACCESS:      23416  HIT:      22789  MISS:        627
LLC PREFETCH  ACCESS:          0  HIT:          0  MISS:          0
LLC WRITEBACK ACCESS:      24113  HIT:      24112  MISS:          1
Heartbeat CPU 0 instructions: 88000002 cycles: 44846262 heartbeat IPC: 1.6616 cumulative IPC: 1.52077 (Simulation time: 1 hr 20 min 2 sec) 

Region of Interest Statistics
cpu0_DTLB TOTAL     ACCESS:    8136840  HIT:    8124656  MISS:      12184
cpu0_DTLB LOAD      ACCESS:    6754165  HIT:    6742995  MISS:      11170
cpu0_DTLB RFO       ACCESS:    1382675  HIT:    1381661  MISS:       1014
cpu0_DTLB PREFETCH  ACCESS:          0  HIT:          0  MISS:          0
cpu0_DTLB WRITEBACK ACCESS:          0  HIT:          0  MISS:          0
cpu0_ITLB TOTAL     ACCESS:    2849786  HIT:    2849781  MISS:          5
cpu0_ITLB LOAD      ACCESS:    2849786  HIT:    2849781  MISS:          5
cpu0_ITLB RFO       ACCESS:          0  HIT:          0  MISS:          0
cpu0_ITLB PREFETCH  ACCESS:          0  HIT:          0  MISS:          0
cpu0_ITLB WRITEBACK ACCESS:          0  HIT:          0  MISS:          0
cpu0_L1I TOTAL     ACCESS:    1365433  HIT:    1361542  MISS:       3891
cpu0_L1I LOAD      ACCESS:    1365433  HIT:    1361542  MISS:       3891
cpu0_L1I RFO       ACCESS:          0  HIT:          0  MISS:          0
cpu0_L1I PREFETCH  ACCESS:          0  HIT:          0  MISS:          0
cpu0_L1I WRITEBACK ACCESS:          0  HIT:          0  MISS:          0
cpu0_STLB TOTAL     ACCESS:      12189  HIT:      11847  MISS:        342
cpu0_STLB LOAD      ACCESS:      11175  HIT:      10914  MISS:        261
cpu0_STLB RFO       ACCESS:       1014  HIT:        933  MISS:         81
cpu0_STLB PREFETCH  ACCESS:          0  HIT:          0  MISS:          0
cpu0_STLB WRITEBACK ACCESS:          0  HIT:          0  MISS:          0
cpu0_L1D TOTAL     ACCESS:    8731077  HIT:    8624226  MISS:     106851
cpu0_L1D LOAD      ACCESS:    6060454  HIT:    5980503  MISS:      79951
cpu0_L1D RFO       ACCESS:    2670313  HIT:    2643496  MISS:      26817
cpu0_L1D PREFETCH  ACCESS:          0  HIT:          0  MISS:          0
cpu0_L1D WRITEBACK ACCESS:          0  HIT:          0  MISS:          0
cpu0_L2C TOTAL     ACCESS:     138316  HIT:      48953  MISS:      89363
cpu0_L2C LOAD      ACCESS:      83842  HIT:      21205  MISS:      62637
cpu0_L2C RFO       ACCESS:      26817  HIT:        677  MISS:      26140
cpu0_L2C PREFETCH  ACCESS:          0  HIT:          0  MISS:          0
cpu0_L2C WRITEBACK ACCESS:      27574  HIT:      27037  MISS:        537
LLC TOTAL     ACCESS:     115579  HIT:     112040  MISS:       3539
LLC LOAD      ACCESS:      62637  HIT:      59804  MISS:       2833
LLC RFO       ACCESS:      26140  HIT:      25435  MISS:        705
LLC PREFETCH  ACCESS:          0  HIT:          0  MISS:          0
LLC WRITEBACK ACCESS:      26753  HIT:      26752  MISS:          1
Heartbeat CPU 0 instructions: 90000001 cycles: 46050795 heartbeat IPC: 1.66039 cumulative IPC: 1.52719 (Simulation time: 1 hr 21 min 54 sec) 

Region of Interest Statistics
cpu0_DTLB TOTAL     ACCESS:    8589274  HIT:    8576939  MISS:      12335
cpu0_DTLB LOAD      ACCESS:    7153864  HIT:    7142600  MISS:      11264
cpu0_DTLB RFO       ACCESS:    1435410  HIT:    1434339  MISS:       1071
cpu0_DTLB PREFETCH  ACCESS:          0  HIT:          0  MISS:          0
cpu0_DTLB WRITEBACK ACCESS:          0  HIT:          0  MISS:          0
cpu0_ITLB TOTAL     ACCESS:    2941869  HIT:    2941864  MISS:          5
cpu0_ITLB LOAD      ACCESS:    2941869  HIT:    2941864  MISS:          5
cpu0_ITLB RFO       ACCESS:          0  HIT:          0  MISS:          0
cpu0_ITLB PREFETCH  ACCESS:          0  HIT:          0  MISS:          0
cpu0_ITLB WRITEBACK ACCESS:          0  HIT:          0  MISS:          0
cpu0_L1I TOTAL     ACCESS:    1471531  HIT:    1467640  MISS:       3891
cpu0_L1I LOAD      ACCESS:    1471531  HIT:    1467640  MISS:       3891
cpu0_L1I RFO       ACCESS:          0  HIT:          0  MISS:          0
cpu0_L1I PREFETCH  ACCESS:          0  HIT:          0  MISS:          0
cpu0_L1I WRITEBACK ACCESS:          0  HIT:          0  MISS:          0
cpu0_STLB TOTAL     ACCESS:      12340  HIT:      11981  MISS:        359
cpu0_STLB LOAD      ACCESS:      11269  HIT:      11003  MISS:        266
cpu0_STLB RFO       ACCESS:       1071  HIT:        978  MISS:         93
cpu0_STLB PREFETCH  ACCESS:          0  HIT:          0  MISS:          0
cpu0_STLB WRITEBACK ACCESS:          0  HIT:          0  MISS:          0
cpu0_L1D TOTAL     ACCESS:    9182754  HIT:    9069898  MISS:     112856
cpu0_L1D LOAD      ACCESS:    6425360  HIT:    6342143  MISS:      83217
cpu0_L1D RFO       ACCESS:    2757068  HIT:    2727515  MISS:      29553
cpu0_L1D PREFETCH  ACCESS:          0  HIT:          0  MISS:          0
cpu0_L1D WRITEBACK ACCESS:          0  HIT:          0  MISS:          0
cpu0_L2C TOTAL     ACCESS:     147068  HIT:      53397  MISS:      93671
cpu0_L2C LOAD      ACCESS:      87108  HIT:      22949  MISS:      64159
cpu0_L2C RFO       ACCESS:      29553  HIT:        684  MISS:      28869
cpu0_L2C PREFETCH  ACCESS:          0  HIT:          0  MISS:          0
cpu0_L2C WRITEBACK ACCESS:      30321  HIT:      29730  MISS:        591
LLC TOTAL     ACCESS:     122630  HIT:     118937  MISS:       3693
LLC LOAD      ACCESS:      64159  HIT:      61231  MISS:       2928
LLC RFO       ACCESS:      28869  HIT:      28105  MISS:        764
LLC PREFETCH  ACCESS:          0  HIT:          0  MISS:          0
LLC WRITEBACK ACCESS:      29550  HIT:      29549  MISS:          1
Heartbeat CPU 0 instructions: 92000002 cycles: 47254059 heartbeat IPC: 1.66215 cumulative IPC: 1.53312 (Simulation time: 1 hr 23 min 45 sec) 

Region of Interest Statistics
cpu0_DTLB TOTAL     ACCESS:    9041381  HIT:    9028882  MISS:      12499
cpu0_DTLB LOAD      ACCESS:    7553350  HIT:    7541983  MISS:      11367
cpu0_DTLB RFO       ACCESS:    1488031  HIT:    1486899  MISS:       1132
cpu0_DTLB PREFETCH  ACCESS:          0  HIT:          0  MISS:          0
cpu0_DTLB WRITEBACK ACCESS:          0  HIT:          0  MISS:          0
cpu0_ITLB TOTAL     ACCESS:    3033500  HIT:    3033495  MISS:          5
cpu0_ITLB LOAD      ACCESS:    3033500  HIT:    3033495  MISS:          5
cpu0_ITLB RFO       ACCESS:          0  HIT:          0  MISS:          0
cpu0_ITLB PREFETCH  ACCESS:          0  HIT:          0  MISS:          0
cpu0_ITLB WRITEBACK ACCESS:          0  HIT:          0  MISS:          0
cpu0_L1I TOTAL     ACCESS:    1577756  HIT:    1573865  MISS:       3891
cpu0_L1I LOAD      ACCESS:    1577756  HIT:    1573865  MISS:       3891
cpu0_L1I RFO       ACCESS:          0  HIT:          0  MISS:          0
cpu0_L1I PREFETCH  ACCESS:          0  HIT:          0  MISS:          0
cpu0_L1I WRITEBACK ACCESS:          0  HIT:          0  MISS:          0
cpu0_STLB TOTAL     ACCESS:      12504  HIT:      12123  MISS:        381
cpu0_STLB LOAD      ACCESS:      11372  HIT:      11099  MISS:        273
cpu0_STLB RFO       ACCESS:       1132  HIT:       1024  MISS:        108
cpu0_STLB PREFETCH  ACCESS:          0  HIT:          0  MISS:          0
cpu0_STLB WRITEBACK ACCESS:          0  HIT:          0  MISS:          0
cpu0_L1D TOTAL     ACCESS:    9634170  HIT:    9515280  MISS:     118890
cpu0_L1D LOAD      ACCESS:    6790168  HIT:    6703655  MISS:      86513
cpu0_L1D RFO       ACCESS:    2843656  HIT:    2811370  MISS:      32286
cpu0_L1D PREFETCH  ACCESS:          0  HIT:          0  MISS:          0
cpu0_L1D WRITEBACK ACCESS:          0  HIT:          0  MISS:          0
cpu0_L2C TOTAL     ACCESS:     155883  HIT:      58124  MISS:      97759
cpu0_L2C LOAD      ACCESS:      90404  HIT:      24904  MISS:      65500
cpu0_L2C RFO       ACCESS:      32286  HIT:        702  MISS:      31584
cpu0_L2C PREFETCH  ACCESS:          0  HIT:          0  MISS:          0
cpu0_L2C WRITEBACK ACCESS:      33102  HIT:      32480  MISS:        622
LLC TOTAL     ACCESS:     129500  HIT:     125714  MISS:       3786
LLC LOAD      ACCESS:      65500  HIT:      62498  MISS:       3002
LLC RFO       ACCESS:      31584  HIT:      30801  MISS:        783
LLC PREFETCH  ACCESS:          0  HIT:          0  MISS:          0
LLC WRITEBACK ACCESS:      32363  HIT:      32362  MISS:          1
Heartbeat CPU 0 instructions: 94000001 cycles: 48289823 heartbeat IPC: 1.93094 cumulative IPC: 1.54761 (Simulation time: 1 hr 25 min 20 sec) 

Region of Interest Statistics
cpu0_DTLB TOTAL     ACCESS:    9447955  HIT:    9435031  MISS:      12924
cpu0_DTLB LOAD      ACCESS:    7889222  HIT:    7877489  MISS:      11733
cpu0_DTLB RFO       ACCESS:    1558733  HIT:    1557542  MISS:       1191
cpu0_DTLB PREFETCH  ACCESS:          0  HIT:          0  MISS:          0
cpu0_DTLB WRITEBACK ACCESS:          0  HIT:          0  MISS:          0
cpu0_ITLB TOTAL     ACCESS:    3186682  HIT:    3186677  MISS:          5
cpu0_ITLB LOAD      ACCESS:    3186682  HIT:    3186677  MISS:          5
cpu0_ITLB RFO       ACCESS:          0  HIT:          0  MISS:          0
cpu0_ITLB PREFETCH  ACCESS:          0  HIT:          0  MISS:          0
cpu0_ITLB WRITEBACK ACCESS:          0  HIT:          0  MISS:          0
cpu0_L1I TOTAL     ACCESS:    1638324  HIT:    1634405  MISS:       3919
cpu0_L1I LOAD      ACCESS:    1638324  HIT:    1634405  MISS:       3919
cpu0_L1I RFO       ACCESS:          0  HIT:          0  MISS:          0
cpu0_L1I PREFETCH  ACCESS:          0  HIT:          0  MISS:          0
cpu0_L1I WRITEBACK ACCESS:          0  HIT:          0  MISS:          0
cpu0_STLB TOTAL     ACCESS:      12929  HIT:      12533  MISS:        396
cpu0_STLB LOAD      ACCESS:      11738  HIT:      11455  MISS:        283
cpu0_STLB RFO       ACCESS:       1191  HIT:       1078  MISS:        113
cpu0_STLB PREFETCH  ACCESS:          0  HIT:          0  MISS:          0
cpu0_STLB WRITEBACK ACCESS:          0  HIT:          0  MISS:          0
cpu0_L1D TOTAL     ACCESS:   10065437  HIT:    9939350  MISS:     126087
cpu0_L1D LOAD      ACCESS:    7084110  HIT:    6992772  MISS:      91338
cpu0_L1D RFO       ACCESS:    2980966  HIT:    2946314  MISS:      34652
cpu0_L1D PREFETCH  ACCESS:          0  HIT:          0  MISS:          0
cpu0_L1D WRITEBACK ACCESS:          0  HIT:          0  MISS:          0
cpu0_L2C TOTAL     ACCESS:     165999  HIT:      62773  MISS:     103226
cpu0_L2C LOAD      ACCESS:      95257  HIT:      26708  MISS:      68549
cpu0_L2C RFO       ACCESS:      34652  HIT:        712  MISS:      33940
cpu0_L2C PREFETCH  ACCESS:          0  HIT:          0  MISS:          0
cpu0_L2C WRITEBACK ACCESS:      35993  HIT:      35314  MISS:        679
LLC TOTAL     ACCESS:     138302  HIT:     134336  MISS:       3966
LLC LOAD      ACCESS:      68549  HIT:      65485  MISS:       3064
LLC RFO       ACCESS:      33940  HIT:      33039  MISS:        901
LLC PREFETCH  ACCESS:          0  HIT:          0  MISS:          0
LLC WRITEBACK ACCESS:      35755  HIT:      35754  MISS:          1
Heartbeat CPU 0 instructions: 96000002 cycles: 49134818 heartbeat IPC: 2.36688 cumulative IPC: 1.57126 (Simulation time: 1 hr 26 min 30 sec) 

Region of Interest Statistics
cpu0_DTLB TOTAL     ACCESS:    9796049  HIT:    9782160  MISS:      13889
cpu0_DTLB LOAD      ACCESS:    8142306  HIT:    8129659  MISS:      12647
cpu0_DTLB RFO       ACCESS:    1653743  HIT:    1652501  MISS:       1242
cpu0_DTLB PREFETCH  ACCESS:          0  HIT:          0  MISS:          0
cpu0_DTLB WRITEBACK ACCESS:          0  HIT:          0  MISS:          0
cpu0_ITLB TOTAL     ACCESS:    3419933  HIT:    3419928  MISS:          5
cpu0_ITLB LOAD      ACCESS:    3419933  HIT:    3419928  MISS:          5
cpu0_ITLB RFO       ACCESS:          0  HIT:          0  MISS:          0
cpu0_ITLB PREFETCH  ACCESS:          0  HIT:          0  MISS:          0
cpu0_ITLB WRITEBACK ACCESS:          0  HIT:          0  MISS:          0
cpu0_L1I TOTAL     ACCESS:    1643092  HIT:    1639137  MISS:       3955
cpu0_L1I LOAD      ACCESS:    1643092  HIT:    1639137  MISS:       3955
cpu0_L1I RFO       ACCESS:          0  HIT:          0  MISS:          0
cpu0_L1I PREFETCH  ACCESS:          0  HIT:          0  MISS:          0
cpu0_L1I WRITEBACK ACCESS:          0  HIT:          0  MISS:          0
cpu0_STLB TOTAL     ACCESS:      13894  HIT:      13495  MISS:        399
cpu0_STLB LOAD      ACCESS:      12652  HIT:      12366  MISS:        286
cpu0_STLB RFO       ACCESS:       1242  HIT:       1129  MISS:        113
cpu0_STLB PREFETCH  ACCESS:          0  HIT:          0  MISS:          0
cpu0_STLB WRITEBACK ACCESS:          0  HIT:          0  MISS:          0
cpu0_L1D TOTAL     ACCESS:   10493555  HIT:   10362497  MISS:     131058
cpu0_L1D LOAD      ACCESS:    7292220  HIT:    7196143  MISS:      96077
cpu0_L1D RFO       ACCESS:    3200971  HIT:    3166090  MISS:      34881
cpu0_L1D PREFETCH  ACCESS:          0  HIT:          0  MISS:          0
cpu0_L1D WRITEBACK ACCESS:          0  HIT:          0  MISS:          0
cpu0_L2C TOTAL     ACCESS:     171249  HIT:      63529  MISS:     107720
cpu0_L2C LOAD      ACCESS:     100032  HIT:      27202  MISS:      72830
cpu0_L2C RFO       ACCESS:      34881  HIT:        735  MISS:      34146
cpu0_L2C PREFETCH  ACCESS:          0  HIT:          0  MISS:          0
cpu0_L2C WRITEBACK ACCESS:      36236  HIT:      35551  MISS:        685
LLC TOTAL     ACCESS:     143188  HIT:     139196  MISS:       3992
LLC LOAD      ACCESS:      72830  HIT:      69741  MISS:       3089
LLC RFO       ACCESS:      34146  HIT:      33244  MISS:        902
LLC PREFETCH  ACCESS:          0  HIT:          0  MISS:          0
LLC WRITEBACK ACCESS:      36153  HIT:      36152  MISS:          1
Heartbeat CPU 0 instructions: 98000002 cycles: 50227864 heartbeat IPC: 1.82975 cumulative IPC: 1.58056 (Simulation time: 1 hr 27 min 39 sec) 

Region of Interest Statistics
cpu0_DTLB TOTAL     ACCESS:   10158085  HIT:   10143067  MISS:      15018
cpu0_DTLB LOAD      ACCESS:    8418625  HIT:    8404895  MISS:      13730
cpu0_DTLB RFO       ACCESS:    1739460  HIT:    1738172  MISS:       1288
cpu0_DTLB PREFETCH  ACCESS:          0  HIT:          0  MISS:          0
cpu0_DTLB WRITEBACK ACCESS:          0  HIT:          0  MISS:          0
cpu0_ITLB TOTAL     ACCESS:    3650301  HIT:    3650295  MISS:          6
cpu0_ITLB LOAD      ACCESS:    3650301  HIT:    3650295  MISS:          6
cpu0_ITLB RFO       ACCESS:          0  HIT:          0  MISS:          0
cpu0_ITLB PREFETCH  ACCESS:          0  HIT:          0  MISS:          0
cpu0_ITLB WRITEBACK ACCESS:          0  HIT:          0  MISS:          0
cpu0_L1I TOTAL     ACCESS:    1651720  HIT:    1647592  MISS:       4128
cpu0_L1I LOAD      ACCESS:    1651720  HIT:    1647592  MISS:       4128
cpu0_L1I RFO       ACCESS:          0  HIT:          0  MISS:          0
cpu0_L1I PREFETCH  ACCESS:          0  HIT:          0  MISS:          0
cpu0_L1I WRITEBACK ACCESS:          0  HIT:          0  MISS:          0
cpu0_STLB TOTAL     ACCESS:      15024  HIT:      14615  MISS:        409
cpu0_STLB LOAD      ACCESS:      13736  HIT:      13441  MISS:        295
cpu0_STLB RFO       ACCESS:       1288  HIT:       1174  MISS:        114
cpu0_STLB PREFETCH  ACCESS:          0  HIT:          0  MISS:          0
cpu0_STLB WRITEBACK ACCESS:          0  HIT:          0  MISS:          0
cpu0_L1D TOTAL     ACCESS:   10915561  HIT:   10778095  MISS:     137466
cpu0_L1D LOAD      ACCESS:    7517671  HIT:    7415511  MISS:     102160
cpu0_L1D RFO       ACCESS:    3397516  HIT:    3362318  MISS:      35198
cpu0_L1D PREFETCH  ACCESS:          0  HIT:          0  MISS:          0
cpu0_L1D WRITEBACK ACCESS:          0  HIT:          0  MISS:          0
cpu0_L2C TOTAL     ACCESS:     178195  HIT:      64614  MISS:     113581
cpu0_L2C LOAD      ACCESS:     106288  HIT:      27912  MISS:      78376
cpu0_L2C RFO       ACCESS:      35198  HIT:        756  MISS:      34442
cpu0_L2C PREFETCH  ACCESS:          0  HIT:          0  MISS:          0
cpu0_L2C WRITEBACK ACCESS:      36601  HIT:      35902  MISS:        699
LLC TOTAL     ACCESS:     149342  HIT:     145319  MISS:       4023
LLC LOAD      ACCESS:      78376  HIT:      75267  MISS:       3109
LLC RFO       ACCESS:      34442  HIT:      33529  MISS:        913
LLC PREFETCH  ACCESS:          0  HIT:          0  MISS:          0
LLC WRITEBACK ACCESS:      36460  HIT:      36459  MISS:          1
Heartbeat CPU 0 instructions: 100000004 cycles: 51962119 heartbeat IPC: 1.15323 cumulative IPC: 1.55748 (Simulation time: 1 hr 28 min 50 sec) 

Region of Interest Statistics
cpu0_DTLB TOTAL     ACCESS:   10548682  HIT:   10532520  MISS:      16162
cpu0_DTLB LOAD      ACCESS:    8745368  HIT:    8730543  MISS:      14825
cpu0_DTLB RFO       ACCESS:    1803314  HIT:    1801977  MISS:       1337
cpu0_DTLB PREFETCH  ACCESS:          0  HIT:          0  MISS:          0
cpu0_DTLB WRITEBACK ACCESS:          0  HIT:          0  MISS:          0
cpu0_ITLB TOTAL     ACCESS:    3874382  HIT:    3874376  MISS:          6
cpu0_ITLB LOAD      ACCESS:    3874382  HIT:    3874376  MISS:          6
cpu0_ITLB RFO       ACCESS:          0  HIT:          0  MISS:          0
cpu0_ITLB PREFETCH  ACCESS:          0  HIT:          0  MISS:          0
cpu0_ITLB WRITEBACK ACCESS:          0  HIT:          0  MISS:          0
cpu0_L1I TOTAL     ACCESS:    1667231  HIT:    1663092  MISS:       4139
cpu0_L1I LOAD      ACCESS:    1667231  HIT:    1663092  MISS:       4139
cpu0_L1I RFO       ACCESS:          0  HIT:          0  MISS:          0
cpu0_L1I PREFETCH  ACCESS:          0  HIT:          0  MISS:          0
cpu0_L1I WRITEBACK ACCESS:          0  HIT:          0  MISS:          0
cpu0_STLB TOTAL     ACCESS:      16168  HIT:      15754  MISS:        414
cpu0_STLB LOAD      ACCESS:      14831  HIT:      14531  MISS:        300
cpu0_STLB RFO       ACCESS:       1337  HIT:       1223  MISS:        114
cpu0_STLB PREFETCH  ACCESS:          0  HIT:          0  MISS:          0
cpu0_STLB WRITEBACK ACCESS:          0  HIT:          0  MISS:          0
cpu0_L1D TOTAL     ACCESS:   11335584  HIT:   11190542  MISS:     145042
cpu0_L1D LOAD      ACCESS:    7791441  HIT:    7682018  MISS:     109423
cpu0_L1D RFO       ACCESS:    3543764  HIT:    3508255  MISS:      35509
cpu0_L1D PREFETCH  ACCESS:          0  HIT:          0  MISS:          0
cpu0_L1D WRITEBACK ACCESS:          0  HIT:          0  MISS:          0
cpu0_L2C TOTAL     ACCESS:     186121  HIT:      65481  MISS:     120640
cpu0_L2C LOAD      ACCESS:     113562  HIT:      28410  MISS:      85152
cpu0_L2C RFO       ACCESS:      35509  HIT:        794  MISS:      34715
cpu0_L2C PREFETCH  ACCESS:          0  HIT:          0  MISS:          0
cpu0_L2C WRITEBACK ACCESS:      36940  HIT:      36233  MISS:        707
LLC TOTAL     ACCESS:     156700  HIT:     152659  MISS:       4041
LLC LOAD      ACCESS:      85152  HIT:      82027  MISS:       3125
LLC RFO       ACCESS:      34715  HIT:      33800  MISS:        915
LLC PREFETCH  ACCESS:          0  HIT:          0  MISS:          0
LLC WRITEBACK ACCESS:      36767  HIT:      36766  MISS:          1
Heartbeat CPU 0 instructions: 102000003 cycles: 53577698 heartbeat IPC: 1.23795 cumulative IPC: 1.54217 (Simulation time: 1 hr 30 min 2 sec) 

Region of Interest Statistics
cpu0_DTLB TOTAL     ACCESS:   10937153  HIT:   10919628  MISS:      17525
cpu0_DTLB LOAD      ACCESS:    9066855  HIT:    9050738  MISS:      16117
cpu0_DTLB RFO       ACCESS:    1870298  HIT:    1868890  MISS:       1408
cpu0_DTLB PREFETCH  ACCESS:          0  HIT:          0  MISS:          0
cpu0_DTLB WRITEBACK ACCESS:          0  HIT:          0  MISS:          0
cpu0_ITLB TOTAL     ACCESS:    4099351  HIT:    4099345  MISS:          6
cpu0_ITLB LOAD      ACCESS:    4099351  HIT:    4099345  MISS:          6
cpu0_ITLB RFO       ACCESS:          0  HIT:          0  MISS:          0
cpu0_ITLB PREFETCH  ACCESS:          0  HIT:          0  MISS:          0
cpu0_ITLB WRITEBACK ACCESS:          0  HIT:          0  MISS:          0
cpu0_L1I TOTAL     ACCESS:    1681825  HIT:    1677686  MISS:       4139
cpu0_L1I LOAD      ACCESS:    1681825  HIT:    1677686  MISS:       4139
cpu0_L1I RFO       ACCESS:          0  HIT:          0  MISS:          0
cpu0_L1I PREFETCH  ACCESS:          0  HIT:          0  MISS:          0
cpu0_L1I WRITEBACK ACCESS:          0  HIT:          0  MISS:          0
cpu0_STLB TOTAL     ACCESS:      17531  HIT:      17116  MISS:        415
cpu0_STLB LOAD      ACCESS:      16123  HIT:      15823  MISS:        300
cpu0_STLB RFO       ACCESS:       1408  HIT:       1293  MISS:        115
cpu0_STLB PREFETCH  ACCESS:          0  HIT:          0  MISS:          0
cpu0_STLB WRITEBACK ACCESS:          0  HIT:          0  MISS:          0
cpu0_L1D TOTAL     ACCESS:   11756799  HIT:   11604380  MISS:     152419
cpu0_L1D LOAD      ACCESS:    8060001  HIT:    7943535  MISS:     116466
cpu0_L1D RFO       ACCESS:    3696418  HIT:    3660576  MISS:      35842
cpu0_L1D PREFETCH  ACCESS:          0  HIT:          0  MISS:          0
cpu0_L1D WRITEBACK ACCESS:          0  HIT:          0  MISS:          0
cpu0_L2C TOTAL     ACCESS:     193883  HIT:      66707  MISS:     127176
cpu0_L2C LOAD      ACCESS:     120605  HIT:      29193  MISS:      91412
cpu0_L2C RFO       ACCESS:      35842  HIT:        859  MISS:      34983
cpu0_L2C PREFETCH  ACCESS:          0  HIT:          0  MISS:          0
cpu0_L2C WRITEBACK ACCESS:      37325  HIT:      36610  MISS:        715
LLC TOTAL     ACCESS:     163568  HIT:     159481  MISS:       4087
LLC LOAD      ACCESS:      91412  HIT:      88244  MISS:       3168
LLC RFO       ACCESS:      34983  HIT:      34065  MISS:        918
LLC PREFETCH  ACCESS:          0  HIT:          0  MISS:          0
LLC WRITEBACK ACCESS:      37107  HIT:      37106  MISS:          1
Heartbeat CPU 0 instructions: 104000001 cycles: 54882384 heartbeat IPC: 1.53293 cumulative IPC: 1.54182 (Simulation time: 1 hr 31 min 14 sec) 

Region of Interest Statistics
cpu0_DTLB TOTAL     ACCESS:   11309649  HIT:   11290893  MISS:      18756
cpu0_DTLB LOAD      ACCESS:    9367736  HIT:    9350432  MISS:      17304
cpu0_DTLB RFO       ACCESS:    1941913  HIT:    1940461  MISS:       1452
cpu0_DTLB PREFETCH  ACCESS:          0  HIT:          0  MISS:          0
cpu0_DTLB WRITEBACK ACCESS:          0  HIT:          0  MISS:          0
cpu0_ITLB TOTAL     ACCESS:    4323393  HIT:    4323387  MISS:          6
cpu0_ITLB LOAD      ACCESS:    4323393  HIT:    4323387  MISS:          6
cpu0_ITLB RFO       ACCESS:          0  HIT:          0  MISS:          0
cpu0_ITLB PREFETCH  ACCESS:          0  HIT:          0  MISS:          0
cpu0_ITLB WRITEBACK ACCESS:          0  HIT:          0  MISS:          0
cpu0_L1I TOTAL     ACCESS:    1696161  HIT:    1692022  MISS:       4139
cpu0_L1I LOAD      ACCESS:    1696161  HIT:    1692022  MISS:       4139
cpu0_L1I RFO       ACCESS:          0  HIT:          0  MISS:          0
cpu0_L1I PREFETCH  ACCESS:          0  HIT:          0  MISS:          0
cpu0_L1I WRITEBACK ACCESS:          0  HIT:          0  MISS:          0
cpu0_STLB TOTAL     ACCESS:      18762  HIT:      18337  MISS:        425
cpu0_STLB LOAD      ACCESS:      17310  HIT:      17001  MISS:        309
cpu0_STLB RFO       ACCESS:       1452  HIT:       1336  MISS:        116
cpu0_STLB PREFETCH  ACCESS:          0  HIT:          0  MISS:          0
cpu0_STLB WRITEBACK ACCESS:          0  HIT:          0  MISS:          0
cpu0_L1D TOTAL     ACCESS:   12159717  HIT:   11999894  MISS:     159823
cpu0_L1D LOAD      ACCESS:    8300412  HIT:    8176897  MISS:     123515
cpu0_L1D RFO       ACCESS:    3858915  HIT:    3822722  MISS:      36193
cpu0_L1D PREFETCH  ACCESS:          0  HIT:          0  MISS:          0
cpu0_L1D WRITEBACK ACCESS:          0  HIT:          0  MISS:          0
cpu0_L2C TOTAL     ACCESS:     201690  HIT:      67665  MISS:     134025
cpu0_L2C LOAD      ACCESS:     127654  HIT:      29729  MISS:      97925
cpu0_L2C RFO       ACCESS:      36193  HIT:        886  MISS:      35307
cpu0_L2C PREFETCH  ACCESS:          0  HIT:          0  MISS:          0
cpu0_L2C WRITEBACK ACCESS:      37728  HIT:      37003  MISS:        725
LLC TOTAL     ACCESS:     170768  HIT:     166640  MISS:       4128
LLC LOAD      ACCESS:      97925  HIT:      94725  MISS:       3200
LLC RFO       ACCESS:      35307  HIT:      34380  MISS:        927
LLC PREFETCH  ACCESS:          0  HIT:          0  MISS:          0
LLC WRITEBACK ACCESS:      37468  HIT:      37467  MISS:          1
Heartbeat CPU 0 instructions: 106000002 cycles: 56186999 heartbeat IPC: 1.53302 cumulative IPC: 1.54151 (Simulation time: 1 hr 32 min 25 sec) 

Region of Interest Statistics
cpu0_DTLB TOTAL     ACCESS:   11675068  HIT:   11655006  MISS:      20062
cpu0_DTLB LOAD      ACCESS:    9661362  HIT:    9642815  MISS:      18547
cpu0_DTLB RFO       ACCESS:    2013706  HIT:    2012191  MISS:       1515
cpu0_DTLB PREFETCH  ACCESS:          0  HIT:          0  MISS:          0
cpu0_DTLB WRITEBACK ACCESS:          0  HIT:          0  MISS:          0
cpu0_ITLB TOTAL     ACCESS:    4548761  HIT:    4548755  MISS:          6
cpu0_ITLB LOAD      ACCESS:    4548761  HIT:    4548755  MISS:          6
cpu0_ITLB RFO       ACCESS:          0  HIT:          0  MISS:          0
cpu0_ITLB PREFETCH  ACCESS:          0  HIT:          0  MISS:          0
cpu0_ITLB WRITEBACK ACCESS:          0  HIT:          0  MISS:          0
cpu0_L1I TOTAL     ACCESS:    1711404  HIT:    1707261  MISS:       4143
cpu0_L1I LOAD      ACCESS:    1711404  HIT:    1707261  MISS:       4143
cpu0_L1I RFO       ACCESS:          0  HIT:          0  MISS:          0
cpu0_L1I PREFETCH  ACCESS:          0  HIT:          0  MISS:          0
cpu0_L1I WRITEBACK ACCESS:          0  HIT:          0  MISS:          0
cpu0_STLB TOTAL     ACCESS:      20068  HIT:      19636  MISS:        432
cpu0_STLB LOAD      ACCESS:      18553  HIT:      18237  MISS:        316
cpu0_STLB RFO       ACCESS:       1515  HIT:       1399  MISS:        116
cpu0_STLB PREFETCH  ACCESS:          0  HIT:          0  MISS:          0
cpu0_STLB WRITEBACK ACCESS:          0  HIT:          0  MISS:          0
cpu0_L1D TOTAL     ACCESS:   12552333  HIT:   12384742  MISS:     167591
cpu0_L1D LOAD      ACCESS:    8528551  HIT:    8397626  MISS:     130925
cpu0_L1D RFO       ACCESS:    4023385  HIT:    3986838  MISS:      36547
cpu0_L1D PREFETCH  ACCESS:          0  HIT:          0  MISS:          0
cpu0_L1D WRITEBACK ACCESS:          0  HIT:          0  MISS:          0
cpu0_L2C TOTAL     ACCESS:     209760  HIT:      68508  MISS:     141252
cpu0_L2C LOAD      ACCESS:     135068  HIT:      30241  MISS:     104827
cpu0_L2C RFO       ACCESS:      36547  HIT:        928  MISS:      35619
cpu0_L2C PREFETCH  ACCESS:          0  HIT:          0  MISS:          0
cpu0_L2C WRITEBACK ACCESS:      38026  HIT:      37290  MISS:        736
[...]
cpu0_DTLB TOTAL     ACCESS:  326254851  HIT:  325605711  MISS:     649140
cpu0_DTLB LOAD      ACCESS:  270857102  HIT:  270322292  MISS:     534810
cpu0_DTLB RFO       ACCESS:   55397749  HIT:   55283419  MISS:     114330
cpu0_DTLB PREFETCH  ACCESS:          0  HIT:          0  MISS:          0
cpu0_DTLB WRITEBACK ACCESS:          0  HIT:          0  MISS:          0
cpu0_DTLB TRANSLATION ACCESS:          0  HIT:          0  MISS:          0
cpu0_DTLB PREFETCH  REQUESTED:          0  ISSUED:          0  USEFUL:          0  USELESS:          0
cpu0_DTLB AVERAGE MISS LATENCY: 9.5411 cycles
cpu0_ITLB TOTAL     ACCESS:  110087386  HIT:  110087072  MISS:        314
cpu0_ITLB LOAD      ACCESS:  110087386  HIT:  110087072  MISS:        314
cpu0_ITLB RFO       ACCESS:          0  HIT:          0  MISS:          0
cpu0_ITLB PREFETCH  ACCESS:          0  HIT:          0  MISS:          0
cpu0_ITLB WRITEBACK ACCESS:          0  HIT:          0  MISS:          0
cpu0_ITLB TRANSLATION ACCESS:          0  HIT:          0  MISS:          0
cpu0_ITLB PREFETCH  REQUESTED:          0  ISSUED:          0  USEFUL:          0  USELESS:          0
cpu0_ITLB AVERAGE MISS LATENCY: 51.6465 cycles
cpu0_L1I TOTAL     ACCESS:   69428241  HIT:   69333309  MISS:      94932
cpu0_L1I LOAD      ACCESS:   69428241  HIT:   69333309  MISS:      94932
cpu0_L1I RFO       ACCESS:          0  HIT:          0  MISS:          0
cpu0_L1I PREFETCH  ACCESS:          0  HIT:          0  MISS:          0
cpu0_L1I WRITEBACK ACCESS:          0  HIT:          0  MISS:          0
cpu0_L1I TRANSLATION ACCESS:          0  HIT:          0  MISS:          0
cpu0_L1I PREFETCH  REQUESTED:          0  ISSUED:          0  USEFUL:          0  USELESS:          0
cpu0_L1I AVERAGE MISS LATENCY: 27.2395 cycles
cpu0_STLB TOTAL     ACCESS:     649454  HIT:     643991  MISS:       5463
cpu0_STLB LOAD      ACCESS:     535124  HIT:     531732  MISS:       3392
cpu0_STLB RFO       ACCESS:     114330  HIT:     112259  MISS:       2071
cpu0_STLB PREFETCH  ACCESS:          0  HIT:          0  MISS:          0
cpu0_STLB WRITEBACK ACCESS:          0  HIT:          0  MISS:          0
cpu0_STLB TRANSLATION ACCESS:          0  HIT:          0  MISS:          0
cpu0_STLB PREFETCH  REQUESTED:          0  ISSUED:          0  USEFUL:          0  USELESS:          0
cpu0_STLB AVERAGE MISS LATENCY: 65.4384 cycles
cpu0_L1D TOTAL     ACCESS:  345313184  HIT:  341397635  MISS:    3915549
cpu0_L1D LOAD      ACCESS:  247233802  HIT:  244430672  MISS:    2803130
cpu0_L1D RFO       ACCESS:   98074270  HIT:   96963560  MISS:    1110710
cpu0_L1D PREFETCH  ACCESS:          0  HIT:          0  MISS:          0
cpu0_L1D WRITEBACK ACCESS:          0  HIT:          0  MISS:          0
cpu0_L1D TRANSLATION ACCESS:       5112  HIT:       3403  MISS:       1709
cpu0_L1D PREFETCH  REQUESTED:          0  ISSUED:          0  USEFUL:          0  USELESS:          0
cpu0_L1D AVERAGE MISS LATENCY: 34.405 cycles
cpu0_L2C TOTAL     ACCESS:    5154216  HIT:    1996674  MISS:    3157542
cpu0_L2C LOAD      ACCESS:    2898054  HIT:     818962  MISS:    2079092
cpu0_L2C RFO       ACCESS:    1110686  HIT:      54810  MISS:    1055876
cpu0_L2C PREFETCH  ACCESS:          0  HIT:          0  MISS:          0
cpu0_L2C WRITEBACK ACCESS:    1143767  HIT:    1122385  MISS:      21382
cpu0_L2C TRANSLATION ACCESS:       1709  HIT:        517  MISS:       1192
cpu0_L2C PREFETCH  REQUESTED:          0  ISSUED:          0  USEFUL:          0  USELESS:          0
cpu0_L2C AVERAGE MISS LATENCY: 29.4923 cycles
LLC TOTAL     ACCESS:    4222920  HIT:    4098009  MISS:     124911
LLC LOAD      ACCESS:    2079092  HIT:    2005740  MISS:      73352
LLC RFO       ACCESS:    1055866  HIT:    1004339  MISS:      51527
LLC PREFETCH  ACCESS:          0  HIT:          0  MISS:          0
LLC WRITEBACK ACCESS:    1086770  HIT:    1086740  MISS:         30
LLC TRANSLATION ACCESS:       1192  HIT:       1190  MISS:          2
LLC PREFETCH  REQUESTED:          0  ISSUED:          0  USEFUL:          0  USELESS:          0
LLC AVERAGE MISS LATENCY: 218.263 cycles
~~~~~~~~~~Reuse Distance Profiler output~~~~~~~~~~
0	55866544	19132064
1	33212544	22670608
2	30989424	23968688
3	25963152	21375648
4	20903136	17713440
5	15705312	12826752
6	12929360	10732656
7	10987456	9377296
8	10816784	9648400
9	7611632	6241552
10	6595152	5532944
11	6286304	5225104
12	6193008	5184624
13	5090640	4222944
14	3786736	2906800
15	3576528	2733552
16	3165616	2347488
17	3158192	2387152
18	3498336	2274432
19	2869408	2170816
20	2824192	1995648
21	2573760	1902560
22	2147520	1634048
23	1819392	1370384
24	1790128	1286080
25	1576576	1091968
26	1499296	984432
27	1361344	887376
28	1413872	1015904
29	1158176	846880
30	1091936	830896
31	1170944	873648
32	1077520	812464
33	1481088	1267776
34	960848	787888
35	860048	706640
36	781184	628464
37	732848	601712
38	677664	556128
39	664160	567360
40	692048	602688
41	676800	585600
42	679280	584448
43	706704	603984
44	692448	589584
45	665136	561440
46	768304	665072
47	667472	600128
48	651008	594176
49	634752	580912
50	628864	581328
51	668912	612064
52	609072	558304
53	563872	498400
54	509728	460944
55	406016	353408
56	361552	324240
57	321008	285120
58	323024	293184
59	288144	259200
60	285664	244752
61	269008	239632
62	253024	227632
63	259328	234144
64	457616	416688
66	509760	460432
68	501712	403568
70	393584	340160
72	386224	341824
74	419216	357440
76	547936	435312
78	449616	353968
80	530336	378368
82	478624	369760
84	428608	338304
86	426448	301616
88	401136	313696
90	422736	324832
92	361648	289296
94	367424	299408
96	430720	320848
98	349040	272272
100	468896	363408
102	471344	342352
104	466608	312288
106	451248	308256
108	448192	290528
110	464592	282064
112	365088	274672
114	382480	301840
116	382240	289120
118	429200	346368
120	514656	367808
122	443264	331952
124	428640	355280
126	452560	336768
128	915504	747280
132	1124080	935264
136	675216	547360
140	462320	371312
144	392480	312240
148	355248	284800
152	302064	266672
156	262080	229248
160	266912	227984
164	227344	195632
168	143872	123776
172	128704	112160
176	118736	108688
180	107600	98368
184	90784	83072
188	93680	75920
192	95840	74672
196	108608	100112
200	124592	99280
204	112432	88912
208	110672	95184
212	106272	99104
216	88224	83008
220	87552	79952
224	73168	66112
228	85184	68976
232	77520	66848
236	78544	64640
240	69200	62384
244	65024	60720
248	92368	82016
252	109312	92080
256	291376	275312
264	357392	345920
272	328848	318560
280	195664	188240
288	130160	122848
296	130224	119936
304	130256	120784
312	138976	130752
320	142784	136304
328	178192	163888
336	178288	160976
344	172528	159984
352	189248	174832
360	211840	199840
368	249056	228128
376	324096	273072
384	418256	316592
392	442272	330352
400	503120	370592
408	554160	388288
416	580256	403168
424	622528	429648
432	665728	441088
440	686240	437888
448	710320	431216
456	761408	432352
464	853104	434800
472	884512	412912
480	861600	363664
488	767056	305088
496	610992	235120
504	438688	175152
512	496640	273648
528	318464	254064
544	199664	163664
560	165200	137360
576	152560	116784
592	177520	141120
608	182880	148896
624	180000	149856
640	187024	152688
656	188208	150640
672	182192	144512
688	165296	131920
704	162688	131136
720	183360	147184
736	269664	218096
752	276528	232240
768	309584	262448
784	345712	293888
800	353760	301184
816	409504	331024
832	447216	326464
848	402016	299472
864	365440	293312
880	373120	315840
896	406032	357664
912	427536	403648
928	455152	444224
944	520624	511392
960	476112	469680
976	331264	324144
992	226560	219936
1008	157808	150688
1024	173968	158208
1056	108000	95184
1088	94176	82064
1120	71648	61312
1152	81456	70640
1184	116064	101936
1216	123392	110400
1248	104736	96496
1280	107024	97280
1312	110704	97296
1344	95088	80480
1376	71760	60016
1408	84192	70208
1440	59856	48336
1472	46528	36704
1504	50800	41440
1536	70768	59744
1568	79440	70032
1600	111184	101760
1632	152912	142368
1664	142304	132912
1696	89920	82368
1728	62144	55392
1760	80368	73312
1792	59424	53488
1824	46496	40000
1856	34128	28288
1888	38816	31888
1920	38384	32128
1952	40736	34288
1984	36080	29920
2016	30016	24432
2048	59680	48640
2112	53152	42832
2176	45184	33968
2240	48976	37152
2304	44592	36368
2368	55264	47696
2432	60368	51296
2496	54480	46384
2560	42336	37440
2624	36416	31792
2688	23136	19024
2752	20864	16640
2816	20576	16704
2880	19792	16272
2944	25632	21872
3008	28160	22736
3072	29200	24768
3136	31296	26592
3200	35072	30592
3264	37088	33344
3328	47584	43680
3392	48736	45856
3456	48336	43680
3520	85552	62144
3584	64896	50752
3648	100160	34096
3712	35744	32688
3776	33264	30960
3840	32336	29920
3904	33232	30912
3968	34048	31792
4032	31136	28704
4096	57568	52112
4224	52000	47232
4352	62880	58496
4480	77840	72560
4608	74048	68880
4736	69824	65168
4864	67728	64160
4992	70736	67104
5120	65920	61808
5248	59872	56032
5376	54240	50624
5504	61408	57856
5632	60752	57392
5760	58960	56192
5888	55072	52544
6016	52000	49152
6144	54320	51840
6272	50976	48928
6400	53040	50688
6528	50000	47872
6656	42096	39680
6784	39040	37344
6912	45168	42928
7040	40736	39120
7168	32912	31184
7296	28992	27488
7424	28096	26208
7552	32336	30848
7680	31040	29296
7808	28352	26704
7936	24464	23120
8064	20592	19536
8192	46304	43872
8448	39248	37456
8704	29664	27920
8960	33712	31168
9216	30976	28256
9472	25840	24160
9728	25664	23552
9984	30432	28048
10240	28960	26928
10496	57984	52624
10752	371040	219536
11008	134368	72208
11264	25104	21008
11520	24144	22656
11776	25408	23824
12032	22656	21488
12288	20976	19472
12544	19328	18000
12800	17680	16640
13056	16800	15936
13312	19328	18192
13568	17424	16192
13824	18640	17328
14080	17040	15792
14336	17584	16544
14592	16272	15104
14848	13504	12336
15104	13168	11872
15360	12752	11584
15616	14080	12608
15872	13616	12592
16128	12768	11936
16384	24544	22672
16896	21632	20048
17408	22080	20336
17920	23488	21776
18432	29280	26832
18944	25840	23808
19456	23424	21632
19968	19696	18432
20480	15536	14480
20992	14720	13952
21504	13136	11792
22016	13536	12560
22528	13792	13184
23040	10656	10176
23552	9504	9008
24064	8208	7648
24576	6656	5984
25088	6976	6288
25600	7536	6640
26112	4720	4192
26624	5232	4624
27136	6016	5360
27648	5888	5360
28160	5200	4288
28672	4288	3712
29184	5088	4528
29696	5296	4784
30208	5424	5072
30720	6096	5696
31232	6528	5840
31744	7200	6352
32256	6416	5392
32768	11968	10112
33792	12800	10832
34816	14448	12272
35840	11728	9920
36864	9856	8048
37888	10608	8848
38912	8752	7856
39936	8688	7616
40960	8448	6912
41984	11680	9728
43008	8400	7248
44032	8176	6784
45056	6160	4880
46080	6768	6176
47104	5504	4848
48128	5072	4544
49152	3344	3088
50176	2752	2528
51200	3248	2816
52224	3008	2640
53248	2272	2048
54272	2560	2384
55296	2480	2224
56320	2448	2288
57344	3040	2704
58368	2480	2304
59392	2672	2448
60416	2288	2160
61440	2512	2272
62464	1984	1872
63488	2240	2048
64512	2256	2080
65536	3776	3552
67584	4432	4160
69632	4240	3872
71680	4512	4096
73728	4192	3696
75776	4096	3744
77824	4608	4128
79872	4208	3888
81920	4880	4480
83968	4416	4016
86016	5872	5376
88064	6400	6000
90112	7344	7056
92160	8912	8272
94208	9104	8576
96256	8960	8432
98304	9744	8992
100352	9280	8256
102400	9296	8752
104448	10768	9904
106496	10176	9520
108544	11440	10704
110592	12992	12048
112640	13328	12224
114688	14576	13632
116736	13776	12864
118784	14928	13680
120832	14512	13584
122880	15328	14320
124928	15008	14144
126976	14832	13728
129024	14016	12912
131072	27984	26224
135168	24976	23440
139264	23776	22016
143360	20016	18752
147456	18544	17456
151552	17888	16672
155648	15936	15216
159744	16064	14848
163840	14704	13824
167936	12656	11872
172032	11232	10640
176128	12144	11584
180224	10928	10384
184320	11456	10960
188416	11504	11136
192512	10320	9984
196608	9136	8800
200704	9744	9296
204800	8832	8544
208896	8176	7744
212992	8256	7744
217088	6512	6144
221184	6736	6416
225280	5888	5344
229376	6960	6640
233472	6304	5792
237568	7504	6672
241664	5712	5392
245760	5984	5472
249856	6256	5792
253952	6496	5456
258048	6800	5904
262144	14144	12352
270336	12000	10864
278528	13680	11760
286720	13216	11696
294912	10912	10080
303104	13024	11536
311296	13680	11568
319488	12752	10432
327680	10320	9264
335872	8736	8320
344064	8528	7840
352256	8848	8352
360448	9744	9120
368640	10432	10192
376832	10512	10208
385024	8320	8064
393216	9008	8816
401408	9024	8896
409600	8448	8176
417792	8288	8144
425984	6768	6448
434176	6896	6720
442368	7280	6912
450560	7136	6848
458752	7008	6576
466944	6784	6352
475136	6816	6640
483328	7840	7568
491520	8912	8352
499712	10432	9408
507904	8688	8080
516096	8736	7584
524288	13712	12192
540672	19408	18032
557056	22112	21232
573440	18048	16992
589824	9072	8480
606208	4960	4352
622592	4480	4272
638976	4672	4400
655360	4240	3904
671744	4624	4096
688128	5824	5408
704512	5280	4768
720896	6592	5824
737280	5328	4800
753664	4448	4080
770048	7120	6736
786432	3872	3600
802816	2896	2768
819200	2208	2112
835584	2432	2096
851968	2112	1984
868352	1920	1904
884736	2432	2304
901120	1552	1328
917504	2240	2160
933888	1696	1504
950272	2688	2400
966656	1680	1552
983040	1648	1440
999424	2960	2768
1015808	3056	2848
1032192	1952	1728
1048576	4112	3632
1081344	4256	3936
1114112	4672	4352
1146880	5312	4832
1179648	5312	4720
1212416	4576	4304
1245184	5152	4496
1277952	5584	4960
1310720	6304	5872
1343488	6000	5360
1376256	4944	4624
1409024	6528	6048
1441792	6096	5728
1474560	5808	5184
1507328	5456	4624
1540096	6944	5840
1572864	6080	5104
1605632	5200	4080
1638400	6176	4512
1671168	6240	4912
1703936	5520	4784
1736704	5824	4816
1769472	6848	5600
1802240	6576	4720
1835008	6912	6000
1867776	7056	5952
1900544	6640	5456
1933312	5632	4512
1966080	6352	5088
1998848	7728	6608
2031616	5264	4144
2064384	6016	4736
2097152	13680	10000
2162688	12736	9120
2228224	16304	11328
2293760	15392	10912
2359296	13888	9472
2424832	17936	13120
2490368	15824	12288
2555904	16640	11104
2621440	17568	12160
2686976	16144	10608
2752512	16784	9424
2818048	18160	12032
2883584	17072	10784
2949120	20192	12880
3014656	18352	12256
3080192	20144	12320
3145728	16848	10544
3211264	21024	11760
3276800	16320	9232
3342336	20128	11392
3407872	21584	14448
3473408	20160	11152
3538944	21056	12544
3604480	20224	12032
3670016	20880	12432
3735552	20064	10656
3801088	19888	11232
3866624	21168	11472
3932160	24144	13856
3997696	21280	11408
4063232	20272	11536
4128768	23136	13344
4194304	42112	22656
4325376	43776	23264
4456448	44624	24160
4587520	42688	23312
4718592	46544	26720
4849664	43376	22256
4980736	44848	23552
5111808	42640	23328
5242880	44016	23312
5373952	40592	19584
5505024	43728	22512
5636096	41872	22736
5767168	40992	21056
5898240	39744	18640
6029312	38768	17936
6160384	38512	18016
6291456	36208	18192
6422528	36992	17072
6553600	36400	15168
6684672	32112	13360
6815744	31040	13776
6946816	31856	13600
7077888	30160	12464
7208960	28528	10528
7340032	26016	10288
7471104	23168	8544
7602176	22832	7920
7733248	21280	7296
7864320	17696	6048
7995392	17600	6176
8126464	14800	4096
8257536	13392	3568
8388608	29744	10272
8650752	28352	9248
8912896	28016	10320
9175040	25776	10480
9437184	21232	7232
9699328	18688	7216
9961472	13760	5248
10223616	15024	4768
10485760	6272	1696
10747904	4400	1920
11010048	6000	1680
11272192	3680	1200
11534336	2832	1040
11796480	2560	704
12058624	1888	416
12320768	1136	64
12582912	832	112
12845056	768	192
13107200	864	240
13369344	976	144
13631488	304	144
13893632	1040	272
14155776	1776	400
14417920	704	288
14680064	624	288
14942208	496	256
15204352	256	176
15466496	400	96
15728640	96	64
15990784	16	0
16252928	112	64
16515072	128	128
16777216	192	176
17301504	304	240
17825792	304	224
18350080	816	432
18874368	992	288
19398656	1920	272
19922944	1696	240
20447232	2000	112
20971520	2000	160
21495808	2080	16
22020096	2240	64
22544384	2016	32
23068672	2240	48
23592960	1792	0
24117248	1792	128
24641536	2000	64
25165824	1792	16
25690112	1808	16
26214400	1968	176
26738688	2000	240
27262976	976	144
27787264	608	80
28311552	1488	416
28835840	944	96
29360128	48	32
29884416	48	32
30408704	16	0
30932992	80	16
31457280	0	0
31981568	16	16
32505856	80	16
33030144	16	16
33554432	32	32
34603008	48	48
35651584	32	16
36700160	32	0
37748736	48	16
38797312	80	80
39845888	48	48
40894464	16	16
41943040	0	0
42991616	208	208
44040192	0	0
45088768	48	32
46137344	48	48
47185920	96	80
48234496	96	80
49283072	80	80
50331648	16	16
51380224	80	80
52428800	0	0
53477376	0	0
54525952	32	32
55574528	80	16
56623104	112	96
57671680	48	48
58720256	176	16
59768832	80	64
60817408	80	80
61865984	0	0
62914560	48	0
63963136	432	416
65011712	80	64
66060288	128	112
67108864	528	528
69206016	400	384
71303168	880	880
73400320	208	176
75497472	384	352
77594624	144	144
79691776	96	96
81788928	272	256
83886080	160	128
85983232	336	320
88080384	32	32
90177536	80	80
92274688	432	352
94371840	672	640
96468992	928	848
98566144	608	576
100663296	832	816
102760448	656	656
104857600	704	688
106954752	432	432
109051904	208	208
111149056	320	320
113246208	544	528
115343360	352	320
117440512	64	64
119537664	96	64
121634816	32	16
123731968	176	176
125829120	112	96
127926272	112	112
130023424	32	32
132120576	64	64
134217728	48	48
138412032	128	112
142606336	64	48
146800640	64	64
150994944	80	48
155189248	80	80
159383552	112	96
163577856	144	112
167772160	160	160
171966464	32	16
176160768	160	160
180355072	0	0
184549376	0	0
188743680	0	0
192937984	0	0
197132288	0	0
201326592	0	0
205520896	0	0
209715200	0	0
213909504	0	0
218103808	0	0
222298112	0	0
226492416	0	0
230686720	0	0
234881024	0	0
239075328	0	0
243269632	0	0
247463936	0	0
251658240	0	0
255852544	0	0
260046848	0	0
264241152	0	0
268435456	0	0
276824064	0	0
285212672	0	0
293601280	0	0
301989888	0	0
310378496	0	0
318767104	0	0
327155712	0	0
335544320	0	0
343932928	0	0
352321536	0	0
360710144	0	0
369098752	0	0
377487360	0	0
385875968	0	0
394264576	0	0
402653184	0	0
411041792	0	0
419430400	0	0
427819008	0	0
436207616	0	0
444596224	0	0
452984832	0	0
461373440	0	0
469762048	0	0
478150656	0	0
486539264	0	0
494927872	0	0
503316480	0	0
511705088	0	0
520093696	0	0
528482304	0	0
536870912	0	0
553648128	0	0
570425344	0	0
587202560	0	0
603979776	0	0
620756992	0	0
637534208	0	0
654311424	0	0
671088640	0	0
687865856	0	0
704643072	0	0
721420288	0	0
738197504	0	0
754974720	0	0
771751936	0	0
788529152	0	0
805306368	0	0
822083584	0	0
838860800	0	0
855638016	0	0
872415232	0	0
889192448	0	0
905969664	0	0
922746880	0	0
939524096	0	0
956301312	0	0
973078528	0	0
989855744	0	0
1006632960	0	0
1023410176	0	0
1040187392	0	0
1056964608	0	0
1073741824	0	0
1107296256	0	0
1140850688	0	0
1174405120	0	0
1207959552	0	0
1241513984	0	0
1275068416	0	0
1308622848	0	0
1342177280	0	0
1375731712	0	0
1409286144	0	0
1442840576	0	0
1476395008	0	0
1509949440	0	0
1543503872	0	0
1577058304	0	0
1610612736	0	0
1644167168	0	0
1677721600	0	0
1711276032	0	0
1744830464	0	0
1778384896	0	0
1811939328	0	0
1845493760	0	0
1879048192	0	0
1912602624	0	0
1946157056	0	0
1979711488	0	0
2013265920	0	0
2046820352	0	0
2080374784	0	0
2113929216	0	0
2147483648	0	0
2214592512	0	0
2281701376	0	0
2348810240	0	0
2415919104	0	0
2483027968	0	0
2550136832	0	0
2617245696	0	0
2684354560	0	0
2751463424	0	0
2818572288	0	0
2885681152	0	0
2952790016	0	0
3019898880	0	0
3087007744	0	0
3154116608	0	0
3221225472	0	0
3288334336	0	0
3355443200	0	0
3422552064	0	0
3489660928	0	0
3556769792	0	0
3623878656	0	0
3690987520	0	0
3758096384	0	0
3825205248	0	0
3892314112	0	0
3959422976	0	0
4026531840	0	0
4093640704	0	0
4160749568	0	0
4227858432	0	0
~~~~~~~~~~Reuse Distance Profiler output end~~~~~~~~~~

Sampler size:7495

DRAM Statistics
 CHANNEL 0
 RQ ROW_BUFFER_HIT:      21212  ROW_BUFFER_MISS:     103654
 DBUS AVG_CONGESTED_CYCLE:    3.91464
 WQ ROW_BUFFER_HIT:       5382  ROW_BUFFER_MISS:      47524  FULL:          0


CPU 0 Branch Prediction Accuracy: 92.7084% MPKI: 7.58058 Average ROB Occupancy at Mispredict: 121.685
Branch type MPKI
BRANCH_DIRECT_JUMP: 0.000139333
BRANCH_INDIRECT: 0.00102933
BRANCH_CONDITIONAL: 7.45793
BRANCH_DIRECT_CALL: 0.119748
BRANCH_INDIRECT_CALL: 0.000113333
BRANCH_RETURN: 0.001614

