
*** ChampSim Multicore Out-of-Order Simulator ***

Warmup Instructions: 50000000
Simulation Instructions: 1500000000
Number of CPUs: 1
Off-chip DRAM Size: 4 GiB Channels: 1 Width: 64-bit Data Rate: 3200 MT/s

VirtualMemory physical capacity: 8588881920 num_ppages: 2096895
VirtualMemory page size: 4096 log2_page_size: 12

CPU 0 runs /s/traces/champsim_traces/465.tonto-1914B.champsimtrace.xz
CPU 0 Bimodal branch predictor
Basic BTB sets: 1024 ways: 8 indirect buffer size: 4096 RAS size: 64
Initializing LRU.
Initializing LRU.
Initializing LRU.
Initializing LRU.
Initializing rdLRU.
Initializing LRU.
Initializing LRU.
Heartbeat CPU 0 instructions: 2000001 cycles: 540783 heartbeat IPC: 3.69834 cumulative IPC: 3.69834 (Simulation time: 0 hr 1 min 15 sec) 
Heartbeat CPU 0 instructions: 4000002 cycles: 1138248 heartbeat IPC: 3.34748 cumulative IPC: 3.51417 (Simulation time: 0 hr 2 min 29 sec) 
Heartbeat CPU 0 instructions: 6000003 cycles: 1728490 heartbeat IPC: 3.38844 cumulative IPC: 3.47124 (Simulation time: 0 hr 3 min 43 sec) 
Heartbeat CPU 0 instructions: 8000002 cycles: 2330543 heartbeat IPC: 3.32196 cumulative IPC: 3.43268 (Simulation time: 0 hr 5 min 1 sec) 
Heartbeat CPU 0 instructions: 10000002 cycles: 2961913 heartbeat IPC: 3.16771 cumulative IPC: 3.3762 (Simulation time: 0 hr 6 min 21 sec) 
Heartbeat CPU 0 instructions: 12000000 cycles: 3582792 heartbeat IPC: 3.22124 cumulative IPC: 3.34934 (Simulation time: 0 hr 7 min 41 sec) 
Heartbeat CPU 0 instructions: 14000003 cycles: 4215581 heartbeat IPC: 3.16062 cumulative IPC: 3.32101 (Simulation time: 0 hr 9 min 1 sec) 
Heartbeat CPU 0 instructions: 16000004 cycles: 4840157 heartbeat IPC: 3.20217 cumulative IPC: 3.30568 (Simulation time: 0 hr 10 min 21 sec) 
Heartbeat CPU 0 instructions: 18000004 cycles: 5486207 heartbeat IPC: 3.09574 cumulative IPC: 3.28096 (Simulation time: 0 hr 11 min 43 sec) 
Heartbeat CPU 0 instructions: 20000002 cycles: 6123896 heartbeat IPC: 3.13632 cumulative IPC: 3.2659 (Simulation time: 0 hr 13 min 5 sec) 
Heartbeat CPU 0 instructions: 22000003 cycles: 6693630 heartbeat IPC: 3.51041 cumulative IPC: 3.28671 (Simulation time: 0 hr 14 min 16 sec) 
Heartbeat CPU 0 instructions: 24000002 cycles: 7194514 heartbeat IPC: 3.99294 cumulative IPC: 3.33588 (Simulation time: 0 hr 15 min 17 sec) 
Heartbeat CPU 0 instructions: 26000000 cycles: 7754396 heartbeat IPC: 3.57218 cumulative IPC: 3.35294 (Simulation time: 0 hr 16 min 29 sec) 
Heartbeat CPU 0 instructions: 28000002 cycles: 8255080 heartbeat IPC: 3.99454 cumulative IPC: 3.39185 (Simulation time: 0 hr 17 min 31 sec) 
Heartbeat CPU 0 instructions: 30000003 cycles: 8815504 heartbeat IPC: 3.56873 cumulative IPC: 3.4031 (Simulation time: 0 hr 18 min 42 sec) 
Heartbeat CPU 0 instructions: 32000003 cycles: 9315834 heartbeat IPC: 3.99736 cumulative IPC: 3.43501 (Simulation time: 0 hr 19 min 43 sec) 
Heartbeat CPU 0 instructions: 34000003 cycles: 9827141 heartbeat IPC: 3.91154 cumulative IPC: 3.45981 (Simulation time: 0 hr 20 min 47 sec) 
Heartbeat CPU 0 instructions: 36000003 cycles: 10376573 heartbeat IPC: 3.64012 cumulative IPC: 3.46935 (Simulation time: 0 hr 21 min 48 sec) 
Heartbeat CPU 0 instructions: 38000000 cycles: 10877441 heartbeat IPC: 3.99306 cumulative IPC: 3.49347 (Simulation time: 0 hr 23 min 5 sec) 
Heartbeat CPU 0 instructions: 40000000 cycles: 11437677 heartbeat IPC: 3.56992 cumulative IPC: 3.49721 (Simulation time: 0 hr 24 min 16 sec) 
Heartbeat CPU 0 instructions: 42000001 cycles: 11938535 heartbeat IPC: 3.99315 cumulative IPC: 3.51802 (Simulation time: 0 hr 25 min 4 sec) 
Heartbeat CPU 0 instructions: 44000003 cycles: 12478507 heartbeat IPC: 3.7039 cumulative IPC: 3.52606 (Simulation time: 0 hr 26 min 12 sec) 
Heartbeat CPU 0 instructions: 46000003 cycles: 13029680 heartbeat IPC: 3.62862 cumulative IPC: 3.5304 (Simulation time: 0 hr 27 min 24 sec) 
Heartbeat CPU 0 instructions: 48000001 cycles: 13627059 heartbeat IPC: 3.34795 cumulative IPC: 3.5224 (Simulation time: 0 hr 28 min 39 sec) 
Heartbeat CPU 0 instructions: 50000000 cycles: 14228476 heartbeat IPC: 3.32548 cumulative IPC: 3.51408 (Simulation time: 0 hr 29 min 55 sec) 

Warmup complete CPU 0 instructions: 50000004 cycles: 14228477 (Simulation time: 0 hr 29 min 55 sec) 

Heartbeat CPU 0 instructions: 52000003 cycles: 15575242 heartbeat IPC: 1.48504 cumulative IPC: 1.48504 (Simulation time: 0 hr 31 min 41 sec) 

Region of Interest Statistics
cpu0_DTLB TOTAL     ACCESS:     441860  HIT:     441298  MISS:        562
cpu0_DTLB LOAD      ACCESS:     347390  HIT:     346951  MISS:        439
cpu0_DTLB RFO       ACCESS:      94470  HIT:      94347  MISS:        123
cpu0_DTLB PREFETCH  ACCESS:          0  HIT:          0  MISS:          0
cpu0_DTLB WRITEBACK ACCESS:          0  HIT:          0  MISS:          0
cpu0_ITLB TOTAL     ACCESS:     107155  HIT:     107077  MISS:         78
cpu0_ITLB LOAD      ACCESS:     107155  HIT:     107077  MISS:         78
cpu0_ITLB RFO       ACCESS:          0  HIT:          0  MISS:          0
cpu0_ITLB PREFETCH  ACCESS:          0  HIT:          0  MISS:          0
cpu0_ITLB WRITEBACK ACCESS:          0  HIT:          0  MISS:          0
cpu0_L1I TOTAL     ACCESS:      68739  HIT:      65529  MISS:       3210
cpu0_L1I LOAD      ACCESS:      68739  HIT:      65529  MISS:       3210
cpu0_L1I RFO       ACCESS:          0  HIT:          0  MISS:          0
cpu0_L1I PREFETCH  ACCESS:          0  HIT:          0  MISS:          0
cpu0_L1I WRITEBACK ACCESS:          0  HIT:          0  MISS:          0
cpu0_STLB TOTAL     ACCESS:        640  HIT:        637  MISS:          3
cpu0_STLB LOAD      ACCESS:        517  HIT:        514  MISS:          3
cpu0_STLB RFO       ACCESS:        123  HIT:        123  MISS:          0
cpu0_STLB PREFETCH  ACCESS:          0  HIT:          0  MISS:          0
cpu0_STLB WRITEBACK ACCESS:          0  HIT:          0  MISS:          0
cpu0_L1D TOTAL     ACCESS:     506341  HIT:     492719  MISS:      13622
cpu0_L1D LOAD      ACCESS:     346897  HIT:     340959  MISS:       5938
cpu0_L1D RFO       ACCESS:     159441  HIT:     151759  MISS:       7682
cpu0_L1D PREFETCH  ACCESS:          0  HIT:          0  MISS:          0
cpu0_L1D WRITEBACK ACCESS:          0  HIT:          0  MISS:          0
cpu0_L2C TOTAL     ACCESS:      25228  HIT:      17685  MISS:       7543
cpu0_L2C LOAD      ACCESS:       9147  HIT:       6001  MISS:       3146
cpu0_L2C RFO       ACCESS:       7682  HIT:       3841  MISS:       3841
cpu0_L2C PREFETCH  ACCESS:          0  HIT:          0  MISS:          0
cpu0_L2C WRITEBACK ACCESS:       8397  HIT:       7843  MISS:        554
LLC TOTAL     ACCESS:      11131  HIT:      11086  MISS:         45
LLC LOAD      ACCESS:       3146  HIT:       3101  MISS:         45
LLC RFO       ACCESS:       3841  HIT:       3841  MISS:          0
LLC PREFETCH  ACCESS:          0  HIT:          0  MISS:          0
LLC WRITEBACK ACCESS:       4142  HIT:       4142  MISS:          0
Heartbeat CPU 0 instructions: 54000000 cycles: 16960694 heartbeat IPC: 1.44357 cumulative IPC: 1.46401 (Simulation time: 0 hr 33 min 17 sec) 

Region of Interest Statistics
cpu0_DTLB TOTAL     ACCESS:     883084  HIT:     881886  MISS:       1198
cpu0_DTLB LOAD      ACCESS:     690971  HIT:     689955  MISS:       1016
cpu0_DTLB RFO       ACCESS:     192113  HIT:     191931  MISS:        182
cpu0_DTLB PREFETCH  ACCESS:          0  HIT:          0  MISS:          0
cpu0_DTLB WRITEBACK ACCESS:          0  HIT:          0  MISS:          0
cpu0_ITLB TOTAL     ACCESS:     239034  HIT:     238826  MISS:        208
cpu0_ITLB LOAD      ACCESS:     239034  HIT:     238826  MISS:        208
cpu0_ITLB RFO       ACCESS:          0  HIT:          0  MISS:          0
cpu0_ITLB PREFETCH  ACCESS:          0  HIT:          0  MISS:          0
cpu0_ITLB WRITEBACK ACCESS:          0  HIT:          0  MISS:          0
cpu0_L1I TOTAL     ACCESS:     140623  HIT:     132313  MISS:       8310
cpu0_L1I LOAD      ACCESS:     140623  HIT:     132313  MISS:       8310
cpu0_L1I RFO       ACCESS:          0  HIT:          0  MISS:          0
cpu0_L1I PREFETCH  ACCESS:          0  HIT:          0  MISS:          0
cpu0_L1I WRITEBACK ACCESS:          0  HIT:          0  MISS:          0
cpu0_STLB TOTAL     ACCESS:       1406  HIT:       1398  MISS:          8
cpu0_STLB LOAD      ACCESS:       1224  HIT:       1216  MISS:          8
cpu0_STLB RFO       ACCESS:        182  HIT:        182  MISS:          0
cpu0_STLB PREFETCH  ACCESS:          0  HIT:          0  MISS:          0
cpu0_STLB WRITEBACK ACCESS:          0  HIT:          0  MISS:          0
cpu0_L1D TOTAL     ACCESS:    1040789  HIT:    1019529  MISS:      21260
cpu0_L1D LOAD      ACCESS:     703478  HIT:     694792  MISS:       8686
cpu0_L1D RFO       ACCESS:     337303  HIT:     324733  MISS:      12570
cpu0_L1D PREFETCH  ACCESS:          0  HIT:          0  MISS:          0
cpu0_L1D WRITEBACK ACCESS:          0  HIT:          0  MISS:          0
cpu0_L2C TOTAL     ACCESS:      43462  HIT:      30947  MISS:      12515
cpu0_L2C LOAD      ACCESS:      16995  HIT:      10748  MISS:       6247
cpu0_L2C RFO       ACCESS:      12570  HIT:       7424  MISS:       5146
cpu0_L2C PREFETCH  ACCESS:          0  HIT:          0  MISS:          0
cpu0_L2C WRITEBACK ACCESS:      13893  HIT:      12775  MISS:       1118
LLC TOTAL     ACCESS:      17720  HIT:      17491  MISS:        229
LLC LOAD      ACCESS:       6247  HIT:       6018  MISS:        229
LLC RFO       ACCESS:       5146  HIT:       5146  MISS:          0
LLC PREFETCH  ACCESS:          0  HIT:          0  MISS:          0
LLC WRITEBACK ACCESS:       6323  HIT:       6323  MISS:          0
Heartbeat CPU 0 instructions: 56000002 cycles: 18331083 heartbeat IPC: 1.45944 cumulative IPC: 1.46248 (Simulation time: 0 hr 34 min 50 sec) 

Region of Interest Statistics
cpu0_DTLB TOTAL     ACCESS:    1323052  HIT:    1321032  MISS:       2020
cpu0_DTLB LOAD      ACCESS:    1038053  HIT:    1036281  MISS:       1772
cpu0_DTLB RFO       ACCESS:     284999  HIT:     284751  MISS:        248
cpu0_DTLB PREFETCH  ACCESS:          0  HIT:          0  MISS:          0
cpu0_DTLB WRITEBACK ACCESS:          0  HIT:          0  MISS:          0
cpu0_ITLB TOTAL     ACCESS:     382039  HIT:     381710  MISS:        329
cpu0_ITLB LOAD      ACCESS:     382039  HIT:     381710  MISS:        329
cpu0_ITLB RFO       ACCESS:          0  HIT:          0  MISS:          0
cpu0_ITLB PREFETCH  ACCESS:          0  HIT:          0  MISS:          0
cpu0_ITLB WRITEBACK ACCESS:          0  HIT:          0  MISS:          0
cpu0_L1I TOTAL     ACCESS:     203176  HIT:     189813  MISS:      13363
cpu0_L1I LOAD      ACCESS:     203176  HIT:     189813  MISS:      13363
cpu0_L1I RFO       ACCESS:          0  HIT:          0  MISS:          0
cpu0_L1I PREFETCH  ACCESS:          0  HIT:          0  MISS:          0
cpu0_L1I WRITEBACK ACCESS:          0  HIT:          0  MISS:          0
cpu0_STLB TOTAL     ACCESS:       2349  HIT:       2341  MISS:          8
cpu0_STLB LOAD      ACCESS:       2101  HIT:       2093  MISS:          8
cpu0_STLB RFO       ACCESS:        248  HIT:        248  MISS:          0
cpu0_STLB PREFETCH  ACCESS:          0  HIT:          0  MISS:          0
cpu0_STLB WRITEBACK ACCESS:          0  HIT:          0  MISS:          0
cpu0_L1D TOTAL     ACCESS:    1572967  HIT:    1543014  MISS:      29953
cpu0_L1D LOAD      ACCESS:    1065602  HIT:    1053867  MISS:      11735
cpu0_L1D RFO       ACCESS:     507357  HIT:     489143  MISS:      18214
cpu0_L1D PREFETCH  ACCESS:          0  HIT:          0  MISS:          0
cpu0_L1D WRITEBACK ACCESS:          0  HIT:          0  MISS:          0
cpu0_L2C TOTAL     ACCESS:      63533  HIT:      46014  MISS:      17519
cpu0_L2C LOAD      ACCESS:      25097  HIT:      15829  MISS:       9268
cpu0_L2C RFO       ACCESS:      18214  HIT:      11745  MISS:       6469
cpu0_L2C PREFETCH  ACCESS:          0  HIT:          0  MISS:          0
cpu0_L2C WRITEBACK ACCESS:      20218  HIT:      18440  MISS:       1778
LLC TOTAL     ACCESS:      24107  HIT:      23717  MISS:        390
LLC LOAD      ACCESS:       9268  HIT:       8878  MISS:        390
LLC RFO       ACCESS:       6469  HIT:       6469  MISS:          0
LLC PREFETCH  ACCESS:          0  HIT:          0  MISS:          0
LLC WRITEBACK ACCESS:       8366  HIT:       8366  MISS:          0
Heartbeat CPU 0 instructions: 58000000 cycles: 19441830 heartbeat IPC: 1.80059 cumulative IPC: 1.53452 (Simulation time: 0 hr 36 min 15 sec) 

Region of Interest Statistics
cpu0_DTLB TOTAL     ACCESS:    1764678  HIT:    1762137  MISS:       2541
cpu0_DTLB LOAD      ACCESS:    1396417  HIT:    1394234  MISS:       2183
cpu0_DTLB RFO       ACCESS:     368261  HIT:     367903  MISS:        358
cpu0_DTLB PREFETCH  ACCESS:          0  HIT:          0  MISS:          0
cpu0_DTLB WRITEBACK ACCESS:          0  HIT:          0  MISS:          0
cpu0_ITLB TOTAL     ACCESS:     527931  HIT:     527505  MISS:        426
cpu0_ITLB LOAD      ACCESS:     527931  HIT:     527505  MISS:        426
cpu0_ITLB RFO       ACCESS:          0  HIT:          0  MISS:          0
cpu0_ITLB PREFETCH  ACCESS:          0  HIT:          0  MISS:          0
cpu0_ITLB WRITEBACK ACCESS:          0  HIT:          0  MISS:          0
cpu0_L1I TOTAL     ACCESS:     255245  HIT:     239003  MISS:      16242
cpu0_L1I LOAD      ACCESS:     255245  HIT:     239003  MISS:      16242
cpu0_L1I RFO       ACCESS:          0  HIT:          0  MISS:          0
cpu0_L1I PREFETCH  ACCESS:          0  HIT:          0  MISS:          0
cpu0_L1I WRITEBACK ACCESS:          0  HIT:          0  MISS:          0
cpu0_STLB TOTAL     ACCESS:       2967  HIT:       2953  MISS:         14
cpu0_STLB LOAD      ACCESS:       2609  HIT:       2595  MISS:         14
cpu0_STLB RFO       ACCESS:        358  HIT:        358  MISS:          0
cpu0_STLB PREFETCH  ACCESS:          0  HIT:          0  MISS:          0
cpu0_STLB WRITEBACK ACCESS:          0  HIT:          0  MISS:          0
cpu0_L1D TOTAL     ACCESS:    2077701  HIT:    2028777  MISS:      48924
cpu0_L1D LOAD      ACCESS:    1438240  HIT:    1417508  MISS:      20732
cpu0_L1D RFO       ACCESS:     639447  HIT:     611261  MISS:      28186
cpu0_L1D PREFETCH  ACCESS:          0  HIT:          0  MISS:          0
cpu0_L1D WRITEBACK ACCESS:          0  HIT:          0  MISS:          0
cpu0_L2C TOTAL     ACCESS:      96135  HIT:      69089  MISS:      27046
cpu0_L2C LOAD      ACCESS:      36973  HIT:      24478  MISS:      12495
cpu0_L2C RFO       ACCESS:      28186  HIT:      15884  MISS:      12302
cpu0_L2C PREFETCH  ACCESS:          0  HIT:          0  MISS:          0
cpu0_L2C WRITEBACK ACCESS:      30970  HIT:      28727  MISS:       2243
LLC TOTAL     ACCESS:      39263  HIT:      38784  MISS:        479
LLC LOAD      ACCESS:      12495  HIT:      12016  MISS:        479
LLC RFO       ACCESS:      12302  HIT:      12302  MISS:          0
LLC PREFETCH  ACCESS:          0  HIT:          0  MISS:          0
LLC WRITEBACK ACCESS:      14460  HIT:      14460  MISS:          0
Heartbeat CPU 0 instructions: 60000002 cycles: 20579577 heartbeat IPC: 1.75786 cumulative IPC: 1.57453 (Simulation time: 0 hr 37 min 45 sec) 

Region of Interest Statistics
cpu0_DTLB TOTAL     ACCESS:    2205644  HIT:    2202510  MISS:       3134
cpu0_DTLB LOAD      ACCESS:    1754893  HIT:    1752218  MISS:       2675
cpu0_DTLB RFO       ACCESS:     450751  HIT:     450292  MISS:        459
cpu0_DTLB PREFETCH  ACCESS:          0  HIT:          0  MISS:          0
cpu0_DTLB WRITEBACK ACCESS:          0  HIT:          0  MISS:          0
cpu0_ITLB TOTAL     ACCESS:     674749  HIT:     674226  MISS:        523
cpu0_ITLB LOAD      ACCESS:     674749  HIT:     674226  MISS:        523
cpu0_ITLB RFO       ACCESS:          0  HIT:          0  MISS:          0
cpu0_ITLB PREFETCH  ACCESS:          0  HIT:          0  MISS:          0
cpu0_ITLB WRITEBACK ACCESS:          0  HIT:          0  MISS:          0
cpu0_L1I TOTAL     ACCESS:     306561  HIT:     287263  MISS:      19298
cpu0_L1I LOAD      ACCESS:     306561  HIT:     287263  MISS:      19298
cpu0_L1I RFO       ACCESS:          0  HIT:          0  MISS:          0
cpu0_L1I PREFETCH  ACCESS:          0  HIT:          0  MISS:          0
cpu0_L1I WRITEBACK ACCESS:          0  HIT:          0  MISS:          0
cpu0_STLB TOTAL     ACCESS:       3657  HIT:       3642  MISS:         15
cpu0_STLB LOAD      ACCESS:       3198  HIT:       3183  MISS:         15
cpu0_STLB RFO       ACCESS:        459  HIT:        459  MISS:          0
cpu0_STLB PREFETCH  ACCESS:          0  HIT:          0  MISS:          0
cpu0_STLB WRITEBACK ACCESS:          0  HIT:          0  MISS:          0
cpu0_L1D TOTAL     ACCESS:    2582418  HIT:    2513550  MISS:      68868
cpu0_L1D LOAD      ACCESS:    1812382  HIT:    1781669  MISS:      30713
cpu0_L1D RFO       ACCESS:     770021  HIT:     731873  MISS:      38148
cpu0_L1D PREFETCH  ACCESS:          0  HIT:          0  MISS:          0
cpu0_L1D WRITEBACK ACCESS:          0  HIT:          0  MISS:          0
cpu0_L2C TOTAL     ACCESS:     130230  HIT:      93219  MISS:      37011
cpu0_L2C LOAD      ACCESS:      50010  HIT:      33929  MISS:      16081
cpu0_L2C RFO       ACCESS:      38148  HIT:      19910  MISS:      18238
cpu0_L2C PREFETCH  ACCESS:          0  HIT:          0  MISS:          0
cpu0_L2C WRITEBACK ACCESS:      42065  HIT:      39380  MISS:       2685
LLC TOTAL     ACCESS:      55398  HIT:      54761  MISS:        637
LLC LOAD      ACCESS:      16081  HIT:      15444  MISS:        637
LLC RFO       ACCESS:      18238  HIT:      18238  MISS:          0
LLC PREFETCH  ACCESS:          0  HIT:          0  MISS:          0
LLC WRITEBACK ACCESS:      21072  HIT:      21072  MISS:          0
Heartbeat CPU 0 instructions: 62000002 cycles: 21765812 heartbeat IPC: 1.68601 cumulative IPC: 1.59207 (Simulation time: 0 hr 39 min 19 sec) 

Region of Interest Statistics
cpu0_DTLB TOTAL     ACCESS:    2649080  HIT:    2645334  MISS:       3746
cpu0_DTLB LOAD      ACCESS:    2116061  HIT:    2112881  MISS:       3180
cpu0_DTLB RFO       ACCESS:     533019  HIT:     532453  MISS:        566
cpu0_DTLB PREFETCH  ACCESS:          0  HIT:          0  MISS:          0
cpu0_DTLB WRITEBACK ACCESS:          0  HIT:          0  MISS:          0
cpu0_ITLB TOTAL     ACCESS:     818557  HIT:     817911  MISS:        646
cpu0_ITLB LOAD      ACCESS:     818557  HIT:     817911  MISS:        646
cpu0_ITLB RFO       ACCESS:          0  HIT:          0  MISS:          0
cpu0_ITLB PREFETCH  ACCESS:          0  HIT:          0  MISS:          0
cpu0_ITLB WRITEBACK ACCESS:          0  HIT:          0  MISS:          0
cpu0_L1I TOTAL     ACCESS:     357901  HIT:     335155  MISS:      22746
cpu0_L1I LOAD      ACCESS:     357901  HIT:     335155  MISS:      22746
cpu0_L1I RFO       ACCESS:          0  HIT:          0  MISS:          0
cpu0_L1I PREFETCH  ACCESS:          0  HIT:          0  MISS:          0
cpu0_L1I WRITEBACK ACCESS:          0  HIT:          0  MISS:          0
cpu0_STLB TOTAL     ACCESS:       4392  HIT:       4370  MISS:         22
cpu0_STLB LOAD      ACCESS:       3826  HIT:       3804  MISS:         22
cpu0_STLB RFO       ACCESS:        566  HIT:        566  MISS:          0
cpu0_STLB PREFETCH  ACCESS:          0  HIT:          0  MISS:          0
cpu0_STLB WRITEBACK ACCESS:          0  HIT:          0  MISS:          0
cpu0_L1D TOTAL     ACCESS:    3083569  HIT:    2995817  MISS:      87752
cpu0_L1D LOAD      ACCESS:    2180738  HIT:    2140779  MISS:      39959
cpu0_L1D RFO       ACCESS:     902809  HIT:     855025  MISS:      47784
cpu0_L1D PREFETCH  ACCESS:          0  HIT:          0  MISS:          0
cpu0_L1D WRITEBACK ACCESS:          0  HIT:          0  MISS:          0
cpu0_L2C TOTAL     ACCESS:     163041  HIT:     116946  MISS:      46095
cpu0_L2C LOAD      ACCESS:      62704  HIT:      43258  MISS:      19446
cpu0_L2C RFO       ACCESS:      47784  HIT:      24196  MISS:      23588
cpu0_L2C PREFETCH  ACCESS:          0  HIT:          0  MISS:          0
cpu0_L2C WRITEBACK ACCESS:      52544  HIT:      49492  MISS:       3052
LLC TOTAL     ACCESS:      70199  HIT:      69472  MISS:        727
LLC LOAD      ACCESS:      19446  HIT:      18719  MISS:        727
LLC RFO       ACCESS:      23586  HIT:      23586  MISS:          0
LLC PREFETCH  ACCESS:          0  HIT:          0  MISS:          0
LLC WRITEBACK ACCESS:      27158  HIT:      27158  MISS:          0
Heartbeat CPU 0 instructions: 64000002 cycles: 22870810 heartbeat IPC: 1.80996 cumulative IPC: 1.61993 (Simulation time: 0 hr 40 min 47 sec) 

Region of Interest Statistics
cpu0_DTLB TOTAL     ACCESS:    3086198  HIT:    3081899  MISS:       4299
cpu0_DTLB LOAD      ACCESS:    2473873  HIT:    2470246  MISS:       3627
cpu0_DTLB RFO       ACCESS:     612325  HIT:     611653  MISS:        672
cpu0_DTLB PREFETCH  ACCESS:          0  HIT:          0  MISS:          0
cpu0_DTLB WRITEBACK ACCESS:          0  HIT:          0  MISS:          0
cpu0_ITLB TOTAL     ACCESS:     970808  HIT:     970080  MISS:        728
cpu0_ITLB LOAD      ACCESS:     970808  HIT:     970080  MISS:        728
cpu0_ITLB RFO       ACCESS:          0  HIT:          0  MISS:          0
cpu0_ITLB PREFETCH  ACCESS:          0  HIT:          0  MISS:          0
cpu0_ITLB WRITEBACK ACCESS:          0  HIT:          0  MISS:          0
cpu0_L1I TOTAL     ACCESS:     403363  HIT:     377778  MISS:      25585
cpu0_L1I LOAD      ACCESS:     403363  HIT:     377778  MISS:      25585
cpu0_L1I RFO       ACCESS:          0  HIT:          0  MISS:          0
cpu0_L1I PREFETCH  ACCESS:          0  HIT:          0  MISS:          0
cpu0_L1I WRITEBACK ACCESS:          0  HIT:          0  MISS:          0
cpu0_STLB TOTAL     ACCESS:       5027  HIT:       5005  MISS:         22
cpu0_STLB LOAD      ACCESS:       4355  HIT:       4333  MISS:         22
cpu0_STLB RFO       ACCESS:        672  HIT:        672  MISS:          0
cpu0_STLB PREFETCH  ACCESS:          0  HIT:          0  MISS:          0
cpu0_STLB WRITEBACK ACCESS:          0  HIT:          0  MISS:          0
cpu0_L1D TOTAL     ACCESS:    3580218  HIT:    3472492  MISS:     107726
cpu0_L1D LOAD      ACCESS:    2552174  HIT:    2502570  MISS:      49604
cpu0_L1D RFO       ACCESS:    1028022  HIT:     969909  MISS:      58113
cpu0_L1D PREFETCH  ACCESS:          0  HIT:          0  MISS:          0
cpu0_L1D WRITEBACK ACCESS:          0  HIT:          0  MISS:          0
cpu0_L2C TOTAL     ACCESS:     197260  HIT:     141559  MISS:      55701
cpu0_L2C LOAD      ACCESS:      75188  HIT:      52542  MISS:      22646
cpu0_L2C RFO       ACCESS:      58113  HIT:      28564  MISS:      29549
cpu0_L2C PREFETCH  ACCESS:          0  HIT:          0  MISS:          0
cpu0_L2C WRITEBACK ACCESS:      63950  HIT:      60453  MISS:       3497
LLC TOTAL     ACCESS:      85851  HIT:      85071  MISS:        780
LLC LOAD      ACCESS:      22646  HIT:      21866  MISS:        780
LLC RFO       ACCESS:      29547  HIT:      29547  MISS:          0
LLC PREFETCH  ACCESS:          0  HIT:          0  MISS:          0
LLC WRITEBACK ACCESS:      33649  HIT:      33649  MISS:          0
Heartbeat CPU 0 instructions: 66000000 cycles: 23987914 heartbeat IPC: 1.79034 cumulative IPC: 1.63944 (Simulation time: 0 hr 42 min 9 sec) 

Region of Interest Statistics
cpu0_DTLB TOTAL     ACCESS:    3530167  HIT:    3525258  MISS:       4909
cpu0_DTLB LOAD      ACCESS:    2836622  HIT:    2832495  MISS:       4127
cpu0_DTLB RFO       ACCESS:     693545  HIT:     692763  MISS:        782
cpu0_DTLB PREFETCH  ACCESS:          0  HIT:          0  MISS:          0
cpu0_DTLB WRITEBACK ACCESS:          0  HIT:          0  MISS:          0
cpu0_ITLB TOTAL     ACCESS:    1121436  HIT:    1120610  MISS:        826
cpu0_ITLB LOAD      ACCESS:    1121436  HIT:    1120610  MISS:        826
cpu0_ITLB RFO       ACCESS:          0  HIT:          0  MISS:          0
cpu0_ITLB PREFETCH  ACCESS:          0  HIT:          0  MISS:          0
cpu0_ITLB WRITEBACK ACCESS:          0  HIT:          0  MISS:          0
cpu0_L1I TOTAL     ACCESS:     451073  HIT:     422474  MISS:      28599
cpu0_L1I LOAD      ACCESS:     451073  HIT:     422474  MISS:      28599
cpu0_L1I RFO       ACCESS:          0  HIT:          0  MISS:          0
cpu0_L1I PREFETCH  ACCESS:          0  HIT:          0  MISS:          0
cpu0_L1I WRITEBACK ACCESS:          0  HIT:          0  MISS:          0
cpu0_STLB TOTAL     ACCESS:       5735  HIT:       5713  MISS:         22
cpu0_STLB LOAD      ACCESS:       4953  HIT:       4931  MISS:         22
cpu0_STLB RFO       ACCESS:        782  HIT:        782  MISS:          0
cpu0_STLB PREFETCH  ACCESS:          0  HIT:          0  MISS:          0
cpu0_STLB WRITEBACK ACCESS:          0  HIT:          0  MISS:          0
cpu0_L1D TOTAL     ACCESS:    4085325  HIT:    3958604  MISS:     126721
cpu0_L1D LOAD      ACCESS:    2928133  HIT:    2869511  MISS:      58622
cpu0_L1D RFO       ACCESS:    1157170  HIT:    1089080  MISS:      68090
cpu0_L1D PREFETCH  ACCESS:          0  HIT:          0  MISS:          0
cpu0_L1D WRITEBACK ACCESS:          0  HIT:          0  MISS:          0
cpu0_L2C TOTAL     ACCESS:     229829  HIT:     164263  MISS:      65566
cpu0_L2C LOAD      ACCESS:      87220  HIT:      61072  MISS:      26148
cpu0_L2C RFO       ACCESS:      68090  HIT:      32696  MISS:      35394
cpu0_L2C PREFETCH  ACCESS:          0  HIT:          0  MISS:          0
cpu0_L2C WRITEBACK ACCESS:      74510  HIT:      70495  MISS:       4015
LLC TOTAL     ACCESS:     101793  HIT:     100890  MISS:        903
LLC LOAD      ACCESS:      26148  HIT:      25245  MISS:        903
LLC RFO       ACCESS:      35392  HIT:      35392  MISS:          0
LLC PREFETCH  ACCESS:          0  HIT:          0  MISS:          0
LLC WRITEBACK ACCESS:      40244  HIT:      40244  MISS:          0
Heartbeat CPU 0 instructions: 68000002 cycles: 25326580 heartbeat IPC: 1.49403 cumulative IPC: 1.6219 (Simulation time: 0 hr 43 min 50 sec) 

Region of Interest Statistics
cpu0_DTLB TOTAL     ACCESS:    3982133  HIT:    3976642  MISS:       5491
cpu0_DTLB LOAD      ACCESS:    3211031  HIT:    3206498  MISS:       4533
cpu0_DTLB RFO       ACCESS:     771102  HIT:     770144  MISS:        958
cpu0_DTLB PREFETCH  ACCESS:          0  HIT:          0  MISS:          0
cpu0_DTLB WRITEBACK ACCESS:          0  HIT:          0  MISS:          0
cpu0_ITLB TOTAL     ACCESS:    1250531  HIT:    1249628  MISS:        903
cpu0_ITLB LOAD      ACCESS:    1250531  HIT:    1249628  MISS:        903
cpu0_ITLB RFO       ACCESS:          0  HIT:          0  MISS:          0
cpu0_ITLB PREFETCH  ACCESS:          0  HIT:          0  MISS:          0
cpu0_ITLB WRITEBACK ACCESS:          0  HIT:          0  MISS:          0
cpu0_L1I TOTAL     ACCESS:     492716  HIT:     461699  MISS:      31017
cpu0_L1I LOAD      ACCESS:     492716  HIT:     461699  MISS:      31017
cpu0_L1I RFO       ACCESS:          0  HIT:          0  MISS:          0
cpu0_L1I PREFETCH  ACCESS:          0  HIT:          0  MISS:          0
cpu0_L1I WRITEBACK ACCESS:          0  HIT:          0  MISS:          0
cpu0_STLB TOTAL     ACCESS:       6394  HIT:       6361  MISS:         33
cpu0_STLB LOAD      ACCESS:       5436  HIT:       5403  MISS:         33
cpu0_STLB RFO       ACCESS:        958  HIT:        958  MISS:          0
cpu0_STLB PREFETCH  ACCESS:          0  HIT:          0  MISS:          0
cpu0_STLB WRITEBACK ACCESS:          0  HIT:          0  MISS:          0
cpu0_L1D TOTAL     ACCESS:    4564088  HIT:    4415634  MISS:     148454
cpu0_L1D LOAD      ACCESS:    3298008  HIT:    3228958  MISS:      69050
cpu0_L1D RFO       ACCESS:    1266047  HIT:    1186654  MISS:      79393
cpu0_L1D PREFETCH  ACCESS:          0  HIT:          0  MISS:          0
cpu0_L1D WRITEBACK ACCESS:          0  HIT:          0  MISS:          0
cpu0_L2C TOTAL     ACCESS:     266047  HIT:     182619  MISS:      83428
cpu0_L2C LOAD      ACCESS:     100066  HIT:      65888  MISS:      34178
cpu0_L2C RFO       ACCESS:      79393  HIT:      34790  MISS:      44603
cpu0_L2C PREFETCH  ACCESS:          0  HIT:          0  MISS:          0
cpu0_L2C WRITEBACK ACCESS:      86577  HIT:      81941  MISS:       4636
LLC TOTAL     ACCESS:     128660  HIT:     127660  MISS:       1000
LLC LOAD      ACCESS:      34178  HIT:      33178  MISS:       1000
LLC RFO       ACCESS:      44601  HIT:      44601  MISS:          0
LLC PREFETCH  ACCESS:          0  HIT:          0  MISS:          0
LLC WRITEBACK ACCESS:      49870  HIT:      49870  MISS:          0
Heartbeat CPU 0 instructions: 70000002 cycles: 26455086 heartbeat IPC: 1.77225 cumulative IPC: 1.63578 (Simulation time: 0 hr 45 min 20 sec) 

Region of Interest Statistics
cpu0_DTLB TOTAL     ACCESS:    4428246  HIT:    4422293  MISS:       5953
cpu0_DTLB LOAD      ACCESS:    3575330  HIT:    3570502  MISS:       4828
cpu0_DTLB RFO       ACCESS:     852916  HIT:     851791  MISS:       1125
cpu0_DTLB PREFETCH  ACCESS:          0  HIT:          0  MISS:          0
cpu0_DTLB WRITEBACK ACCESS:          0  HIT:          0  MISS:          0
cpu0_ITLB TOTAL     ACCESS:    1386933  HIT:    1385995  MISS:        938
cpu0_ITLB LOAD      ACCESS:    1386933  HIT:    1385995  MISS:        938
cpu0_ITLB RFO       ACCESS:          0  HIT:          0  MISS:          0
cpu0_ITLB PREFETCH  ACCESS:          0  HIT:          0  MISS:          0
cpu0_ITLB WRITEBACK ACCESS:          0  HIT:          0  MISS:          0
cpu0_L1I TOTAL     ACCESS:     532517  HIT:     499894  MISS:      32623
cpu0_L1I LOAD      ACCESS:     532517  HIT:     499894  MISS:      32623
cpu0_L1I RFO       ACCESS:          0  HIT:          0  MISS:          0
cpu0_L1I PREFETCH  ACCESS:          0  HIT:          0  MISS:          0
cpu0_L1I WRITEBACK ACCESS:          0  HIT:          0  MISS:          0
cpu0_STLB TOTAL     ACCESS:       6891  HIT:       6858  MISS:         33
cpu0_STLB LOAD      ACCESS:       5766  HIT:       5733  MISS:         33
cpu0_STLB RFO       ACCESS:       1125  HIT:       1125  MISS:          0
cpu0_STLB PREFETCH  ACCESS:          0  HIT:          0  MISS:          0
cpu0_STLB WRITEBACK ACCESS:          0  HIT:          0  MISS:          0
cpu0_L1D TOTAL     ACCESS:    5046009  HIT:    4875876  MISS:     170133
cpu0_L1D LOAD      ACCESS:    3665858  HIT:    3586409  MISS:      79449
cpu0_L1D RFO       ACCESS:    1380118  HIT:    1289445  MISS:      90673
cpu0_L1D PREFETCH  ACCESS:          0  HIT:          0  MISS:          0
cpu0_L1D WRITEBACK ACCESS:          0  HIT:          0  MISS:          0
cpu0_L2C TOTAL     ACCESS:     301591  HIT:     200638  MISS:     100953
cpu0_L2C LOAD      ACCESS:     112071  HIT:      70868  MISS:      41203
cpu0_L2C RFO       ACCESS:      90673  HIT:      36262  MISS:      54411
cpu0_L2C PREFETCH  ACCESS:          0  HIT:          0  MISS:          0
cpu0_L2C WRITEBACK ACCESS:      98836  HIT:      93508  MISS:       5328
LLC TOTAL     ACCESS:     155981  HIT:     154924  MISS:       1057
LLC LOAD      ACCESS:      41202  HIT:      40145  MISS:       1057
LLC RFO       ACCESS:      54409  HIT:      54409  MISS:          0
LLC PREFETCH  ACCESS:          0  HIT:          0  MISS:          0
LLC WRITEBACK ACCESS:      60359  HIT:      60359  MISS:          0
Heartbeat CPU 0 instructions: 72000002 cycles: 27657251 heartbeat IPC: 1.66367 cumulative IPC: 1.63827 (Simulation time: 0 hr 46 min 51 sec) 

Region of Interest Statistics
cpu0_DTLB TOTAL     ACCESS:    4867231  HIT:    4860688  MISS:       6543
cpu0_DTLB LOAD      ACCESS:    3941910  HIT:    3936627  MISS:       5283
cpu0_DTLB RFO       ACCESS:     925321  HIT:     924061  MISS:       1260
cpu0_DTLB PREFETCH  ACCESS:          0  HIT:          0  MISS:          0
cpu0_DTLB WRITEBACK ACCESS:          0  HIT:          0  MISS:          0
cpu0_ITLB TOTAL     ACCESS:    1546416  HIT:    1545406  MISS:       1010
cpu0_ITLB LOAD      ACCESS:    1546416  HIT:    1545406  MISS:       1010
cpu0_ITLB RFO       ACCESS:          0  HIT:          0  MISS:          0
cpu0_ITLB PREFETCH  ACCESS:          0  HIT:          0  MISS:          0
cpu0_ITLB WRITEBACK ACCESS:          0  HIT:          0  MISS:          0
cpu0_L1I TOTAL     ACCESS:     563293  HIT:     528169  MISS:      35124
cpu0_L1I LOAD      ACCESS:     563293  HIT:     528169  MISS:      35124
cpu0_L1I RFO       ACCESS:          0  HIT:          0  MISS:          0
cpu0_L1I PREFETCH  ACCESS:          0  HIT:          0  MISS:          0
cpu0_L1I WRITEBACK ACCESS:          0  HIT:          0  MISS:          0
cpu0_STLB TOTAL     ACCESS:       7553  HIT:       7520  MISS:         33
cpu0_STLB LOAD      ACCESS:       6293  HIT:       6260  MISS:         33
cpu0_STLB RFO       ACCESS:       1260  HIT:       1260  MISS:          0
cpu0_STLB PREFETCH  ACCESS:          0  HIT:          0  MISS:          0
cpu0_STLB WRITEBACK ACCESS:          0  HIT:          0  MISS:          0
cpu0_L1D TOTAL     ACCESS:    5526875  HIT:    5336591  MISS:     190284
cpu0_L1D LOAD      ACCESS:    4040600  HIT:    3951648  MISS:      88952
cpu0_L1D RFO       ACCESS:    1486242  HIT:    1384921  MISS:     101321
cpu0_L1D PREFETCH  ACCESS:          0  HIT:          0  MISS:          0
cpu0_L1D WRITEBACK ACCESS:          0  HIT:          0  MISS:          0
cpu0_L2C TOTAL     ACCESS:     335359  HIT:     218815  MISS:     116544
cpu0_L2C LOAD      ACCESS:     124075  HIT:      76601  MISS:      47474
cpu0_L2C RFO       ACCESS:     101321  HIT:      38366  MISS:      62955
cpu0_L2C PREFETCH  ACCESS:          0  HIT:          0  MISS:          0
cpu0_L2C WRITEBACK ACCESS:     109952  HIT:     103848  MISS:       6104
LLC TOTAL     ACCESS:     179732  HIT:     178613  MISS:       1119
LLC LOAD      ACCESS:      47473  HIT:      46354  MISS:       1119
LLC RFO       ACCESS:      62953  HIT:      62953  MISS:          0
LLC PREFETCH  ACCESS:          0  HIT:          0  MISS:          0
LLC WRITEBACK ACCESS:      69295  HIT:      69295  MISS:          0
Heartbeat CPU 0 instructions: 74000001 cycles: 28991185 heartbeat IPC: 1.49932 cumulative IPC: 1.62572 (Simulation time: 0 hr 48 min 30 sec) 

Region of Interest Statistics
cpu0_DTLB TOTAL     ACCESS:    5315587  HIT:    5308457  MISS:       7130
cpu0_DTLB LOAD      ACCESS:    4308127  HIT:    4302438  MISS:       5689
cpu0_DTLB RFO       ACCESS:    1007460  HIT:    1006019  MISS:       1441
cpu0_DTLB PREFETCH  ACCESS:          0  HIT:          0  MISS:          0
cpu0_DTLB WRITEBACK ACCESS:          0  HIT:          0  MISS:          0
cpu0_ITLB TOTAL     ACCESS:    1677108  HIT:    1676028  MISS:       1080
cpu0_ITLB LOAD      ACCESS:    1677108  HIT:    1676028  MISS:       1080
cpu0_ITLB RFO       ACCESS:          0  HIT:          0  MISS:          0
cpu0_ITLB PREFETCH  ACCESS:          0  HIT:          0  MISS:          0
cpu0_ITLB WRITEBACK ACCESS:          0  HIT:          0  MISS:          0
cpu0_L1I TOTAL     ACCESS:     608858  HIT:     571760  MISS:      37098
cpu0_L1I LOAD      ACCESS:     608858  HIT:     571760  MISS:      37098
cpu0_L1I RFO       ACCESS:          0  HIT:          0  MISS:          0
cpu0_L1I PREFETCH  ACCESS:          0  HIT:          0  MISS:          0
cpu0_L1I WRITEBACK ACCESS:          0  HIT:          0  MISS:          0
cpu0_STLB TOTAL     ACCESS:       8210  HIT:       8177  MISS:         33
cpu0_STLB LOAD      ACCESS:       6769  HIT:       6736  MISS:         33
cpu0_STLB RFO       ACCESS:       1441  HIT:       1441  MISS:          0
cpu0_STLB PREFETCH  ACCESS:          0  HIT:          0  MISS:          0
cpu0_STLB WRITEBACK ACCESS:          0  HIT:          0  MISS:          0
cpu0_L1D TOTAL     ACCESS:    6013530  HIT:    5801489  MISS:     212041
cpu0_L1D LOAD      ACCESS:    4409730  HIT:    4309157  MISS:     100573
cpu0_L1D RFO       ACCESS:    1603767  HIT:    1492310  MISS:     111457
cpu0_L1D PREFETCH  ACCESS:          0  HIT:          0  MISS:          0
cpu0_L1D WRITEBACK ACCESS:          0  HIT:          0  MISS:          0
cpu0_L2C TOTAL     ACCESS:     370013  HIT:     234221  MISS:     135792
cpu0_L2C LOAD      ACCESS:     137670  HIT:      80337  MISS:      57333
cpu0_L2C RFO       ACCESS:     111457  HIT:      39610  MISS:      71847
cpu0_L2C PREFETCH  ACCESS:          0  HIT:          0  MISS:          0
cpu0_L2C WRITEBACK ACCESS:     120875  HIT:     114274  MISS:       6601
LLC TOTAL     ACCESS:     208673  HIT:     207502  MISS:       1171
LLC LOAD      ACCESS:      57331  HIT:      56160  MISS:       1171
LLC RFO       ACCESS:      71845  HIT:      71845  MISS:          0
LLC PREFETCH  ACCESS:          0  HIT:          0  MISS:          0
LLC WRITEBACK ACCESS:      79486  HIT:      79486  MISS:          0
Heartbeat CPU 0 instructions: 76000000 cycles: 30072237 heartbeat IPC: 1.85005 cumulative IPC: 1.64102 (Simulation time: 0 hr 49 min 42 sec) 

Region of Interest Statistics
cpu0_DTLB TOTAL     ACCESS:    5741268  HIT:    5733750  MISS:       7518
cpu0_DTLB LOAD      ACCESS:    4646499  HIT:    4640523  MISS:       5976
cpu0_DTLB RFO       ACCESS:    1094769  HIT:    1093227  MISS:       1542
cpu0_DTLB PREFETCH  ACCESS:          0  HIT:          0  MISS:          0
cpu0_DTLB WRITEBACK ACCESS:          0  HIT:          0  MISS:          0
cpu0_ITLB TOTAL     ACCESS:    1848059  HIT:    1846936  MISS:       1123
cpu0_ITLB LOAD      ACCESS:    1848059  HIT:    1846936  MISS:       1123
cpu0_ITLB RFO       ACCESS:          0  HIT:          0  MISS:          0
cpu0_ITLB PREFETCH  ACCESS:          0  HIT:          0  MISS:          0
cpu0_ITLB WRITEBACK ACCESS:          0  HIT:          0  MISS:          0
cpu0_L1I TOTAL     ACCESS:     648015  HIT:     609447  MISS:      38568
cpu0_L1I LOAD      ACCESS:     648015  HIT:     609447  MISS:      38568
cpu0_L1I RFO       ACCESS:          0  HIT:          0  MISS:          0
cpu0_L1I PREFETCH  ACCESS:          0  HIT:          0  MISS:          0
cpu0_L1I WRITEBACK ACCESS:          0  HIT:          0  MISS:          0
cpu0_STLB TOTAL     ACCESS:       8641  HIT:       8603  MISS:         38
cpu0_STLB LOAD      ACCESS:       7099  HIT:       7061  MISS:         38
cpu0_STLB RFO       ACCESS:       1542  HIT:       1542  MISS:          0
cpu0_STLB PREFETCH  ACCESS:          0  HIT:          0  MISS:          0
cpu0_STLB WRITEBACK ACCESS:          0  HIT:          0  MISS:          0
cpu0_L1D TOTAL     ACCESS:    6518606  HIT:    6291004  MISS:     227602
cpu0_L1D LOAD      ACCESS:    4771267  HIT:    4663533  MISS:     107734
cpu0_L1D RFO       ACCESS:    1747301  HIT:    1627446  MISS:     119855
cpu0_L1D PREFETCH  ACCESS:          0  HIT:          0  MISS:          0
cpu0_L1D WRITEBACK ACCESS:          0  HIT:          0  MISS:          0
cpu0_L2C TOTAL     ACCESS:     396077  HIT:     248261  MISS:     147816
cpu0_L2C LOAD      ACCESS:     146301  HIT:      84480  MISS:      61821
cpu0_L2C RFO       ACCESS:     119855  HIT:      41223  MISS:      78632
cpu0_L2C PREFETCH  ACCESS:          0  HIT:          0  MISS:          0
cpu0_L2C WRITEBACK ACCESS:     129908  HIT:     122558  MISS:       7350
LLC TOTAL     ACCESS:     227251  HIT:     225975  MISS:       1276
LLC LOAD      ACCESS:      61819  HIT:      60543  MISS:       1276
LLC RFO       ACCESS:      78630  HIT:      78630  MISS:          0
LLC PREFETCH  ACCESS:          0  HIT:          0  MISS:          0
LLC WRITEBACK ACCESS:      86789  HIT:      86789  MISS:          0
Heartbeat CPU 0 instructions: 78000004 cycles: 31308017 heartbeat IPC: 1.61841 cumulative IPC: 1.63939 (Simulation time: 0 hr 50 min 42 sec) 

Region of Interest Statistics
cpu0_DTLB TOTAL     ACCESS:    6119215  HIT:    6111681  MISS:       7534
cpu0_DTLB LOAD      ACCESS:    4898020  HIT:    4892028  MISS:       5992
cpu0_DTLB RFO       ACCESS:    1221195  HIT:    1219653  MISS:       1542
cpu0_DTLB PREFETCH  ACCESS:          0  HIT:          0  MISS:          0
cpu0_DTLB WRITEBACK ACCESS:          0  HIT:          0  MISS:          0
cpu0_ITLB TOTAL     ACCESS:    2033164  HIT:    2032020  MISS:       1144
cpu0_ITLB LOAD      ACCESS:    2033164  HIT:    2032020  MISS:       1144
cpu0_ITLB RFO       ACCESS:          0  HIT:          0  MISS:          0
cpu0_ITLB PREFETCH  ACCESS:          0  HIT:          0  MISS:          0
cpu0_ITLB WRITEBACK ACCESS:          0  HIT:          0  MISS:          0
cpu0_L1I TOTAL     ACCESS:     710489  HIT:     671610  MISS:      38879
cpu0_L1I LOAD      ACCESS:     710489  HIT:     671610  MISS:      38879
cpu0_L1I RFO       ACCESS:          0  HIT:          0  MISS:          0
cpu0_L1I PREFETCH  ACCESS:          0  HIT:          0  MISS:          0
cpu0_L1I WRITEBACK ACCESS:          0  HIT:          0  MISS:          0
cpu0_STLB TOTAL     ACCESS:       8678  HIT:       8638  MISS:         40
cpu0_STLB LOAD      ACCESS:       7136  HIT:       7096  MISS:         40
cpu0_STLB RFO       ACCESS:       1542  HIT:       1542  MISS:          0
cpu0_STLB PREFETCH  ACCESS:          0  HIT:          0  MISS:          0
cpu0_STLB WRITEBACK ACCESS:          0  HIT:          0  MISS:          0
cpu0_L1D TOTAL     ACCESS:    7093420  HIT:    6865655  MISS:     227765
cpu0_L1D LOAD      ACCESS:    5083654  HIT:    4975763  MISS:     107891
cpu0_L1D RFO       ACCESS:    2009726  HIT:    1889866  MISS:     119860
cpu0_L1D PREFETCH  ACCESS:          0  HIT:          0  MISS:          0
cpu0_L1D WRITEBACK ACCESS:          0  HIT:          0  MISS:          0
cpu0_L2C TOTAL     ACCESS:     396678  HIT:     248505  MISS:     148173
cpu0_L2C LOAD      ACCESS:     146769  HIT:      84604  MISS:      62165
cpu0_L2C RFO       ACCESS:     119860  HIT:      41228  MISS:      78632
cpu0_L2C PREFETCH  ACCESS:          0  HIT:          0  MISS:          0
cpu0_L2C WRITEBACK ACCESS:     130035  HIT:     122673  MISS:       7362
LLC TOTAL     ACCESS:     227831  HIT:     226520  MISS:       1311
LLC LOAD      ACCESS:      62163  HIT:      60852  MISS:       1311
LLC RFO       ACCESS:      78630  HIT:      78630  MISS:          0
LLC PREFETCH  ACCESS:          0  HIT:          0  MISS:          0
LLC WRITEBACK ACCESS:      87024  HIT:      87024  MISS:          0
Heartbeat CPU 0 instructions: 80000000 cycles: 32666084 heartbeat IPC: 1.47268 cumulative IPC: 1.62711 (Simulation time: 0 hr 52 min 21 sec) 

Region of Interest Statistics
cpu0_DTLB TOTAL     ACCESS:    6551435  HIT:    6543541  MISS:       7894
cpu0_DTLB LOAD      ACCESS:    5226492  HIT:    5220223  MISS:       6269
cpu0_DTLB RFO       ACCESS:    1324943  HIT:    1323318  MISS:       1625
cpu0_DTLB PREFETCH  ACCESS:          0  HIT:          0  MISS:          0
cpu0_DTLB WRITEBACK ACCESS:          0  HIT:          0  MISS:          0
cpu0_ITLB TOTAL     ACCESS:    2147067  HIT:    2145821  MISS:       1246
cpu0_ITLB LOAD      ACCESS:    2147067  HIT:    2145821  MISS:       1246
cpu0_ITLB RFO       ACCESS:          0  HIT:          0  MISS:          0
cpu0_ITLB PREFETCH  ACCESS:          0  HIT:          0  MISS:          0
cpu0_ITLB WRITEBACK ACCESS:          0  HIT:          0  MISS:          0
cpu0_L1I TOTAL     ACCESS:     779564  HIT:     738673  MISS:      40891
cpu0_L1I LOAD      ACCESS:     779564  HIT:     738673  MISS:      40891
cpu0_L1I RFO       ACCESS:          0  HIT:          0  MISS:          0
cpu0_L1I PREFETCH  ACCESS:          0  HIT:          0  MISS:          0
cpu0_L1I WRITEBACK ACCESS:          0  HIT:          0  MISS:          0
cpu0_STLB TOTAL     ACCESS:       9140  HIT:       9095  MISS:         45
cpu0_STLB LOAD      ACCESS:       7515  HIT:       7470  MISS:         45
cpu0_STLB RFO       ACCESS:       1625  HIT:       1625  MISS:          0
cpu0_STLB PREFETCH  ACCESS:          0  HIT:          0  MISS:          0
cpu0_STLB WRITEBACK ACCESS:          0  HIT:          0  MISS:          0
cpu0_L1D TOTAL     ACCESS:    7612881  HIT:    7371075  MISS:     241806
cpu0_L1D LOAD      ACCESS:    5424132  HIT:    5309029  MISS:     115103
cpu0_L1D RFO       ACCESS:    2188704  HIT:    2062019  MISS:     126685
cpu0_L1D PREFETCH  ACCESS:          0  HIT:          0  MISS:          0
cpu0_L1D WRITEBACK ACCESS:          0  HIT:          0  MISS:          0
cpu0_L2C TOTAL     ACCESS:     420299  HIT:     263580  MISS:     156719
cpu0_L2C LOAD      ACCESS:     155993  HIT:      89678  MISS:      66315
cpu0_L2C RFO       ACCESS:     126685  HIT:      44069  MISS:      82616
cpu0_L2C PREFETCH  ACCESS:          0  HIT:          0  MISS:          0
cpu0_L2C WRITEBACK ACCESS:     137603  HIT:     129832  MISS:       7771
LLC TOTAL     ACCESS:     240839  HIT:     239336  MISS:       1503
LLC LOAD      ACCESS:      66313  HIT:      64810  MISS:       1503
LLC RFO       ACCESS:      82614  HIT:      82614  MISS:          0
LLC PREFETCH  ACCESS:          0  HIT:          0  MISS:          0
LLC WRITEBACK ACCESS:      91895  HIT:      91895  MISS:          0
Heartbeat CPU 0 instructions: 82000000 cycles: 33892482 heartbeat IPC: 1.63079 cumulative IPC: 1.62734 (Simulation time: 0 hr 53 min 20 sec) 

Region of Interest Statistics
cpu0_DTLB TOTAL     ACCESS:    6929857  HIT:    6921940  MISS:       7917
cpu0_DTLB LOAD      ACCESS:    5477391  HIT:    5471099  MISS:       6292
cpu0_DTLB RFO       ACCESS:    1452466  HIT:    1450841  MISS:       1625
cpu0_DTLB PREFETCH  ACCESS:          0  HIT:          0  MISS:          0
cpu0_DTLB WRITEBACK ACCESS:          0  HIT:          0  MISS:          0
cpu0_ITLB TOTAL     ACCESS:    2333410  HIT:    2332142  MISS:       1268
cpu0_ITLB LOAD      ACCESS:    2333410  HIT:    2332142  MISS:       1268
cpu0_ITLB RFO       ACCESS:          0  HIT:          0  MISS:          0
cpu0_ITLB PREFETCH  ACCESS:          0  HIT:          0  MISS:          0
cpu0_ITLB WRITEBACK ACCESS:          0  HIT:          0  MISS:          0
cpu0_L1I TOTAL     ACCESS:     839838  HIT:     798600  MISS:      41238
cpu0_L1I LOAD      ACCESS:     839838  HIT:     798600  MISS:      41238
cpu0_L1I RFO       ACCESS:          0  HIT:          0  MISS:          0
cpu0_L1I PREFETCH  ACCESS:          0  HIT:          0  MISS:          0
cpu0_L1I WRITEBACK ACCESS:          0  HIT:          0  MISS:          0
cpu0_STLB TOTAL     ACCESS:       9185  HIT:       9138  MISS:         47
cpu0_STLB LOAD      ACCESS:       7560  HIT:       7513  MISS:         47
cpu0_STLB RFO       ACCESS:       1625  HIT:       1625  MISS:          0
cpu0_STLB PREFETCH  ACCESS:          0  HIT:          0  MISS:          0
cpu0_STLB WRITEBACK ACCESS:          0  HIT:          0  MISS:          0
cpu0_L1D TOTAL     ACCESS:    8188353  HIT:    7946377  MISS:     241976
cpu0_L1D LOAD      ACCESS:    5734977  HIT:    5619722  MISS:     115255
cpu0_L1D RFO       ACCESS:    2453329  HIT:    2326628  MISS:     126701
cpu0_L1D PREFETCH  ACCESS:          0  HIT:          0  MISS:          0
cpu0_L1D WRITEBACK ACCESS:          0  HIT:          0  MISS:          0
cpu0_L2C TOTAL     ACCESS:     420828  HIT:     263713  MISS:     157115
cpu0_L2C LOAD      ACCESS:     156492  HIT:      89803  MISS:      66689
cpu0_L2C RFO       ACCESS:     126701  HIT:      44070  MISS:      82631
cpu0_L2C PREFETCH  ACCESS:          0  HIT:          0  MISS:          0
cpu0_L2C WRITEBACK ACCESS:     137615  HIT:     129839  MISS:       7776
LLC TOTAL     ACCESS:     241260  HIT:     239728  MISS:       1532
LLC LOAD      ACCESS:      66687  HIT:      65155  MISS:       1532
LLC RFO       ACCESS:      82629  HIT:      82629  MISS:          0
LLC PREFETCH  ACCESS:          0  HIT:          0  MISS:          0
LLC WRITEBACK ACCESS:      91925  HIT:      91925  MISS:          0
Heartbeat CPU 0 instructions: 84000003 cycles: 35143828 heartbeat IPC: 1.59828 cumulative IPC: 1.6256 (Simulation time: 0 hr 54 min 43 sec) 

Region of Interest Statistics
cpu0_DTLB TOTAL     ACCESS:    7349676  HIT:    7341291  MISS:       8385
cpu0_DTLB LOAD      ACCESS:    5784511  HIT:    5777870  MISS:       6641
cpu0_DTLB RFO       ACCESS:    1565165  HIT:    1563421  MISS:       1744
cpu0_DTLB PREFETCH  ACCESS:          0  HIT:          0  MISS:          0
cpu0_DTLB WRITEBACK ACCESS:          0  HIT:          0  MISS:          0
cpu0_ITLB TOTAL     ACCESS:    2461298  HIT:    2459943  MISS:       1355
cpu0_ITLB LOAD      ACCESS:    2461298  HIT:    2459943  MISS:       1355
cpu0_ITLB RFO       ACCESS:          0  HIT:          0  MISS:          0
cpu0_ITLB PREFETCH  ACCESS:          0  HIT:          0  MISS:          0
cpu0_ITLB WRITEBACK ACCESS:          0  HIT:          0  MISS:          0
cpu0_L1I TOTAL     ACCESS:     913455  HIT:     870548  MISS:      42907
cpu0_L1I LOAD      ACCESS:     913455  HIT:     870548  MISS:      42907
cpu0_L1I RFO       ACCESS:          0  HIT:          0  MISS:          0
cpu0_L1I PREFETCH  ACCESS:          0  HIT:          0  MISS:          0
cpu0_L1I WRITEBACK ACCESS:          0  HIT:          0  MISS:          0
cpu0_STLB TOTAL     ACCESS:       9740  HIT:       9688  MISS:         52
cpu0_STLB LOAD      ACCESS:       7996  HIT:       7944  MISS:         52
cpu0_STLB RFO       ACCESS:       1744  HIT:       1744  MISS:          0
cpu0_STLB PREFETCH  ACCESS:          0  HIT:          0  MISS:          0
cpu0_STLB WRITEBACK ACCESS:          0  HIT:          0  MISS:          0
cpu0_L1D TOTAL     ACCESS:    8726913  HIT:    8475115  MISS:     251798
cpu0_L1D LOAD      ACCESS:    6068458  HIT:    5948749  MISS:     119709
cpu0_L1D RFO       ACCESS:    2658403  HIT:    2526338  MISS:     132065
cpu0_L1D PREFETCH  ACCESS:          0  HIT:          0  MISS:          0
cpu0_L1D WRITEBACK ACCESS:          0  HIT:          0  MISS:          0
cpu0_L2C TOTAL     ACCESS:     437794  HIT:     275732  MISS:     162062
cpu0_L2C LOAD      ACCESS:     162615  HIT:      94165  MISS:      68450
cpu0_L2C RFO       ACCESS:     132065  HIT:      46582  MISS:      85483
cpu0_L2C PREFETCH  ACCESS:          0  HIT:          0  MISS:          0
cpu0_L2C WRITEBACK ACCESS:     143090  HIT:     134984  MISS:       8106
LLC TOTAL     ACCESS:     248152  HIT:     246461  MISS:       1691
LLC LOAD      ACCESS:      68448  HIT:      66757  MISS:       1691
LLC RFO       ACCESS:      85481  HIT:      85481  MISS:          0
LLC PREFETCH  ACCESS:          0  HIT:          0  MISS:          0
LLC WRITEBACK ACCESS:      94200  HIT:      94200  MISS:          0
Heartbeat CPU 0 instructions: 86000001 cycles: 36475752 heartbeat IPC: 1.50159 cumulative IPC: 1.61818 (Simulation time: 0 hr 55 min 57 sec) 

Region of Interest Statistics
cpu0_DTLB TOTAL     ACCESS:    7740586  HIT:    7732098  MISS:       8488
cpu0_DTLB LOAD      ACCESS:    6056907  HIT:    6050184  MISS:       6723
cpu0_DTLB RFO       ACCESS:    1683679  HIT:    1681914  MISS:       1765
cpu0_DTLB PREFETCH  ACCESS:          0  HIT:          0  MISS:          0
cpu0_DTLB WRITEBACK ACCESS:          0  HIT:          0  MISS:          0
cpu0_ITLB TOTAL     ACCESS:    2633617  HIT:    2632228  MISS:       1389
cpu0_ITLB LOAD      ACCESS:    2633617  HIT:    2632228  MISS:       1389
cpu0_ITLB RFO       ACCESS:          0  HIT:          0  MISS:          0
cpu0_ITLB PREFETCH  ACCESS:          0  HIT:          0  MISS:          0
cpu0_ITLB WRITEBACK ACCESS:          0  HIT:          0  MISS:          0
cpu0_L1I TOTAL     ACCESS:     969452  HIT:     925944  MISS:      43508
cpu0_L1I LOAD      ACCESS:     969452  HIT:     925944  MISS:      43508
cpu0_L1I RFO       ACCESS:          0  HIT:          0  MISS:          0
cpu0_L1I PREFETCH  ACCESS:          0  HIT:          0  MISS:          0
cpu0_L1I WRITEBACK ACCESS:          0  HIT:          0  MISS:          0
cpu0_STLB TOTAL     ACCESS:       9877  HIT:       9825  MISS:         52
cpu0_STLB LOAD      ACCESS:       8112  HIT:       8060  MISS:         52
cpu0_STLB RFO       ACCESS:       1765  HIT:       1765  MISS:          0
cpu0_STLB PREFETCH  ACCESS:          0  HIT:          0  MISS:          0
cpu0_STLB WRITEBACK ACCESS:          0  HIT:          0  MISS:          0
cpu0_L1D TOTAL     ACCESS:    9283547  HIT:    9027395  MISS:     256152
cpu0_L1D LOAD      ACCESS:    6386929  HIT:    6264339  MISS:     122590
cpu0_L1D RFO       ACCESS:    2896566  HIT:    2763028  MISS:     133538
cpu0_L1D PREFETCH  ACCESS:          0  HIT:          0  MISS:          0
cpu0_L1D WRITEBACK ACCESS:          0  HIT:          0  MISS:          0
cpu0_L2C TOTAL     ACCESS:     444736  HIT:     278437  MISS:     166299
cpu0_L2C LOAD      ACCESS:     166097  HIT:      94956  MISS:      71141
cpu0_L2C RFO       ACCESS:     133538  HIT:      46584  MISS:      86954
cpu0_L2C PREFETCH  ACCESS:          0  HIT:          0  MISS:          0
cpu0_L2C WRITEBACK ACCESS:     145077  HIT:     136896  MISS:       8181
LLC TOTAL     ACCESS:     254812  HIT:     253118  MISS:       1694
LLC LOAD      ACCESS:      71139  HIT:      69445  MISS:       1694
LLC RFO       ACCESS:      86952  HIT:      86952  MISS:          0
LLC PREFETCH  ACCESS:          0  HIT:          0  MISS:          0
LLC WRITEBACK ACCESS:      96698  HIT:      96698  MISS:          0
Heartbeat CPU 0 instructions: 88000002 cycles: 37746884 heartbeat IPC: 1.5734 cumulative IPC: 1.61576 (Simulation time: 0 hr 57 min 19 sec) 

Region of Interest Statistics
cpu0_DTLB TOTAL     ACCESS:    8148257  HIT:    8139397  MISS:       8860
cpu0_DTLB LOAD      ACCESS:    6346268  HIT:    6339262  MISS:       7006
cpu0_DTLB RFO       ACCESS:    1801989  HIT:    1800135  MISS:       1854
cpu0_DTLB PREFETCH  ACCESS:          0  HIT:          0  MISS:          0
cpu0_DTLB WRITEBACK ACCESS:          0  HIT:          0  MISS:          0
cpu0_ITLB TOTAL     ACCESS:    2774882  HIT:    2773416  MISS:       1466
cpu0_ITLB LOAD      ACCESS:    2774882  HIT:    2773416  MISS:       1466
cpu0_ITLB RFO       ACCESS:          0  HIT:          0  MISS:          0
cpu0_ITLB PREFETCH  ACCESS:          0  HIT:          0  MISS:          0
cpu0_ITLB WRITEBACK ACCESS:          0  HIT:          0  MISS:          0
cpu0_L1I TOTAL     ACCESS:    1043246  HIT:     998298  MISS:      44948
cpu0_L1I LOAD      ACCESS:    1043246  HIT:     998298  MISS:      44948
cpu0_L1I RFO       ACCESS:          0  HIT:          0  MISS:          0
cpu0_L1I PREFETCH  ACCESS:          0  HIT:          0  MISS:          0
cpu0_L1I WRITEBACK ACCESS:          0  HIT:          0  MISS:          0
cpu0_STLB TOTAL     ACCESS:      10326  HIT:      10274  MISS:         52
cpu0_STLB LOAD      ACCESS:       8472  HIT:       8420  MISS:         52
cpu0_STLB RFO       ACCESS:       1854  HIT:       1854  MISS:          0
cpu0_STLB PREFETCH  ACCESS:          0  HIT:          0  MISS:          0
cpu0_STLB WRITEBACK ACCESS:          0  HIT:          0  MISS:          0
cpu0_L1D TOTAL     ACCESS:    9834905  HIT:    9572563  MISS:     262342
cpu0_L1D LOAD      ACCESS:    6713003  HIT:    6587442  MISS:     125561
cpu0_L1D RFO       ACCESS:    3121850  HIT:    2985093  MISS:     136757
cpu0_L1D PREFETCH  ACCESS:          0  HIT:          0  MISS:          0
cpu0_L1D WRITEBACK ACCESS:          0  HIT:          0  MISS:          0
cpu0_L2C TOTAL     ACCESS:     455686  HIT:     286074  MISS:     169612
cpu0_L2C LOAD      ACCESS:     170508  HIT:      98036  MISS:      72472
cpu0_L2C RFO       ACCESS:     136757  HIT:      48100  MISS:      88657
cpu0_L2C PREFETCH  ACCESS:          0  HIT:          0  MISS:          0
cpu0_L2C WRITEBACK ACCESS:     148397  HIT:     139937  MISS:       8460
LLC TOTAL     ACCESS:     259140  HIT:     257442  MISS:       1698
LLC LOAD      ACCESS:      72470  HIT:      70772  MISS:       1698
LLC RFO       ACCESS:      88655  HIT:      88655  MISS:          0
LLC PREFETCH  ACCESS:          0  HIT:          0  MISS:          0
LLC WRITEBACK ACCESS:      97992  HIT:      97992  MISS:          0
Heartbeat CPU 0 instructions: 90000002 cycles: 39053473 heartbeat IPC: 1.5307 cumulative IPC: 1.61128 (Simulation time: 0 hr 58 min 36 sec) 

Region of Interest Statistics
cpu0_DTLB TOTAL     ACCESS:    8551370  HIT:    8542324  MISS:       9046
cpu0_DTLB LOAD      ACCESS:    6636952  HIT:    6629816  MISS:       7136
cpu0_DTLB RFO       ACCESS:    1914418  HIT:    1912508  MISS:       1910
cpu0_DTLB PREFETCH  ACCESS:          0  HIT:          0  MISS:          0
cpu0_DTLB WRITEBACK ACCESS:          0  HIT:          0  MISS:          0
cpu0_ITLB TOTAL     ACCESS:    2933396  HIT:    2931886  MISS:       1510
cpu0_ITLB LOAD      ACCESS:    2933396  HIT:    2931886  MISS:       1510
cpu0_ITLB RFO       ACCESS:          0  HIT:          0  MISS:          0
cpu0_ITLB PREFETCH  ACCESS:          0  HIT:          0  MISS:          0
cpu0_ITLB WRITEBACK ACCESS:          0  HIT:          0  MISS:          0
cpu0_L1I TOTAL     ACCESS:    1099221  HIT:    1053390  MISS:      45831
cpu0_L1I LOAD      ACCESS:    1099221  HIT:    1053390  MISS:      45831
cpu0_L1I RFO       ACCESS:          0  HIT:          0  MISS:          0
cpu0_L1I PREFETCH  ACCESS:          0  HIT:          0  MISS:          0
cpu0_L1I WRITEBACK ACCESS:          0  HIT:          0  MISS:          0
cpu0_STLB TOTAL     ACCESS:      10556  HIT:      10504  MISS:         52
cpu0_STLB LOAD      ACCESS:       8646  HIT:       8594  MISS:         52
cpu0_STLB RFO       ACCESS:       1910  HIT:       1910  MISS:          0
cpu0_STLB PREFETCH  ACCESS:          0  HIT:          0  MISS:          0
cpu0_STLB WRITEBACK ACCESS:          0  HIT:          0  MISS:          0
cpu0_L1D TOTAL     ACCESS:   10379106  HIT:   10108825  MISS:     270281
cpu0_L1D LOAD      ACCESS:    7039899  HIT:    6910011  MISS:     129888
cpu0_L1D RFO       ACCESS:    3339155  HIT:    3198786  MISS:     140369
cpu0_L1D PREFETCH  ACCESS:          0  HIT:          0  MISS:          0
cpu0_L1D WRITEBACK ACCESS:          0  HIT:          0  MISS:          0
cpu0_L2C TOTAL     ACCESS:     468623  HIT:     293201  MISS:     175422
cpu0_L2C LOAD      ACCESS:     175718  HIT:     100158  MISS:      75560
cpu0_L2C RFO       ACCESS:     140369  HIT:      49101  MISS:      91268
cpu0_L2C PREFETCH  ACCESS:          0  HIT:          0  MISS:          0
cpu0_L2C WRITEBACK ACCESS:     152512  HIT:     143941  MISS:       8571
LLC TOTAL     ACCESS:     268339  HIT:     266608  MISS:       1731
LLC LOAD      ACCESS:      75558  HIT:      73827  MISS:       1731
LLC RFO       ACCESS:      91266  HIT:      91266  MISS:          0
LLC PREFETCH  ACCESS:          0  HIT:          0  MISS:          0
LLC WRITEBACK ACCESS:     101492  HIT:     101492  MISS:          0
Heartbeat CPU 0 instructions: 92000001 cycles: 40288760 heartbeat IPC: 1.61906 cumulative IPC: 1.61165 (Simulation time: 0 hr 59 min 37 sec) 

Region of Interest Statistics
cpu0_DTLB TOTAL     ACCESS:    8929352  HIT:    8920286  MISS:       9066
cpu0_DTLB LOAD      ACCESS:    6888397  HIT:    6881241  MISS:       7156
cpu0_DTLB RFO       ACCESS:    2040955  HIT:    2039045  MISS:       1910
cpu0_DTLB PREFETCH  ACCESS:          0  HIT:          0  MISS:          0
cpu0_DTLB WRITEBACK ACCESS:          0  HIT:          0  MISS:          0
cpu0_ITLB TOTAL     ACCESS:    3118643  HIT:    3117114  MISS:       1529
cpu0_ITLB LOAD      ACCESS:    3118643  HIT:    3117114  MISS:       1529
cpu0_ITLB RFO       ACCESS:          0  HIT:          0  MISS:          0
cpu0_ITLB PREFETCH  ACCESS:          0  HIT:          0  MISS:          0
cpu0_ITLB WRITEBACK ACCESS:          0  HIT:          0  MISS:          0
cpu0_L1I TOTAL     ACCESS:    1161380  HIT:    1115328  MISS:      46052
cpu0_L1I LOAD      ACCESS:    1161380  HIT:    1115328  MISS:      46052
cpu0_L1I RFO       ACCESS:          0  HIT:          0  MISS:          0
cpu0_L1I PREFETCH  ACCESS:          0  HIT:          0  MISS:          0
cpu0_L1I WRITEBACK ACCESS:          0  HIT:          0  MISS:          0
cpu0_STLB TOTAL     ACCESS:      10595  HIT:      10541  MISS:         54
cpu0_STLB LOAD      ACCESS:       8685  HIT:       8631  MISS:         54
cpu0_STLB RFO       ACCESS:       1910  HIT:       1910  MISS:          0
cpu0_STLB PREFETCH  ACCESS:          0  HIT:          0  MISS:          0
cpu0_STLB WRITEBACK ACCESS:          0  HIT:          0  MISS:          0
cpu0_L1D TOTAL     ACCESS:   10954082  HIT:   10683668  MISS:     270414
cpu0_L1D LOAD      ACCESS:    7352142  HIT:    7222126  MISS:     130016
cpu0_L1D RFO       ACCESS:    3601886  HIT:    3461514  MISS:     140372
cpu0_L1D PREFETCH  ACCESS:          0  HIT:          0  MISS:          0
cpu0_L1D WRITEBACK ACCESS:          0  HIT:          0  MISS:          0
cpu0_L2C TOTAL     ACCESS:     468993  HIT:     293426  MISS:     175567
cpu0_L2C LOAD      ACCESS:     176067  HIT:     100365  MISS:      75702
cpu0_L2C RFO       ACCESS:     140372  HIT:      49104  MISS:      91268
cpu0_L2C PREFETCH  ACCESS:          0  HIT:          0  MISS:          0
cpu0_L2C WRITEBACK ACCESS:     152528  HIT:     143956  MISS:       8572
LLC TOTAL     ACCESS:     268515  HIT:     266744  MISS:       1771
LLC LOAD      ACCESS:      75700  HIT:      73929  MISS:       1771
LLC RFO       ACCESS:      91266  HIT:      91266  MISS:          0
LLC PREFETCH  ACCESS:          0  HIT:          0  MISS:          0
LLC WRITEBACK ACCESS:     101524  HIT:     101524  MISS:          0
Heartbeat CPU 0 instructions: 94000004 cycles: 41519970 heartbeat IPC: 1.62442 cumulative IPC: 1.61222 (Simulation time: 1 hr 1 min 4 sec) 

Region of Interest Statistics
cpu0_DTLB TOTAL     ACCESS:    9354326  HIT:    9344961  MISS:       9365
cpu0_DTLB LOAD      ACCESS:    7203648  HIT:    7196278  MISS:       7370
cpu0_DTLB RFO       ACCESS:    2150678  HIT:    2148683  MISS:       1995
cpu0_DTLB PREFETCH  ACCESS:          0  HIT:          0  MISS:          0
cpu0_DTLB WRITEBACK ACCESS:          0  HIT:          0  MISS:          0
cpu0_ITLB TOTAL     ACCESS:    3240985  HIT:    3239369  MISS:       1616
cpu0_ITLB LOAD      ACCESS:    3240985  HIT:    3239369  MISS:       1616
cpu0_ITLB RFO       ACCESS:          0  HIT:          0  MISS:          0
cpu0_ITLB PREFETCH  ACCESS:          0  HIT:          0  MISS:          0
cpu0_ITLB WRITEBACK ACCESS:          0  HIT:          0  MISS:          0
cpu0_L1I TOTAL     ACCESS:    1232961  HIT:    1185163  MISS:      47798
cpu0_L1I LOAD      ACCESS:    1232961  HIT:    1185163  MISS:      47798
cpu0_L1I RFO       ACCESS:          0  HIT:          0  MISS:          0
cpu0_L1I PREFETCH  ACCESS:          0  HIT:          0  MISS:          0
cpu0_L1I WRITEBACK ACCESS:          0  HIT:          0  MISS:          0
cpu0_STLB TOTAL     ACCESS:      10981  HIT:      10923  MISS:         58
cpu0_STLB LOAD      ACCESS:       8986  HIT:       8928  MISS:         58
cpu0_STLB RFO       ACCESS:       1995  HIT:       1995  MISS:          0
cpu0_STLB PREFETCH  ACCESS:          0  HIT:          0  MISS:          0
cpu0_STLB WRITEBACK ACCESS:          0  HIT:          0  MISS:          0
cpu0_L1D TOTAL     ACCESS:   11482473  HIT:   11200939  MISS:     281534
cpu0_L1D LOAD      ACCESS:    7685904  HIT:    7551032  MISS:     134872
cpu0_L1D RFO       ACCESS:    3796511  HIT:    3649878  MISS:     146633
cpu0_L1D PREFETCH  ACCESS:          0  HIT:          0  MISS:          0
cpu0_L1D WRITEBACK ACCESS:          0  HIT:          0  MISS:          0
cpu0_L2C TOTAL     ACCESS:     488369  HIT:     306775  MISS:     181594
cpu0_L2C LOAD      ACCESS:     182669  HIT:     105071  MISS:      77598
cpu0_L2C RFO       ACCESS:     146633  HIT:      51584  MISS:      95049
cpu0_L2C PREFETCH  ACCESS:          0  HIT:          0  MISS:          0
cpu0_L2C WRITEBACK ACCESS:     159038  HIT:     150119  MISS:       8919
LLC TOTAL     ACCESS:     277163  HIT:     275226  MISS:       1937
LLC LOAD      ACCESS:      77596  HIT:      75659  MISS:       1937
LLC RFO       ACCESS:      95047  HIT:      95047  MISS:          0
LLC PREFETCH  ACCESS:          0  HIT:          0  MISS:          0
LLC WRITEBACK ACCESS:     104492  HIT:     104492  MISS:          0
Heartbeat CPU 0 instructions: 96000001 cycles: 42875362 heartbeat IPC: 1.47559 cumulative IPC: 1.60576 (Simulation time: 1 hr 2 min 13 sec) 

Region of Interest Statistics
cpu0_DTLB TOTAL     ACCESS:    9739787  HIT:    9730339  MISS:       9448
cpu0_DTLB LOAD      ACCESS:    7467817  HIT:    7460372  MISS:       7445
cpu0_DTLB RFO       ACCESS:    2271970  HIT:    2269967  MISS:       2003
cpu0_DTLB PREFETCH  ACCESS:          0  HIT:          0  MISS:          0
cpu0_DTLB WRITEBACK ACCESS:          0  HIT:          0  MISS:          0
cpu0_ITLB TOTAL     ACCESS:    3418796  HIT:    3417146  MISS:       1650
cpu0_ITLB LOAD      ACCESS:    3418796  HIT:    3417146  MISS:       1650
cpu0_ITLB RFO       ACCESS:          0  HIT:          0  MISS:          0
cpu0_ITLB PREFETCH  ACCESS:          0  HIT:          0  MISS:          0
cpu0_ITLB WRITEBACK ACCESS:          0  HIT:          0  MISS:          0
cpu0_L1I TOTAL     ACCESS:    1290956  HIT:    1242558  MISS:      48398
cpu0_L1I LOAD      ACCESS:    1290956  HIT:    1242558  MISS:      48398
cpu0_L1I RFO       ACCESS:          0  HIT:          0  MISS:          0
cpu0_L1I PREFETCH  ACCESS:          0  HIT:          0  MISS:          0
cpu0_L1I WRITEBACK ACCESS:          0  HIT:          0  MISS:          0
cpu0_STLB TOTAL     ACCESS:      11098  HIT:      11037  MISS:         61
cpu0_STLB LOAD      ACCESS:       9095  HIT:       9034  MISS:         61
cpu0_STLB RFO       ACCESS:       2003  HIT:       2003  MISS:          0
cpu0_STLB PREFETCH  ACCESS:          0  HIT:          0  MISS:          0
cpu0_STLB WRITEBACK ACCESS:          0  HIT:          0  MISS:          0
cpu0_L1D TOTAL     ACCESS:   12048633  HIT:   11763963  MISS:     284670
cpu0_L1D LOAD      ACCESS:    8003670  HIT:    7866262  MISS:     137408
cpu0_L1D RFO       ACCESS:    4044902  HIT:    3897671  MISS:     147231
cpu0_L1D PREFETCH  ACCESS:          0  HIT:          0  MISS:          0
cpu0_L1D WRITEBACK ACCESS:          0  HIT:          0  MISS:          0
cpu0_L2C TOTAL     ACCESS:     493083  HIT:     308227  MISS:     184856
cpu0_L2C LOAD      ACCESS:     185805  HIT:     105608  MISS:      80197
cpu0_L2C RFO       ACCESS:     147231  HIT:      51585  MISS:      95646
cpu0_L2C PREFETCH  ACCESS:          0  HIT:          0  MISS:          0
cpu0_L2C WRITEBACK ACCESS:     160016  HIT:     151033  MISS:       8983
LLC TOTAL     ACCESS:     282226  HIT:     280216  MISS:       2010
LLC LOAD      ACCESS:      80195  HIT:      78185  MISS:       2010
LLC RFO       ACCESS:      95644  HIT:      95644  MISS:          0
LLC PREFETCH  ACCESS:          0  HIT:          0  MISS:          0
LLC WRITEBACK ACCESS:     106357  HIT:     106357  MISS:          0
Heartbeat CPU 0 instructions: 98000003 cycles: 44135416 heartbeat IPC: 1.58724 cumulative IPC: 1.60498 (Simulation time: 1 hr 3 min 35 sec) 

Region of Interest Statistics
cpu0_DTLB TOTAL     ACCESS:   10152511  HIT:   10142852  MISS:       9659
cpu0_DTLB LOAD      ACCESS:    7765428  HIT:    7757816  MISS:       7612
cpu0_DTLB RFO       ACCESS:    2387083  HIT:    2385036  MISS:       2047
cpu0_DTLB PREFETCH  ACCESS:          0  HIT:          0  MISS:          0
cpu0_DTLB WRITEBACK ACCESS:          0  HIT:          0  MISS:          0
cpu0_ITLB TOTAL     ACCESS:    3555687  HIT:    3553960  MISS:       1727
cpu0_ITLB LOAD      ACCESS:    3555687  HIT:    3553960  MISS:       1727
cpu0_ITLB RFO       ACCESS:          0  HIT:          0  MISS:          0
cpu0_ITLB PREFETCH  ACCESS:          0  HIT:          0  MISS:          0
cpu0_ITLB WRITEBACK ACCESS:          0  HIT:          0  MISS:          0
cpu0_L1I TOTAL     ACCESS:    1361561  HIT:    1311770  MISS:      49791
cpu0_L1I LOAD      ACCESS:    1361561  HIT:    1311770  MISS:      49791
cpu0_L1I RFO       ACCESS:          0  HIT:          0  MISS:          0
cpu0_L1I PREFETCH  ACCESS:          0  HIT:          0  MISS:          0
cpu0_L1I WRITEBACK ACCESS:          0  HIT:          0  MISS:          0
cpu0_STLB TOTAL     ACCESS:      11386  HIT:      11322  MISS:         64
cpu0_STLB LOAD      ACCESS:       9339  HIT:       9275  MISS:         64
cpu0_STLB RFO       ACCESS:       2047  HIT:       2047  MISS:          0
cpu0_STLB PREFETCH  ACCESS:          0  HIT:          0  MISS:          0
cpu0_STLB WRITEBACK ACCESS:          0  HIT:          0  MISS:          0
cpu0_L1D TOTAL     ACCESS:   12590953  HIT:   12298767  MISS:     292186
cpu0_L1D LOAD      ACCESS:    8329877  HIT:    8189057  MISS:     140820
cpu0_L1D RFO       ACCESS:    4261012  HIT:    4109679  MISS:     151333
cpu0_L1D PREFETCH  ACCESS:          0  HIT:          0  MISS:          0
cpu0_L1D WRITEBACK ACCESS:          0  HIT:          0  MISS:          0
cpu0_L2C TOTAL     ACCESS:     506372  HIT:     317840  MISS:     188532
cpu0_L2C LOAD      ACCESS:     190610  HIT:     109074  MISS:      81536
cpu0_L2C RFO       ACCESS:     151333  HIT:      53654  MISS:      97679
cpu0_L2C PREFETCH  ACCESS:          0  HIT:          0  MISS:          0
cpu0_L2C WRITEBACK ACCESS:     164396  HIT:     155110  MISS:       9286
LLC TOTAL     ACCESS:     287156  HIT:     285007  MISS:       2149
LLC LOAD      ACCESS:      81534  HIT:      79385  MISS:       2149
LLC RFO       ACCESS:      97677  HIT:      97677  MISS:          0
LLC PREFETCH  ACCESS:          0  HIT:          0  MISS:          0
LLC WRITEBACK ACCESS:     107914  HIT:     107914  MISS:          0
Heartbeat CPU 0 instructions: 100000003 cycles: 45460445 heartbeat IPC: 1.5094 cumulative IPC: 1.60092 (Simulation time: 1 hr 4 min 51 sec) 

Region of Interest Statistics
cpu0_DTLB TOTAL     ACCESS:   10550724  HIT:   10540882  MISS:       9842
cpu0_DTLB LOAD      ACCESS:    8047654  HIT:    8039906  MISS:       7748
cpu0_DTLB RFO       ACCESS:    2503070  HIT:    2500976  MISS:       2094
cpu0_DTLB PREFETCH  ACCESS:          0  HIT:          0  MISS:          0
cpu0_DTLB WRITEBACK ACCESS:          0  HIT:          0  MISS:          0
cpu0_ITLB TOTAL     ACCESS:    3718929  HIT:    3717158  MISS:       1771
cpu0_ITLB LOAD      ACCESS:    3718929  HIT:    3717158  MISS:       1771
cpu0_ITLB RFO       ACCESS:          0  HIT:          0  MISS:          0
cpu0_ITLB PREFETCH  ACCESS:          0  HIT:          0  MISS:          0
cpu0_ITLB WRITEBACK ACCESS:          0  HIT:          0  MISS:          0
cpu0_L1I TOTAL     ACCESS:    1420729  HIT:    1370070  MISS:      50659
cpu0_L1I LOAD      ACCESS:    1420729  HIT:    1370070  MISS:      50659
cpu0_L1I RFO       ACCESS:          0  HIT:          0  MISS:          0
cpu0_L1I PREFETCH  ACCESS:          0  HIT:          0  MISS:          0
cpu0_L1I WRITEBACK ACCESS:          0  HIT:          0  MISS:          0
cpu0_STLB TOTAL     ACCESS:      11613  HIT:      11548  MISS:         65
cpu0_STLB LOAD      ACCESS:       9519  HIT:       9454  MISS:         65
cpu0_STLB RFO       ACCESS:       2094  HIT:       2094  MISS:          0
cpu0_STLB PREFETCH  ACCESS:          0  HIT:          0  MISS:          0
cpu0_STLB WRITEBACK ACCESS:          0  HIT:          0  MISS:          0
cpu0_L1D TOTAL     ACCESS:   13143921  HIT:   12845037  MISS:     298884
cpu0_L1D LOAD      ACCESS:    8655737  HIT:    8510972  MISS:     144765
cpu0_L1D RFO       ACCESS:    4488119  HIT:    4334034  MISS:     154085
cpu0_L1D PREFETCH  ACCESS:          0  HIT:          0  MISS:          0
cpu0_L1D WRITEBACK ACCESS:          0  HIT:          0  MISS:          0
cpu0_L2C TOTAL     ACCESS:     517047  HIT:     323027  MISS:     194020
cpu0_L2C LOAD      ACCESS:     195423  HIT:     110780  MISS:      84643
cpu0_L2C RFO       ACCESS:     154085  HIT:      54128  MISS:      99957
cpu0_L2C PREFETCH  ACCESS:          0  HIT:          0  MISS:          0
cpu0_L2C WRITEBACK ACCESS:     167505  HIT:     158116  MISS:       9389
LLC TOTAL     ACCESS:     295770  HIT:     293589  MISS:       2181
LLC LOAD      ACCESS:      84641  HIT:      82460  MISS:       2181
LLC RFO       ACCESS:      99955  HIT:      99955  MISS:          0
LLC PREFETCH  ACCESS:          0  HIT:          0  MISS:          0
LLC WRITEBACK ACCESS:     111143  HIT:     111143  MISS:          0
Heartbeat CPU 0 instructions: 102000001 cycles: 46737139 heartbeat IPC: 1.56654 cumulative IPC: 1.59957 (Simulation time: 1 hr 6 min 6 sec) 

Region of Interest Statistics
cpu0_DTLB TOTAL     ACCESS:   10950939  HIT:   10940972  MISS:       9967
cpu0_DTLB LOAD      ACCESS:    8325503  HIT:    8317655  MISS:       7848
cpu0_DTLB RFO       ACCESS:    2625436  HIT:    2623317  MISS:       2119
cpu0_DTLB PREFETCH  ACCESS:          0  HIT:          0  MISS:          0
cpu0_DTLB WRITEBACK ACCESS:          0  HIT:          0  MISS:          0
cpu0_ITLB TOTAL     ACCESS:    3868927  HIT:    3867088  MISS:       1839
cpu0_ITLB LOAD      ACCESS:    3868927  HIT:    3867088  MISS:       1839
cpu0_ITLB RFO       ACCESS:          0  HIT:          0  MISS:          0
cpu0_ITLB PREFETCH  ACCESS:          0  HIT:          0  MISS:          0
cpu0_ITLB WRITEBACK ACCESS:          0  HIT:          0  MISS:          0
cpu0_L1I TOTAL     ACCESS:    1493276  HIT:    1441378  MISS:      51898
cpu0_L1I LOAD      ACCESS:    1493276  HIT:    1441378  MISS:      51898
cpu0_L1I RFO       ACCESS:          0  HIT:          0  MISS:          0
cpu0_L1I PREFETCH  ACCESS:          0  HIT:          0  MISS:          0
cpu0_L1I WRITEBACK ACCESS:          0  HIT:          0  MISS:          0
cpu0_STLB TOTAL     ACCESS:      11806  HIT:      11741  MISS:         65
cpu0_STLB LOAD      ACCESS:       9687  HIT:       9622  MISS:         65
cpu0_STLB RFO       ACCESS:       2119  HIT:       2119  MISS:          0
cpu0_STLB PREFETCH  ACCESS:          0  HIT:          0  MISS:          0
cpu0_STLB WRITEBACK ACCESS:          0  HIT:          0  MISS:          0
cpu0_L1D TOTAL     ACCESS:   13702498  HIT:   13399918  MISS:     302580
cpu0_L1D LOAD      ACCESS:    8976047  HIT:    8829597  MISS:     146450
cpu0_L1D RFO       ACCESS:    4726386  HIT:    4570290  MISS:     156096
cpu0_L1D PREFETCH  ACCESS:          0  HIT:          0  MISS:          0
cpu0_L1D WRITEBACK ACCESS:          0  HIT:          0  MISS:          0
cpu0_L2C TOTAL     ACCESS:     523948  HIT:     327474  MISS:     196474
cpu0_L2C LOAD      ACCESS:     198347  HIT:     112701  MISS:      85646
cpu0_L2C RFO       ACCESS:     156097  HIT:      54888  MISS:     101209
cpu0_L2C PREFETCH  ACCESS:          0  HIT:          0  MISS:          0
cpu0_L2C WRITEBACK ACCESS:     169470  HIT:     159882  MISS:       9588
LLC TOTAL     ACCESS:     298897  HIT:     296709  MISS:       2188
LLC LOAD      ACCESS:      85644  HIT:      83456  MISS:       2188
LLC RFO       ACCESS:     101207  HIT:     101207  MISS:          0
LLC PREFETCH  ACCESS:          0  HIT:          0  MISS:          0
LLC WRITEBACK ACCESS:     112015  HIT:     112015  MISS:          0
Heartbeat CPU 0 instructions: 104000003 cycles: 48022024 heartbeat IPC: 1.55656 cumulative IPC: 1.59794 (Simulation time: 1 hr 7 min 26 sec) 

Region of Interest Statistics
cpu0_DTLB TOTAL     ACCESS:   11359517  HIT:   11349346  MISS:      10171
cpu0_DTLB LOAD      ACCESS:    8625909  HIT:    8617920  MISS:       7989
cpu0_DTLB RFO       ACCESS:    2733608  HIT:    2731426  MISS:       2182
cpu0_DTLB PREFETCH  ACCESS:          0  HIT:          0  MISS:          0
cpu0_DTLB WRITEBACK ACCESS:          0  HIT:          0  MISS:          0
cpu0_ITLB TOTAL     ACCESS:    4019207  HIT:    4017336  MISS:       1871
cpu0_ITLB LOAD      ACCESS:    4019207  HIT:    4017336  MISS:       1871
cpu0_ITLB RFO       ACCESS:          0  HIT:          0  MISS:          0
cpu0_ITLB PREFETCH  ACCESS:          0  HIT:          0  MISS:          0
cpu0_ITLB WRITEBACK ACCESS:          0  HIT:          0  MISS:          0
cpu0_L1I TOTAL     ACCESS:    1548624  HIT:    1495934  MISS:      52690
cpu0_L1I LOAD      ACCESS:    1548624  HIT:    1495934  MISS:      52690
cpu0_L1I RFO       ACCESS:          0  HIT:          0  MISS:          0
cpu0_L1I PREFETCH  ACCESS:          0  HIT:          0  MISS:          0
cpu0_L1I WRITEBACK ACCESS:          0  HIT:          0  MISS:          0
cpu0_STLB TOTAL     ACCESS:      12042  HIT:      11977  MISS:         65
cpu0_STLB LOAD      ACCESS:       9860  HIT:       9795  MISS:         65
cpu0_STLB RFO       ACCESS:       2182  HIT:       2182  MISS:          0
cpu0_STLB PREFETCH  ACCESS:          0  HIT:          0  MISS:          0
cpu0_STLB WRITEBACK ACCESS:          0  HIT:          0  MISS:          0
cpu0_L1D TOTAL     ACCESS:   14238167  HIT:   13925217  MISS:     312950
cpu0_L1D LOAD      ACCESS:    9307263  HIT:    9155277  MISS:     151986
cpu0_L1D RFO       ACCESS:    4930839  HIT:    4769909  MISS:     160930
cpu0_L1D PREFETCH  ACCESS:          0  HIT:          0  MISS:          0
cpu0_L1D WRITEBACK ACCESS:          0  HIT:          0  MISS:          0
cpu0_L2C TOTAL     ACCESS:     540617  HIT:     337833  MISS:     202784
cpu0_L2C LOAD      ACCESS:     204675  HIT:     115930  MISS:      88745
cpu0_L2C RFO       ACCESS:     160930  HIT:      56706  MISS:     104224
cpu0_L2C PREFETCH  ACCESS:          0  HIT:          0  MISS:          0
cpu0_L2C WRITEBACK ACCESS:     174978  HIT:     165194  MISS:       9784
LLC TOTAL     ACCESS:     308871  HIT:     306676  MISS:       2195
LLC LOAD      ACCESS:      88743  HIT:      86548  MISS:       2195
LLC RFO       ACCESS:     104222  HIT:     104222  MISS:          0
LLC PREFETCH  ACCESS:          0  HIT:          0  MISS:          0
LLC WRITEBACK ACCESS:     115875  HIT:     115875  MISS:          0
Heartbeat CPU 0 instructions: 106000000 cycles: 49301161 heartbeat IPC: 1.56355 cumulative IPC: 1.59668 (Simulation time: 1 hr 8 min 29 sec) 

Region of Interest Statistics
cpu0_DTLB TOTAL     ACCESS:   11749745  HIT:   11739386  MISS:      10359
cpu0_DTLB LOAD      ACCESS:    8889873  HIT:    8881701  MISS:       8172
cpu0_DTLB RFO       ACCESS:    2859872  HIT:    2857685  MISS:       2187
cpu0_DTLB PREFETCH  ACCESS:          0  HIT:          0  MISS:          0
cpu0_DTLB WRITEBACK ACCESS:          0  HIT:          0  MISS:          0
cpu0_ITLB TOTAL     ACCESS:    4198863  HIT:    4196849  MISS:       2014
cpu0_ITLB LOAD      ACCESS:    4198863  HIT:    4196849  MISS:       2014
cpu0_ITLB RFO       ACCESS:          0  HIT:          0  MISS:          0
cpu0_ITLB PREFETCH  ACCESS:          0  HIT:          0  MISS:          0
cpu0_ITLB WRITEBACK ACCESS:          0  HIT:          0  MISS:          0
cpu0_L1I TOTAL     ACCESS:    1615450  HIT:    1560821  MISS:      54629
cpu0_L1I LOAD      ACCESS:    1615450  HIT:    1560821  MISS:      54629
cpu0_L1I RFO       ACCESS:          0  HIT:          0  MISS:          0
cpu0_L1I PREFETCH  ACCESS:          0  HIT:          0  MISS:          0
cpu0_L1I WRITEBACK ACCESS:          0  HIT:          0  MISS:          0
cpu0_STLB TOTAL     ACCESS:      12373  HIT:      12302  MISS:         71
cpu0_STLB LOAD      ACCESS:      10186  HIT:      10115  MISS:         71
cpu0_STLB RFO       ACCESS:       2187  HIT:       2187  MISS:          0
cpu0_STLB PREFETCH  ACCESS:          0  HIT:          0  MISS:          0
cpu0_STLB WRITEBACK ACCESS:          0  HIT:          0  MISS:          0
cpu0_L1D TOTAL     ACCESS:   14815968  HIT:   14502131  MISS:     313837
cpu0_L1D LOAD      ACCESS:    9626654  HIT:    9474125  MISS:     152529
cpu0_L1D RFO       ACCESS:    5189243  HIT:    5027972  MISS:     161271
cpu0_L1D PREFETCH  ACCESS:          0  HIT:          0  MISS:          0
cpu0_L1D WRITEBACK ACCESS:          0  HIT:          0  MISS:          0
cpu0_L2C TOTAL     ACCESS:     543617  HIT:     339269  MISS:     204348
cpu0_L2C LOAD      ACCESS:     207157  HIT:     117195  MISS:      89962
cpu0_L2C RFO       ACCESS:     161271  HIT:      56741  MISS:     104530
cpu0_L2C PREFETCH  ACCESS:          0  HIT:          0  MISS:          0
cpu0_L2C WRITEBACK ACCESS:     175152  HIT:     165330  MISS:       9822
[...]
cpu0_DTLB PREFETCH  ACCESS:          0  HIT:          0  MISS:          0
cpu0_DTLB WRITEBACK ACCESS:          0  HIT:          0  MISS:          0
cpu0_DTLB TRANSLATION ACCESS:          0  HIT:          0  MISS:          0
cpu0_DTLB PREFETCH  REQUESTED:          0  ISSUED:          0  USEFUL:          0  USELESS:          0
cpu0_DTLB AVERAGE MISS LATENCY: 9.18071 cycles
cpu0_ITLB TOTAL     ACCESS:  114521577  HIT:  114407880  MISS:     113697
cpu0_ITLB LOAD      ACCESS:  114521577  HIT:  114407880  MISS:     113697
cpu0_ITLB RFO       ACCESS:          0  HIT:          0  MISS:          0
cpu0_ITLB PREFETCH  ACCESS:          0  HIT:          0  MISS:          0
cpu0_ITLB WRITEBACK ACCESS:          0  HIT:          0  MISS:          0
cpu0_ITLB TRANSLATION ACCESS:          0  HIT:          0  MISS:          0
cpu0_ITLB PREFETCH  REQUESTED:          0  ISSUED:          0  USEFUL:          0  USELESS:          0
cpu0_ITLB AVERAGE MISS LATENCY: 9.02836 cycles
cpu0_L1I TOTAL     ACCESS:   46522317  HIT:   44322490  MISS:    2199827
cpu0_L1I LOAD      ACCESS:   46522317  HIT:   44322490  MISS:    2199827
cpu0_L1I RFO       ACCESS:          0  HIT:          0  MISS:          0
cpu0_L1I PREFETCH  ACCESS:          0  HIT:          0  MISS:          0
cpu0_L1I WRITEBACK ACCESS:          0  HIT:          0  MISS:          0
cpu0_L1I TRANSLATION ACCESS:          0  HIT:          0  MISS:          0
cpu0_L1I PREFETCH  REQUESTED:          0  ISSUED:          0  USEFUL:          0  USELESS:          0
cpu0_L1I AVERAGE MISS LATENCY: 19.0075 cycles
cpu0_STLB TOTAL     ACCESS:     457765  HIT:     457510  MISS:        255
cpu0_STLB LOAD      ACCESS:     407228  HIT:     406978  MISS:        250
cpu0_STLB RFO       ACCESS:      50537  HIT:      50532  MISS:          5
cpu0_STLB PREFETCH  ACCESS:          0  HIT:          0  MISS:          0
cpu0_STLB WRITEBACK ACCESS:          0  HIT:          0  MISS:          0
cpu0_STLB TRANSLATION ACCESS:          0  HIT:          0  MISS:          0
cpu0_STLB PREFETCH  REQUESTED:          0  ISSUED:          0  USEFUL:          0  USELESS:          0
cpu0_STLB AVERAGE MISS LATENCY: 225.169 cycles
cpu0_L1D TOTAL     ACCESS:  408215738  HIT:  400312327  MISS:    7903411
cpu0_L1D LOAD      ACCESS:  275807285  HIT:  272024880  MISS:    3782405
cpu0_L1D RFO       ACCESS:  132408198  HIT:  128287357  MISS:    4120841
cpu0_L1D PREFETCH  ACCESS:          0  HIT:          0  MISS:          0
cpu0_L1D WRITEBACK ACCESS:          0  HIT:          0  MISS:          0
cpu0_L1D TRANSLATION ACCESS:        255  HIT:         90  MISS:        165
cpu0_L1D PREFETCH  REQUESTED:          0  ISSUED:          0  USEFUL:          0  USELESS:          0
cpu0_L1D AVERAGE MISS LATENCY: 21.6082 cycles
cpu0_L2C TOTAL     ACCESS:   14673038  HIT:    9593934  MISS:    5079104
cpu0_L2C LOAD      ACCESS:    5981855  HIT:    3597885  MISS:    2383970
cpu0_L2C RFO       ACCESS:    4120775  HIT:    1759321  MISS:    2361454
cpu0_L2C PREFETCH  ACCESS:          0  HIT:          0  MISS:          0
cpu0_L2C WRITEBACK ACCESS:    4570243  HIT:    4236685  MISS:     333558
cpu0_L2C TRANSLATION ACCESS:        165  HIT:         43  MISS:        122
cpu0_L2C PREFETCH  REQUESTED:          0  ISSUED:          0  USEFUL:          0  USELESS:          0
cpu0_L2C AVERAGE MISS LATENCY: 19.925 cycles
LLC TOTAL     ACCESS:    7499844  HIT:    7489026  MISS:      10818
LLC LOAD      ACCESS:    2383804  HIT:    2373345  MISS:      10459
LLC RFO       ACCESS:    2361284  HIT:    2360925  MISS:        359
LLC PREFETCH  ACCESS:          0  HIT:          0  MISS:          0
LLC WRITEBACK ACCESS:    2754634  HIT:    2754634  MISS:          0
LLC TRANSLATION ACCESS:        122  HIT:        122  MISS:          0
LLC PREFETCH  REQUESTED:          0  ISSUED:          0  USEFUL:          0  USELESS:          0
LLC AVERAGE MISS LATENCY: 143.415 cycles
~~~~~~~~~~Reuse Distance Profiler output~~~~~~~~~~
0	60337520	19299104
1	32019824	18605424
2	29887344	21764624
3	23770496	17878720
4	19264960	13740992
5	15670000	12248704
6	14164320	10385136
7	10492096	7574544
8	9729392	7290144
9	9177008	6844976
10	7489744	5789920
11	7001520	4920208
12	6492208	5144720
13	4936240	3600000
14	4830784	3900832
15	5331520	4276176
16	3924592	3200496
17	3385952	2613376
18	3814736	2828640
19	4086464	3463904
20	3365920	2828912
21	3047712	2512672
22	3141328	2387488
23	3771152	3161504
24	2469472	1895632
25	2084640	1572672
26	1811344	1354368
27	1518352	1167584
28	2111552	1417936
29	1854160	982784
30	1475024	947600
31	1345936	974288
32	1491744	954336
33	1392928	1053648
34	1364288	778672
35	969872	741936
36	1227408	925456
37	1288320	1019408
38	1422032	1143120
39	1325600	902112
40	1155216	858560
41	911200	657968
42	1048656	782784
43	1144672	811088
44	976784	684176
45	918512	688992
46	879840	676336
47	866688	678064
48	929568	703584
49	741808	555856
50	796512	648224
51	698688	552336
52	816992	647072
53	701696	596656
54	867008	740832
55	705168	595056
56	696544	576224
57	844224	729424
58	695392	538304
59	753424	629616
60	742848	593376
61	730752	603216
62	642128	476784
63	561088	454976
64	1183488	985072
66	1383952	1067904
68	1513824	1183200
70	1649504	1346016
72	1602720	1185744
74	1530864	1249920
76	1781040	1397744
78	953696	728976
80	1360192	1091424
82	1513232	1199968
84	885936	764320
86	844576	708368
88	941168	789344
90	782128	635072
92	663840	586160
94	588128	469968
96	734672	600304
98	609136	490928
100	471424	360752
102	452688	354752
104	516768	400640
106	569280	399136
108	626176	414480
110	615024	384608
112	632176	393216
114	650176	495952
116	590176	424896
118	691504	515904
120	691408	519712
122	751248	581808
124	959296	783008
126	732272	581312
128	2554160	2287104
132	912128	693536
136	735072	577008
140	682544	553856
144	726992	615568
148	698000	612624
152	1239360	1096608
156	948656	867904
160	887536	815680
164	839184	752304
168	984224	879232
172	529712	426656
176	499696	379152
180	478048	360992
184	440592	339088
188	457248	355632
192	435424	321264
196	479312	337392
200	511472	338048
204	500928	348048
208	543968	426784
212	476528	390784
216	477888	365536
220	441904	357312
224	354144	266720
228	374048	218368
232	352352	207008
236	339632	215392
240	275440	174224
244	272848	182448
248	274912	189744
252	258144	178048
256	579312	384432
264	540432	381664
272	453952	305904
280	512512	310480
288	487856	325248
296	442192	234288
304	376896	211376
312	349904	214416
320	323712	193936
328	342528	228560
336	264032	180848
344	280656	192864
352	305536	200368
360	307008	188768
368	245552	166560
376	260992	171696
384	279056	182128
392	306480	227072
400	364352	301056
408	369504	289680
416	351648	287584
424	288080	214208
432	220832	154720
440	215792	145712
448	202288	150848
456	217568	167552
464	227120	179424
472	230544	184784
480	227568	184000
488	207456	155808
496	193456	164160
504	200640	160880
512	310256	240176
528	290592	220624
544	231568	180832
560	239824	190976
576	208896	156816
592	190224	121328
608	230128	166064
624	185104	128192
640	155152	113216
656	146144	114000
672	192512	136048
688	154784	111312
704	229632	171360
720	211552	182480
736	195264	161952
752	276528	245408
768	284160	248464
784	399024	370656
800	299408	249520
816	240160	219728
832	161120	142880
848	148992	121392
864	148528	121056
880	135152	93472
896	127840	100752
912	171840	143568
928	170656	151584
944	158416	142032
960	107456	90736
976	112720	92080
992	84320	70160
1008	108144	82944
1024	245376	194272
1056	244384	199104
1088	169312	119440
1120	153648	112576
1152	138304	104000
1184	187120	139504
1216	199520	166368
1248	250000	225792
1280	275536	235168
1312	360464	276608
1344	164320	127296
1376	147344	105376
1408	153728	133504
1440	143712	112640
1472	112976	88544
1504	96528	71856
1536	127840	92544
1568	162400	93616
1600	155568	103152
1632	174512	103632
1664	172672	112688
1696	168592	115776
1728	185440	143744
1760	138784	99568
1792	169280	123168
1824	302176	251200
1856	222960	188768
1888	224640	191168
1920	103568	85520
1952	83200	61056
1984	71616	48288
2016	65968	46752
2048	130576	100480
2112	166624	129168
2176	119216	98928
2240	111808	89104
2304	131760	94976
2368	147968	100640
2432	133392	81328
2496	120400	69664
2560	147456	87152
2624	142736	78464
2688	127296	77536
2752	99376	76272
2816	133648	106416
2880	268448	230576
2944	169664	140288
3008	76544	54448
3072	74912	50592
3136	72384	46464
3200	81216	59024
3264	81600	56304
3328	87440	63536
3392	82432	55520
3456	83648	53536
3520	78784	48608
3584	75696	48720
3648	88048	58272
3712	86544	64864
3776	74848	61216
3840	60208	47920
3904	69280	54832
3968	124880	112912
4032	144832	131232
4096	113824	95808
4224	98656	80448
4352	98176	75824
4480	96768	76496
4608	89008	69488
4736	97440	79312
4864	93200	70960
4992	80832	60896
5120	94048	71488
5248	85952	67664
5376	84416	66848
5504	83072	65056
5632	77744	61968
5760	77920	59104
5888	78272	58720
6016	73984	57312
6144	81648	63904
6272	79840	63584
6400	78608	61472
6528	75952	59200
6656	79408	61408
6784	71456	54000
6912	73792	56432
7040	77344	57888
7168	82336	64848
7296	72592	58048
7424	66192	50784
7552	66912	50336
7680	70448	54160
7808	65456	48320
7936	66192	49616
8064	58960	43264
8192	110224	80464
8448	115808	82928
8704	109600	78672
8960	117760	83680
9216	110544	77408
9472	122640	89984
9728	123744	90560
9984	118144	86112
10240	108128	77824
10496	109136	80304
10752	96208	68816
11008	87152	64400
11264	89472	66544
11520	92256	66960
11776	93168	67584
12032	88672	66208
12288	85120	62048
12544	84896	61744
12800	85968	63728
13056	85360	65120
13312	85152	63616
13568	85376	64464
13824	85424	63984
14080	84544	60368
14336	89072	65088
14592	87792	65056
14848	88304	66832
15104	84160	60944
15360	80800	57456
15616	78160	54416
15872	74640	52064
16128	68288	47888
16384	143664	101440
16896	132704	93616
17408	124848	83616
17920	129440	86320
18432	120736	82272
18944	116688	77840
19456	115568	76960
19968	128704	86848
20480	124752	85104
20992	99808	67024
21504	104016	66032
22016	100448	65440
22528	89312	55024
23040	90784	57344
23552	93584	58608
24064	90912	57040
24576	71152	41040
25088	69120	35360
25600	67232	33904
26112	67584	37472
26624	75680	44080
27136	68784	36992
27648	68032	38496
28160	67152	38688
28672	63024	35936
29184	70736	44656
29696	65248	40336
30208	73024	45072
30720	68112	42016
31232	66144	41216
31744	76016	50432
32256	55200	32640
32768	99056	49056
33792	86528	43168
34816	79328	38704
35840	84256	38048
36864	95968	39840
37888	88224	32560
38912	86720	33008
39936	80592	28512
40960	72240	23312
41984	74336	32496
43008	87408	43552
44032	67184	27072
45056	66560	27056
46080	75728	35680
47104	78816	40288
48128	62656	26496
49152	60160	23248
50176	57984	24912
51200	48080	18048
52224	43440	17120
53248	41776	16160
54272	40256	13040
55296	36048	12560
56320	33760	11776
57344	33536	11808
58368	35920	11488
59392	34368	10992
60416	29680	9024
61440	27840	8336
62464	25472	7024
63488	32656	9968
64512	28592	9984
65536	57568	18128
67584	62896	19216
69632	72880	21280
71680	69520	13312
73728	73296	13296
75776	71056	12368
77824	62976	13152
79872	49520	12496
81920	43696	9984
83968	35744	8096
86016	36464	10432
88064	41712	16208
90112	47232	17408
92160	44352	17216
94208	34752	14336
96256	25072	6752
98304	29504	4656
100352	39024	6272
102400	36592	4464
104448	36112	7088
106496	30176	6208
108544	36048	6464
110592	35808	4896
112640	37808	4208
114688	39312	6800
116736	44448	4256
118784	38864	5184
120832	31824	3808
122880	30144	4400
124928	32800	3568
126976	24000	4928
129024	18592	7040
131072	44224	12864
135168	24848	7216
139264	24272	6240
143360	18176	5472
147456	21808	4736
151552	24464	3360
155648	25424	3104
159744	26096	3120
163840	24272	5488
167936	27952	3392
172032	31472	3088
176128	39280	3808
180224	29808	3232
184320	21120	4752
188416	20032	4416
192512	26272	5936
196608	32336	11984
200704	41184	8752
204800	39888	3104
208896	35088	3360
212992	25088	4672
217088	27616	3776
221184	25920	2880
225280	18912	2448
229376	18160	2928
233472	15968	2816
237568	19120	1952
241664	25760	2656
245760	14400	1504
249856	12624	3344
253952	13168	2448
258048	11856	3824
262144	15280	6192
270336	27280	13232
278528	11584	5888
286720	13968	3488
294912	18464	5760
303104	20816	3648
311296	24288	4336
319488	33408	6672
327680	22608	3056
335872	20352	4032
344064	15520	4976
352256	9376	4464
360448	13008	5504
368640	18912	5456
376832	9952	4768
385024	8944	2640
393216	12592	5072
401408	13152	2896
409600	17440	2896
417792	22848	2768
425984	11136	2944
434176	17184	3184
442368	24688	2928
450560	12752	5248
458752	12592	4704
466944	12512	3264
475136	11808	2112
483328	9904	3552
491520	13120	4112
499712	22464	3488
507904	14512	3200
516096	14304	2464
524288	15664	3440
540672	11184	3744
557056	14704	2736
573440	24848	4512
589824	19104	7472
606208	8768	4320
622592	7536	3520
638976	7392	4256
655360	15744	3712
671744	8672	2432
688128	13360	3328
704512	31648	3024
720896	8416	4352
737280	9536	4000
753664	9536	2976
770048	15168	5200
786432	7536	3072
802816	6224	2112
819200	3232	1968
835584	4224	3024
851968	16368	4032
868352	10752	2320
884736	12544	4192
901120	16976	4176
917504	9280	2224
933888	9344	2320
950272	13632	4880
966656	16416	4256
983040	13952	2448
999424	15568	2064
1015808	4960	2816
1032192	3056	2432
1048576	8448	3872
1081344	6800	4848
1114112	16848	3024
1146880	28896	5136
1179648	8320	3712
1212416	5472	2992
1245184	16512	2288
1277952	7952	2800
1310720	7472	3632
1343488	6064	4912
1376256	4976	3408
1409024	7232	4368
1441792	9952	4432
1474560	9008	5904
1507328	9840	1872
1540096	7216	3488
1572864	4144	2608
1605632	3776	2016
1638400	2176	1744
1671168	5984	2928
1703936	5584	2704
1736704	2048	1728
1769472	2288	2016
1802240	4096	2736
1835008	2656	1920
1867776	2320	2272
1900544	3344	1584
1933312	4704	2720
1966080	2032	1744
1998848	3648	1872
2031616	3136	1712
2064384	3424	2080
2097152	7984	2976
2162688	8048	5040
2228224	5776	3200
2293760	4896	2464
2359296	4160	2992
2424832	2928	1424
2490368	5920	1504
2555904	1872	944
2621440	2400	1216
2686976	4080	1408
2752512	5072	1376
2818048	2400	1312
2883584	4048	1968
2949120	1040	880
3014656	1504	880
3080192	2768	2560
3145728	2640	848
3211264	2000	544
3276800	3216	1344
3342336	1392	1280
3407872	1168	576
3473408	2224	864
3538944	1392	1072
3604480	752	688
3670016	1616	512
3735552	736	640
3801088	816	400
3866624	2544	1216
3932160	1536	560
3997696	800	352
4063232	416	400
4128768	256	192
4194304	3776	1248
4325376	1696	1600
4456448	2944	1440
4587520	2864	672
4718592	1392	1024
4849664	2544	1296
4980736	2896	1824
5111808	1744	1520
5242880	1424	992
5373952	1776	1408
5505024	2192	2128
5636096	1712	1040
5767168	2272	2000
5898240	1552	1504
6029312	3440	3440
6160384	2080	1792
6291456	2224	2176
6422528	3392	3392
6553600	1136	1088
6684672	4608	3760
6815744	2864	1568
6946816	2000	1232
7077888	1344	224
7208960	1520	1184
7340032	1184	288
7471104	2480	2272
7602176	1376	1344
7733248	1024	704
7864320	784	768
7995392	1248	1232
8126464	1632	1264
8257536	432	400
8388608	1024	864
8650752	2096	1408
8912896	896	896
9175040	1024	880
9437184	4128	2944
9699328	1760	1744
9961472	3376	3376
10223616	4896	4528
10485760	2336	1168
10747904	1568	1536
11010048	2160	2128
11272192	1088	336
11534336	2144	2080
11796480	1072	976
12058624	1072	1056
12320768	2288	2192
12582912	1024	1024
12845056	656	656
13107200	1168	912
13369344	944	896
13631488	1168	1168
13893632	1392	1392
14155776	1424	1408
14417920	1184	1184
14680064	1072	1072
14942208	672	416
15204352	672	496
15466496	1120	368
15728640	96	96
15990784	752	688
16252928	128	128
16515072	1712	1344
16777216	2064	1792
17301504	2784	2320
17825792	1312	1232
18350080	3936	3936
18874368	2080	2080
19398656	4592	4592
19922944	1776	1744
20447232	3248	3248
20971520	2544	2480
21495808	2352	2352
22020096	3744	1936
22544384	3008	2944
23068672	1952	1648
23592960	912	912
24117248	1856	1520
24641536	1600	1600
25165824	528	528
25690112	560	160
26214400	592	592
26738688	784	784
27262976	352	352
27787264	1696	1696
28311552	1680	1680
28835840	816	816
29360128	368	368
29884416	960	960
30408704	624	624
30932992	4384	4384
31457280	3632	3632
31981568	448	384
32505856	656	448
33030144	1632	1632
33554432	1296	1296
34603008	9680	9680
35651584	1168	1168
36700160	2224	2224
37748736	944	944
38797312	1472	1472
39845888	1376	1376
40894464	1456	1456
41943040	1552	1552
42991616	2464	2464
44040192	3408	3408
45088768	1904	1904
46137344	1504	1504
47185920	1792	1792
48234496	2160	2160
49283072	1456	1456
50331648	976	976
51380224	1840	1840
52428800	1088	1088
53477376	1168	1168
54525952	2000	2000
55574528	5968	5968
56623104	2240	2240
57671680	1232	1232
58720256	784	784
59768832	1040	1040
60817408	336	336
61865984	368	368
62914560	176	176
63963136	1424	192
65011712	384	272
66060288	368	352
67108864	1728	1136
69206016	1296	1296
71303168	1504	1504
73400320	784	784
75497472	768	768
77594624	368	368
79691776	144	144
81788928	336	336
83886080	16	16
85983232	0	0
88080384	0	0
90177536	0	0
92274688	0	0
94371840	0	0
96468992	0	0
98566144	0	0
100663296	0	0
102760448	0	0
104857600	0	0
106954752	32	32
109051904	0	0
111149056	0	0
113246208	0	0
115343360	0	0
117440512	0	0
119537664	0	0
121634816	32	32
123731968	0	0
125829120	0	0
127926272	0	0
130023424	0	0
132120576	0	0
134217728	0	0
138412032	0	0
142606336	0	0
146800640	0	0
150994944	16	16
155189248	16	16
159383552	0	0
163577856	0	0
167772160	0	0
171966464	0	0
176160768	0	0
180355072	144	0
184549376	192	0
188743680	0	0
192937984	208	0
197132288	0	0
201326592	0	0
205520896	0	0
209715200	0	0
213909504	0	0
218103808	0	0
222298112	0	0
226492416	0	0
230686720	0	0
234881024	0	0
239075328	0	0
243269632	0	0
247463936	0	0
251658240	0	0
255852544	0	0
260046848	0	0
264241152	0	0
268435456	0	0
276824064	0	0
285212672	0	0
293601280	0	0
301989888	0	0
310378496	0	0
318767104	0	0
327155712	0	0
335544320	0	0
343932928	0	0
352321536	0	0
360710144	0	0
369098752	0	0
377487360	0	0
385875968	0	0
394264576	0	0
402653184	0	0
411041792	0	0
419430400	0	0
427819008	0	0
436207616	0	0
444596224	0	0
452984832	0	0
461373440	0	0
469762048	0	0
478150656	0	0
486539264	0	0
494927872	0	0
503316480	0	0
511705088	0	0
520093696	0	0
528482304	0	0
536870912	0	0
553648128	0	0
570425344	0	0
587202560	0	0
603979776	0	0
620756992	0	0
637534208	0	0
654311424	0	0
671088640	0	0
687865856	0	0
704643072	0	0
721420288	0	0
738197504	0	0
754974720	0	0
771751936	0	0
788529152	0	0
805306368	0	0
822083584	0	0
838860800	0	0
855638016	0	0
872415232	0	0
889192448	0	0
905969664	0	0
922746880	0	0
939524096	0	0
956301312	0	0
973078528	0	0
989855744	0	0
1006632960	0	0
1023410176	0	0
1040187392	0	0
1056964608	0	0
1073741824	0	0
1107296256	0	0
1140850688	0	0
1174405120	0	0
1207959552	0	0
1241513984	0	0
1275068416	0	0
1308622848	0	0
1342177280	0	0
1375731712	0	0
1409286144	0	0
1442840576	0	0
1476395008	0	0
1509949440	0	0
1543503872	0	0
1577058304	0	0
1610612736	0	0
1644167168	0	0
1677721600	0	0
1711276032	0	0
1744830464	0	0
1778384896	0	0
1811939328	0	0
1845493760	0	0
1879048192	0	0
1912602624	0	0
1946157056	0	0
1979711488	0	0
2013265920	0	0
2046820352	0	0
2080374784	0	0
2113929216	0	0
2147483648	0	0
2214592512	0	0
2281701376	0	0
2348810240	0	0
2415919104	0	0
2483027968	0	0
2550136832	0	0
2617245696	0	0
2684354560	0	0
2751463424	0	0
2818572288	0	0
2885681152	0	0
2952790016	0	0
3019898880	0	0
3087007744	0	0
3154116608	0	0
3221225472	0	0
3288334336	0	0
3355443200	0	0
3422552064	0	0
3489660928	0	0
3556769792	0	0
3623878656	0	0
3690987520	0	0
3758096384	0	0
3825205248	0	0
3892314112	0	0
3959422976	0	0
4026531840	0	0
4093640704	0	0
4160749568	0	0
4227858432	0	0
~~~~~~~~~~Reuse Distance Profiler output end~~~~~~~~~~

Sampler size:1255

DRAM Statistics
 CHANNEL 0
 RQ ROW_BUFFER_HIT:       2667  ROW_BUFFER_MISS:       8151
 DBUS AVG_CONGESTED_CYCLE:    3.77453
 WQ ROW_BUFFER_HIT:          0  ROW_BUFFER_MISS:          0  FULL:          0


CPU 0 Branch Prediction Accuracy: 86.9688% MPKI: 13.9511 Average ROB Occupancy at Mispredict: 108.083
Branch type MPKI
BRANCH_DIRECT_JUMP: 7.46667e-05
BRANCH_INDIRECT: 0.007474
BRANCH_CONDITIONAL: 13.9434
BRANCH_DIRECT_CALL: 8.06667e-05
BRANCH_INDIRECT_CALL: 0
BRANCH_RETURN: 5.13333e-05

