
*** ChampSim Multicore Out-of-Order Simulator ***

Warmup Instructions: 50000000
Simulation Instructions: 1500000000
Number of CPUs: 1
Off-chip DRAM Size: 4 GiB Channels: 1 Width: 64-bit Data Rate: 3200 MT/s

VirtualMemory physical capacity: 8588881920 num_ppages: 2096895
VirtualMemory page size: 4096 log2_page_size: 12

CPU 0 runs /s/traces/champsim_traces/473.astar-42B.champsimtrace.xz
CPU 0 Bimodal branch predictor
Basic BTB sets: 1024 ways: 8 indirect buffer size: 4096 RAS size: 64
Initializing LRU.
Initializing LRU.
Initializing LRU.
Initializing LRU.
Initializing rdLRU.
Initializing LRU.
Initializing LRU.
Heartbeat CPU 0 instructions: 2000003 cycles: 588240 heartbeat IPC: 3.39998 cumulative IPC: 3.39998 (Simulation time: 0 hr 1 min 35 sec) 
Heartbeat CPU 0 instructions: 4000004 cycles: 1173495 heartbeat IPC: 3.41732 cumulative IPC: 3.40862 (Simulation time: 0 hr 3 min 1 sec) 
Heartbeat CPU 0 instructions: 6000000 cycles: 1758750 heartbeat IPC: 3.41731 cumulative IPC: 3.41151 (Simulation time: 0 hr 4 min 34 sec) 
Heartbeat CPU 0 instructions: 8000004 cycles: 2339766 heartbeat IPC: 3.44225 cumulative IPC: 3.41915 (Simulation time: 0 hr 6 min 7 sec) 
Heartbeat CPU 0 instructions: 10000004 cycles: 2926868 heartbeat IPC: 3.40656 cumulative IPC: 3.41662 (Simulation time: 0 hr 7 min 40 sec) 
Heartbeat CPU 0 instructions: 12000000 cycles: 3507366 heartbeat IPC: 3.44531 cumulative IPC: 3.42137 (Simulation time: 0 hr 9 min 9 sec) 
Heartbeat CPU 0 instructions: 14000000 cycles: 4082555 heartbeat IPC: 3.47712 cumulative IPC: 3.42922 (Simulation time: 0 hr 10 min 36 sec) 
Heartbeat CPU 0 instructions: 16000003 cycles: 4653805 heartbeat IPC: 3.5011 cumulative IPC: 3.43805 (Simulation time: 0 hr 12 min 6 sec) 
Heartbeat CPU 0 instructions: 18000003 cycles: 5220588 heartbeat IPC: 3.52869 cumulative IPC: 3.44789 (Simulation time: 0 hr 13 min 34 sec) 
Heartbeat CPU 0 instructions: 20000001 cycles: 5777830 heartbeat IPC: 3.5891 cumulative IPC: 3.46151 (Simulation time: 0 hr 15 min 3 sec) 
Heartbeat CPU 0 instructions: 22000002 cycles: 6343784 heartbeat IPC: 3.53386 cumulative IPC: 3.46796 (Simulation time: 0 hr 16 min 33 sec) 
Heartbeat CPU 0 instructions: 24000003 cycles: 6913285 heartbeat IPC: 3.51185 cumulative IPC: 3.47158 (Simulation time: 0 hr 18 min 0 sec) 
Heartbeat CPU 0 instructions: 26000003 cycles: 7492371 heartbeat IPC: 3.45372 cumulative IPC: 3.4702 (Simulation time: 0 hr 19 min 29 sec) 
Heartbeat CPU 0 instructions: 28000004 cycles: 8072345 heartbeat IPC: 3.44843 cumulative IPC: 3.46863 (Simulation time: 0 hr 20 min 59 sec) 
Heartbeat CPU 0 instructions: 30000002 cycles: 8657915 heartbeat IPC: 3.41547 cumulative IPC: 3.46504 (Simulation time: 0 hr 22 min 23 sec) 
Heartbeat CPU 0 instructions: 32000003 cycles: 9233542 heartbeat IPC: 3.47447 cumulative IPC: 3.46563 (Simulation time: 0 hr 23 min 33 sec) 
Heartbeat CPU 0 instructions: 34000002 cycles: 9810242 heartbeat IPC: 3.46801 cumulative IPC: 3.46577 (Simulation time: 0 hr 24 min 48 sec) 
Heartbeat CPU 0 instructions: 36000000 cycles: 10396569 heartbeat IPC: 3.41106 cumulative IPC: 3.46268 (Simulation time: 0 hr 26 min 13 sec) 
Heartbeat CPU 0 instructions: 38000000 cycles: 10982759 heartbeat IPC: 3.41186 cumulative IPC: 3.45997 (Simulation time: 0 hr 27 min 38 sec) 
Heartbeat CPU 0 instructions: 40000001 cycles: 11563749 heartbeat IPC: 3.4424 cumulative IPC: 3.45909 (Simulation time: 0 hr 29 min 7 sec) 
Heartbeat CPU 0 instructions: 42000003 cycles: 12141251 heartbeat IPC: 3.46319 cumulative IPC: 3.45928 (Simulation time: 0 hr 30 min 30 sec) 
Heartbeat CPU 0 instructions: 44000000 cycles: 12712575 heartbeat IPC: 3.50064 cumulative IPC: 3.46114 (Simulation time: 0 hr 31 min 50 sec) 
Heartbeat CPU 0 instructions: 46000001 cycles: 13290305 heartbeat IPC: 3.46183 cumulative IPC: 3.46117 (Simulation time: 0 hr 33 min 16 sec) 
Heartbeat CPU 0 instructions: 48000001 cycles: 13875990 heartbeat IPC: 3.4148 cumulative IPC: 3.45921 (Simulation time: 0 hr 34 min 43 sec) 
Heartbeat CPU 0 instructions: 50000004 cycles: 14460601 heartbeat IPC: 3.42108 cumulative IPC: 3.45767 (Simulation time: 0 hr 36 min 7 sec) 

Warmup complete CPU 0 instructions: 50000004 cycles: 14460601 (Simulation time: 0 hr 36 min 7 sec) 

Heartbeat CPU 0 instructions: 52000000 cycles: 19566151 heartbeat IPC: 0.39173 cumulative IPC: 0.39173 (Simulation time: 0 hr 37 min 35 sec) 

Region of Interest Statistics
cpu0_DTLB TOTAL     ACCESS:     501945  HIT:     449478  MISS:      52467
cpu0_DTLB LOAD      ACCESS:     447104  HIT:     400309  MISS:      46795
cpu0_DTLB RFO       ACCESS:      54841  HIT:      49169  MISS:       5672
cpu0_DTLB PREFETCH  ACCESS:          0  HIT:          0  MISS:          0
cpu0_DTLB WRITEBACK ACCESS:          0  HIT:          0  MISS:          0
cpu0_ITLB TOTAL     ACCESS:     258746  HIT:     258746  MISS:          0
cpu0_ITLB LOAD      ACCESS:     258746  HIT:     258746  MISS:          0
cpu0_ITLB RFO       ACCESS:          0  HIT:          0  MISS:          0
cpu0_ITLB PREFETCH  ACCESS:          0  HIT:          0  MISS:          0
cpu0_ITLB WRITEBACK ACCESS:          0  HIT:          0  MISS:          0
cpu0_L1I TOTAL     ACCESS:          7  HIT:          7  MISS:          0
cpu0_L1I LOAD      ACCESS:          7  HIT:          7  MISS:          0
cpu0_L1I RFO       ACCESS:          0  HIT:          0  MISS:          0
cpu0_L1I PREFETCH  ACCESS:          0  HIT:          0  MISS:          0
cpu0_L1I WRITEBACK ACCESS:          0  HIT:          0  MISS:          0
cpu0_STLB TOTAL     ACCESS:      52467  HIT:      52124  MISS:        343
cpu0_STLB LOAD      ACCESS:      46795  HIT:      46492  MISS:        303
cpu0_STLB RFO       ACCESS:       5672  HIT:       5632  MISS:         40
cpu0_STLB PREFETCH  ACCESS:          0  HIT:          0  MISS:          0
cpu0_STLB WRITEBACK ACCESS:          0  HIT:          0  MISS:          0
cpu0_L1D TOTAL     ACCESS:     494274  HIT:     434244  MISS:      60030
cpu0_L1D LOAD      ACCESS:     408672  HIT:     349023  MISS:      59649
cpu0_L1D RFO       ACCESS:      85259  HIT:      84916  MISS:        343
cpu0_L1D PREFETCH  ACCESS:          0  HIT:          0  MISS:          0
cpu0_L1D WRITEBACK ACCESS:          0  HIT:          0  MISS:          0
cpu0_L2C TOTAL     ACCESS:      79572  HIT:      23906  MISS:      55666
cpu0_L2C LOAD      ACCESS:      59645  HIT:       4726  MISS:      54919
cpu0_L2C RFO       ACCESS:        343  HIT:         75  MISS:        268
cpu0_L2C PREFETCH  ACCESS:          0  HIT:          0  MISS:          0
cpu0_L2C WRITEBACK ACCESS:      19546  HIT:      19103  MISS:        443
LLC TOTAL     ACCESS:      73629  HIT:      69046  MISS:       4583
LLC LOAD      ACCESS:      54919  HIT:      50336  MISS:       4583
LLC RFO       ACCESS:        268  HIT:        268  MISS:          0
LLC PREFETCH  ACCESS:          0  HIT:          0  MISS:          0
LLC WRITEBACK ACCESS:      18406  HIT:      18406  MISS:          0
Heartbeat CPU 0 instructions: 54000002 cycles: 24627559 heartbeat IPC: 0.395147 cumulative IPC: 0.393431 (Simulation time: 0 hr 39 min 0 sec) 

Region of Interest Statistics
cpu0_DTLB TOTAL     ACCESS:    1001617  HIT:     899395  MISS:     102222
cpu0_DTLB LOAD      ACCESS:     892195  HIT:     800507  MISS:      91688
cpu0_DTLB RFO       ACCESS:     109422  HIT:      98888  MISS:      10534
cpu0_DTLB PREFETCH  ACCESS:          0  HIT:          0  MISS:          0
cpu0_DTLB WRITEBACK ACCESS:          0  HIT:          0  MISS:          0
cpu0_ITLB TOTAL     ACCESS:     517315  HIT:     517315  MISS:          0
cpu0_ITLB LOAD      ACCESS:     517315  HIT:     517315  MISS:          0
cpu0_ITLB RFO       ACCESS:          0  HIT:          0  MISS:          0
cpu0_ITLB PREFETCH  ACCESS:          0  HIT:          0  MISS:          0
cpu0_ITLB WRITEBACK ACCESS:          0  HIT:          0  MISS:          0
cpu0_L1I TOTAL     ACCESS:         16  HIT:         16  MISS:          0
cpu0_L1I LOAD      ACCESS:         16  HIT:         16  MISS:          0
cpu0_L1I RFO       ACCESS:          0  HIT:          0  MISS:          0
cpu0_L1I PREFETCH  ACCESS:          0  HIT:          0  MISS:          0
cpu0_L1I WRITEBACK ACCESS:          0  HIT:          0  MISS:          0
cpu0_STLB TOTAL     ACCESS:     102222  HIT:     101619  MISS:        603
cpu0_STLB LOAD      ACCESS:      91688  HIT:      91128  MISS:        560
cpu0_STLB RFO       ACCESS:      10534  HIT:      10491  MISS:         43
cpu0_STLB PREFETCH  ACCESS:          0  HIT:          0  MISS:          0
cpu0_STLB WRITEBACK ACCESS:          0  HIT:          0  MISS:          0
cpu0_L1D TOTAL     ACCESS:     986140  HIT:     868888  MISS:     117252
cpu0_L1D LOAD      ACCESS:     815091  HIT:     698553  MISS:     116538
cpu0_L1D RFO       ACCESS:     170446  HIT:     169770  MISS:        676
cpu0_L1D PREFETCH  ACCESS:          0  HIT:          0  MISS:          0
cpu0_L1D WRITEBACK ACCESS:          0  HIT:          0  MISS:          0
cpu0_L2C TOTAL     ACCESS:     155792  HIT:      47291  MISS:     108501
cpu0_L2C LOAD      ACCESS:     116529  HIT:       9453  MISS:     107076
cpu0_L2C RFO       ACCESS:        676  HIT:        175  MISS:        501
cpu0_L2C PREFETCH  ACCESS:          0  HIT:          0  MISS:          0
cpu0_L2C WRITEBACK ACCESS:      38549  HIT:      37661  MISS:        888
LLC TOTAL     ACCESS:     143692  HIT:     134495  MISS:       9197
LLC LOAD      ACCESS:     107070  HIT:      97873  MISS:       9197
LLC RFO       ACCESS:        501  HIT:        501  MISS:          0
LLC PREFETCH  ACCESS:          0  HIT:          0  MISS:          0
LLC WRITEBACK ACCESS:      36085  HIT:      36085  MISS:          0
Heartbeat CPU 0 instructions: 56000002 cycles: 29085891 heartbeat IPC: 0.448598 cumulative IPC: 0.410248 (Simulation time: 0 hr 40 min 22 sec) 

Region of Interest Statistics
cpu0_DTLB TOTAL     ACCESS:    1446682  HIT:    1308313  MISS:     138369
cpu0_DTLB LOAD      ACCESS:    1274995  HIT:    1148527  MISS:     126468
cpu0_DTLB RFO       ACCESS:     171687  HIT:     159786  MISS:      11901
cpu0_DTLB PREFETCH  ACCESS:          0  HIT:          0  MISS:          0
cpu0_DTLB WRITEBACK ACCESS:          0  HIT:          0  MISS:          0
cpu0_ITLB TOTAL     ACCESS:     762472  HIT:     762464  MISS:          8
cpu0_ITLB LOAD      ACCESS:     762472  HIT:     762464  MISS:          8
cpu0_ITLB RFO       ACCESS:          0  HIT:          0  MISS:          0
cpu0_ITLB PREFETCH  ACCESS:          0  HIT:          0  MISS:          0
cpu0_ITLB WRITEBACK ACCESS:          0  HIT:          0  MISS:          0
cpu0_L1I TOTAL     ACCESS:        223  HIT:        135  MISS:         88
cpu0_L1I LOAD      ACCESS:        223  HIT:        135  MISS:         88
cpu0_L1I RFO       ACCESS:          0  HIT:          0  MISS:          0
cpu0_L1I PREFETCH  ACCESS:          0  HIT:          0  MISS:          0
cpu0_L1I WRITEBACK ACCESS:          0  HIT:          0  MISS:          0
cpu0_STLB TOTAL     ACCESS:     138378  HIT:     135724  MISS:       2654
cpu0_STLB LOAD      ACCESS:     126477  HIT:     123908  MISS:       2569
cpu0_STLB RFO       ACCESS:      11901  HIT:      11816  MISS:         85
cpu0_STLB PREFETCH  ACCESS:          0  HIT:          0  MISS:          0
cpu0_STLB WRITEBACK ACCESS:          0  HIT:          0  MISS:          0
cpu0_L1D TOTAL     ACCESS:    1432895  HIT:    1269764  MISS:     163131
cpu0_L1D LOAD      ACCESS:    1171343  HIT:    1009652  MISS:     161691
cpu0_L1D RFO       ACCESS:     258982  HIT:     257641  MISS:       1341
cpu0_L1D PREFETCH  ACCESS:          0  HIT:          0  MISS:          0
cpu0_L1D WRITEBACK ACCESS:          0  HIT:          0  MISS:          0
cpu0_L2C TOTAL     ACCESS:     215620  HIT:      70364  MISS:     145256
cpu0_L2C LOAD      ACCESS:     161765  HIT:      18629  MISS:     143136
cpu0_L2C RFO       ACCESS:       1341  HIT:        448  MISS:        893
cpu0_L2C PREFETCH  ACCESS:          0  HIT:          0  MISS:          0
cpu0_L2C WRITEBACK ACCESS:      52415  HIT:      51269  MISS:       1146
LLC TOTAL     ACCESS:     191613  HIT:     177061  MISS:      14552
LLC LOAD      ACCESS:     143128  HIT:     128778  MISS:      14350
LLC RFO       ACCESS:        893  HIT:        698  MISS:        195
LLC PREFETCH  ACCESS:          0  HIT:          0  MISS:          0
LLC WRITEBACK ACCESS:      47511  HIT:      47511  MISS:          0
Heartbeat CPU 0 instructions: 58000003 cycles: 33838434 heartbeat IPC: 0.420828 cumulative IPC: 0.412843 (Simulation time: 0 hr 41 min 40 sec) 

Region of Interest Statistics
cpu0_DTLB TOTAL     ACCESS:    1958718  HIT:    1784019  MISS:     174699
cpu0_DTLB LOAD      ACCESS:    1730733  HIT:    1571385  MISS:     159348
cpu0_DTLB RFO       ACCESS:     227985  HIT:     212634  MISS:      15351
cpu0_DTLB PREFETCH  ACCESS:          0  HIT:          0  MISS:          0
cpu0_DTLB WRITEBACK ACCESS:          0  HIT:          0  MISS:          0
cpu0_ITLB TOTAL     ACCESS:    1022137  HIT:    1022129  MISS:          8
cpu0_ITLB LOAD      ACCESS:    1022137  HIT:    1022129  MISS:          8
cpu0_ITLB RFO       ACCESS:          0  HIT:          0  MISS:          0
cpu0_ITLB PREFETCH  ACCESS:          0  HIT:          0  MISS:          0
cpu0_ITLB WRITEBACK ACCESS:          0  HIT:          0  MISS:          0
cpu0_L1I TOTAL     ACCESS:        749  HIT:        644  MISS:        105
cpu0_L1I LOAD      ACCESS:        749  HIT:        644  MISS:        105
cpu0_L1I RFO       ACCESS:          0  HIT:          0  MISS:          0
cpu0_L1I PREFETCH  ACCESS:          0  HIT:          0  MISS:          0
cpu0_L1I WRITEBACK ACCESS:          0  HIT:          0  MISS:          0
cpu0_STLB TOTAL     ACCESS:     174707  HIT:     171537  MISS:       3170
cpu0_STLB LOAD      ACCESS:     159356  HIT:     156311  MISS:       3045
cpu0_STLB RFO       ACCESS:      15351  HIT:      15226  MISS:        125
cpu0_STLB PREFETCH  ACCESS:          0  HIT:          0  MISS:          0
cpu0_STLB WRITEBACK ACCESS:          0  HIT:          0  MISS:          0
cpu0_L1D TOTAL     ACCESS:    1935399  HIT:    1726812  MISS:     208587
cpu0_L1D LOAD      ACCESS:    1587592  HIT:    1380595  MISS:     206997
cpu0_L1D RFO       ACCESS:     344766  HIT:     343280  MISS:       1486
cpu0_L1D PREFETCH  ACCESS:          0  HIT:          0  MISS:          0
cpu0_L1D WRITEBACK ACCESS:          0  HIT:          0  MISS:          0
cpu0_L2C TOTAL     ACCESS:     275322  HIT:      95735  MISS:     179587
cpu0_L2C LOAD      ACCESS:     207079  HIT:      29725  MISS:     177354
cpu0_L2C RFO       ACCESS:       1486  HIT:        516  MISS:        970
cpu0_L2C PREFETCH  ACCESS:          0  HIT:          0  MISS:          0
cpu0_L2C WRITEBACK ACCESS:      66653  HIT:      65476  MISS:       1177
LLC TOTAL     ACCESS:     236879  HIT:     217717  MISS:      19162
LLC LOAD      ACCESS:     177343  HIT:     158397  MISS:      18946
LLC RFO       ACCESS:        970  HIT:        762  MISS:        208
LLC PREFETCH  ACCESS:          0  HIT:          0  MISS:          0
LLC WRITEBACK ACCESS:      58480  HIT:      58480  MISS:          0
Heartbeat CPU 0 instructions: 60000001 cycles: 38698587 heartbeat IPC: 0.411509 cumulative IPC: 0.412575 (Simulation time: 0 hr 43 min 5 sec) 

Region of Interest Statistics
cpu0_DTLB TOTAL     ACCESS:    2466925  HIT:    2246811  MISS:     220114
cpu0_DTLB LOAD      ACCESS:    2183364  HIT:    1984532  MISS:     198832
cpu0_DTLB RFO       ACCESS:     283561  HIT:     262279  MISS:      21282
cpu0_DTLB PREFETCH  ACCESS:          0  HIT:          0  MISS:          0
cpu0_DTLB WRITEBACK ACCESS:          0  HIT:          0  MISS:          0
cpu0_ITLB TOTAL     ACCESS:    1282130  HIT:    1282122  MISS:          8
cpu0_ITLB LOAD      ACCESS:    1282130  HIT:    1282122  MISS:          8
cpu0_ITLB RFO       ACCESS:          0  HIT:          0  MISS:          0
cpu0_ITLB PREFETCH  ACCESS:          0  HIT:          0  MISS:          0
cpu0_ITLB WRITEBACK ACCESS:          0  HIT:          0  MISS:          0
cpu0_L1I TOTAL     ACCESS:        781  HIT:        676  MISS:        105
cpu0_L1I LOAD      ACCESS:        781  HIT:        676  MISS:        105
cpu0_L1I RFO       ACCESS:          0  HIT:          0  MISS:          0
cpu0_L1I PREFETCH  ACCESS:          0  HIT:          0  MISS:          0
cpu0_L1I WRITEBACK ACCESS:          0  HIT:          0  MISS:          0
cpu0_STLB TOTAL     ACCESS:     220122  HIT:     216613  MISS:       3509
cpu0_STLB LOAD      ACCESS:     198840  HIT:     195469  MISS:       3371
cpu0_STLB RFO       ACCESS:      21282  HIT:      21144  MISS:        138
cpu0_STLB PREFETCH  ACCESS:          0  HIT:          0  MISS:          0
cpu0_STLB WRITEBACK ACCESS:          0  HIT:          0  MISS:          0
cpu0_L1D TOTAL     ACCESS:    2436024  HIT:    2174673  MISS:     261351
cpu0_L1D LOAD      ACCESS:    2002876  HIT:    1743360  MISS:     259516
cpu0_L1D RFO       ACCESS:     429809  HIT:     428078  MISS:       1731
cpu0_L1D PREFETCH  ACCESS:          0  HIT:          0  MISS:          0
cpu0_L1D WRITEBACK ACCESS:          0  HIT:          0  MISS:          0
cpu0_L2C TOTAL     ACCESS:     345152  HIT:     122331  MISS:     222821
cpu0_L2C LOAD      ACCESS:     259595  HIT:      39226  MISS:     220369
cpu0_L2C RFO       ACCESS:       1731  HIT:        597  MISS:       1134
cpu0_L2C PREFETCH  ACCESS:          0  HIT:          0  MISS:          0
cpu0_L2C WRITEBACK ACCESS:      83722  HIT:      82490  MISS:       1232
LLC TOTAL     ACCESS:     294205  HIT:     270696  MISS:      23509
LLC LOAD      ACCESS:     220356  HIT:     197063  MISS:      23293
LLC RFO       ACCESS:       1134  HIT:        926  MISS:        208
LLC PREFETCH  ACCESS:          0  HIT:          0  MISS:          0
LLC WRITEBACK ACCESS:      72629  HIT:      72629  MISS:          0
Heartbeat CPU 0 instructions: 62000003 cycles: 43515919 heartbeat IPC: 0.415168 cumulative IPC: 0.413005 (Simulation time: 0 hr 44 min 26 sec) 

Region of Interest Statistics
cpu0_DTLB TOTAL     ACCESS:    2965079  HIT:    2701342  MISS:     263737
cpu0_DTLB LOAD      ACCESS:    2626255  HIT:    2388178  MISS:     238077
cpu0_DTLB RFO       ACCESS:     338824  HIT:     313164  MISS:      25660
cpu0_DTLB PREFETCH  ACCESS:          0  HIT:          0  MISS:          0
cpu0_DTLB WRITEBACK ACCESS:          0  HIT:          0  MISS:          0
cpu0_ITLB TOTAL     ACCESS:    1539575  HIT:    1539567  MISS:          8
cpu0_ITLB LOAD      ACCESS:    1539575  HIT:    1539567  MISS:          8
cpu0_ITLB RFO       ACCESS:          0  HIT:          0  MISS:          0
cpu0_ITLB PREFETCH  ACCESS:          0  HIT:          0  MISS:          0
cpu0_ITLB WRITEBACK ACCESS:          0  HIT:          0  MISS:          0
cpu0_L1I TOTAL     ACCESS:        821  HIT:        716  MISS:        105
cpu0_L1I LOAD      ACCESS:        821  HIT:        716  MISS:        105
cpu0_L1I RFO       ACCESS:          0  HIT:          0  MISS:          0
cpu0_L1I PREFETCH  ACCESS:          0  HIT:          0  MISS:          0
cpu0_L1I WRITEBACK ACCESS:          0  HIT:          0  MISS:          0
cpu0_STLB TOTAL     ACCESS:     263745  HIT:     260053  MISS:       3692
cpu0_STLB LOAD      ACCESS:     238085  HIT:     234543  MISS:       3542
cpu0_STLB RFO       ACCESS:      25660  HIT:      25510  MISS:        150
cpu0_STLB PREFETCH  ACCESS:          0  HIT:          0  MISS:          0
cpu0_STLB WRITEBACK ACCESS:          0  HIT:          0  MISS:          0
cpu0_L1D TOTAL     ACCESS:    2926929  HIT:    2614728  MISS:     312201
cpu0_L1D LOAD      ACCESS:    2408005  HIT:    2098128  MISS:     309877
cpu0_L1D RFO       ACCESS:     515422  HIT:     513202  MISS:       2220
cpu0_L1D PREFETCH  ACCESS:          0  HIT:          0  MISS:          0
cpu0_L1D WRITEBACK ACCESS:          0  HIT:          0  MISS:          0
cpu0_L2C TOTAL     ACCESS:     413023  HIT:     144884  MISS:     268139
cpu0_L2C LOAD      ACCESS:     309954  HIT:      44679  MISS:     265275
cpu0_L2C RFO       ACCESS:       2218  HIT:        742  MISS:       1476
cpu0_L2C PREFETCH  ACCESS:          0  HIT:          0  MISS:          0
cpu0_L2C WRITEBACK ACCESS:     100747  HIT:      99445  MISS:       1302
LLC TOTAL     ACCESS:     354841  HIT:     326730  MISS:      28111
LLC LOAD      ACCESS:     265258  HIT:     237363  MISS:      27895
LLC RFO       ACCESS:       1476  HIT:       1268  MISS:        208
LLC PREFETCH  ACCESS:          0  HIT:          0  MISS:          0
LLC WRITEBACK ACCESS:      88021  HIT:      88021  MISS:          0
Heartbeat CPU 0 instructions: 64000000 cycles: 48393378 heartbeat IPC: 0.410049 cumulative IPC: 0.41258 (Simulation time: 0 hr 45 min 49 sec) 

Region of Interest Statistics
cpu0_DTLB TOTAL     ACCESS:    3468759  HIT:    3160096  MISS:     308663
cpu0_DTLB LOAD      ACCESS:    3074607  HIT:    2796912  MISS:     277695
cpu0_DTLB RFO       ACCESS:     394152  HIT:     363184  MISS:      30968
cpu0_DTLB PREFETCH  ACCESS:          0  HIT:          0  MISS:          0
cpu0_DTLB WRITEBACK ACCESS:          0  HIT:          0  MISS:          0
cpu0_ITLB TOTAL     ACCESS:    1798451  HIT:    1798443  MISS:          8
cpu0_ITLB LOAD      ACCESS:    1798451  HIT:    1798443  MISS:          8
cpu0_ITLB RFO       ACCESS:          0  HIT:          0  MISS:          0
cpu0_ITLB PREFETCH  ACCESS:          0  HIT:          0  MISS:          0
cpu0_ITLB WRITEBACK ACCESS:          0  HIT:          0  MISS:          0
cpu0_L1I TOTAL     ACCESS:        833  HIT:        728  MISS:        105
cpu0_L1I LOAD      ACCESS:        833  HIT:        728  MISS:        105
cpu0_L1I RFO       ACCESS:          0  HIT:          0  MISS:          0
cpu0_L1I PREFETCH  ACCESS:          0  HIT:          0  MISS:          0
cpu0_L1I WRITEBACK ACCESS:          0  HIT:          0  MISS:          0
cpu0_STLB TOTAL     ACCESS:     308671  HIT:     304683  MISS:       3988
cpu0_STLB LOAD      ACCESS:     277703  HIT:     273891  MISS:       3812
cpu0_STLB RFO       ACCESS:      30968  HIT:      30792  MISS:        176
cpu0_STLB PREFETCH  ACCESS:          0  HIT:          0  MISS:          0
cpu0_STLB WRITEBACK ACCESS:          0  HIT:          0  MISS:          0
cpu0_L1D TOTAL     ACCESS:    3422938  HIT:    3057470  MISS:     365468
cpu0_L1D LOAD      ACCESS:    2818520  HIT:    2456057  MISS:     362463
cpu0_L1D RFO       ACCESS:     600681  HIT:     597837  MISS:       2844
cpu0_L1D PREFETCH  ACCESS:          0  HIT:          0  MISS:          0
cpu0_L1D WRITEBACK ACCESS:          0  HIT:          0  MISS:          0
cpu0_L2C TOTAL     ACCESS:     483783  HIT:     168380  MISS:     315403
cpu0_L2C LOAD      ACCESS:     362535  HIT:      50539  MISS:     311996
cpu0_L2C RFO       ACCESS:       2842  HIT:        916  MISS:       1926
cpu0_L2C PREFETCH  ACCESS:          0  HIT:          0  MISS:          0
cpu0_L2C WRITEBACK ACCESS:     118245  HIT:     116892  MISS:       1353
LLC TOTAL     ACCESS:     417642  HIT:     385066  MISS:      32576
LLC LOAD      ACCESS:     311976  HIT:     279616  MISS:      32360
LLC RFO       ACCESS:       1926  HIT:       1718  MISS:        208
LLC PREFETCH  ACCESS:          0  HIT:          0  MISS:          0
LLC WRITEBACK ACCESS:     103612  HIT:     103612  MISS:          0
Heartbeat CPU 0 instructions: 66000003 cycles: 53235682 heartbeat IPC: 0.413027 cumulative IPC: 0.412636 (Simulation time: 0 hr 47 min 10 sec) 

Region of Interest Statistics
cpu0_DTLB TOTAL     ACCESS:    3968298  HIT:    3613002  MISS:     355296
cpu0_DTLB LOAD      ACCESS:    3519194  HIT:    3200118  MISS:     319076
cpu0_DTLB RFO       ACCESS:     449104  HIT:     412884  MISS:      36220
cpu0_DTLB PREFETCH  ACCESS:          0  HIT:          0  MISS:          0
cpu0_DTLB WRITEBACK ACCESS:          0  HIT:          0  MISS:          0
cpu0_ITLB TOTAL     ACCESS:    2055464  HIT:    2055456  MISS:          8
cpu0_ITLB LOAD      ACCESS:    2055464  HIT:    2055456  MISS:          8
cpu0_ITLB RFO       ACCESS:          0  HIT:          0  MISS:          0
cpu0_ITLB PREFETCH  ACCESS:          0  HIT:          0  MISS:          0
cpu0_ITLB WRITEBACK ACCESS:          0  HIT:          0  MISS:          0
cpu0_L1I TOTAL     ACCESS:       1012  HIT:        907  MISS:        105
cpu0_L1I LOAD      ACCESS:       1012  HIT:        907  MISS:        105
cpu0_L1I RFO       ACCESS:          0  HIT:          0  MISS:          0
cpu0_L1I PREFETCH  ACCESS:          0  HIT:          0  MISS:          0
cpu0_L1I WRITEBACK ACCESS:          0  HIT:          0  MISS:          0
cpu0_STLB TOTAL     ACCESS:     355304  HIT:     348357  MISS:       6947
cpu0_STLB LOAD      ACCESS:     319084  HIT:     312755  MISS:       6329
cpu0_STLB RFO       ACCESS:      36220  HIT:      35602  MISS:        618
cpu0_STLB PREFETCH  ACCESS:          0  HIT:          0  MISS:          0
cpu0_STLB WRITEBACK ACCESS:          0  HIT:          0  MISS:          0
cpu0_L1D TOTAL     ACCESS:    3916692  HIT:    3496111  MISS:     420581
cpu0_L1D LOAD      ACCESS:    3224206  HIT:    2807369  MISS:     416837
cpu0_L1D RFO       ACCESS:     685912  HIT:     682330  MISS:       3582
cpu0_L1D PREFETCH  ACCESS:          0  HIT:          0  MISS:          0
cpu0_L1D WRITEBACK ACCESS:          0  HIT:          0  MISS:          0
cpu0_L2C TOTAL     ACCESS:     557433  HIT:     191348  MISS:     366085
cpu0_L2C LOAD      ACCESS:     416907  HIT:      54838  MISS:     362069
cpu0_L2C RFO       ACCESS:       3580  HIT:       1139  MISS:       2441
cpu0_L2C PREFETCH  ACCESS:          0  HIT:          0  MISS:          0
cpu0_L2C WRITEBACK ACCESS:     136784  HIT:     135338  MISS:       1446
LLC TOTAL     ACCESS:     485342  HIT:     448591  MISS:      36751
LLC LOAD      ACCESS:     362046  HIT:     325517  MISS:      36529
LLC RFO       ACCESS:       2441  HIT:       2227  MISS:        214
LLC PREFETCH  ACCESS:          0  HIT:          0  MISS:          0
LLC WRITEBACK ACCESS:     120726  HIT:     120726  MISS:          0
Heartbeat CPU 0 instructions: 68000000 cycles: 58053961 heartbeat IPC: 0.415085 cumulative IPC: 0.412907 (Simulation time: 0 hr 48 min 29 sec) 

Region of Interest Statistics
cpu0_DTLB TOTAL     ACCESS:    4468468  HIT:    4069382  MISS:     399086
cpu0_DTLB LOAD      ACCESS:    3963987  HIT:    3606755  MISS:     357232
cpu0_DTLB RFO       ACCESS:     504481  HIT:     462627  MISS:      41854
cpu0_DTLB PREFETCH  ACCESS:          0  HIT:          0  MISS:          0
cpu0_DTLB WRITEBACK ACCESS:          0  HIT:          0  MISS:          0
cpu0_ITLB TOTAL     ACCESS:    2312217  HIT:    2312209  MISS:          8
cpu0_ITLB LOAD      ACCESS:    2312217  HIT:    2312209  MISS:          8
cpu0_ITLB RFO       ACCESS:          0  HIT:          0  MISS:          0
cpu0_ITLB PREFETCH  ACCESS:          0  HIT:          0  MISS:          0
cpu0_ITLB WRITEBACK ACCESS:          0  HIT:          0  MISS:          0
cpu0_L1I TOTAL     ACCESS:       1020  HIT:        915  MISS:        105
cpu0_L1I LOAD      ACCESS:       1020  HIT:        915  MISS:        105
cpu0_L1I RFO       ACCESS:          0  HIT:          0  MISS:          0
cpu0_L1I PREFETCH  ACCESS:          0  HIT:          0  MISS:          0
cpu0_L1I WRITEBACK ACCESS:          0  HIT:          0  MISS:          0
cpu0_STLB TOTAL     ACCESS:     399094  HIT:     389319  MISS:       9775
cpu0_STLB LOAD      ACCESS:     357240  HIT:     348496  MISS:       8744
cpu0_STLB RFO       ACCESS:      41854  HIT:      40823  MISS:       1031
cpu0_STLB PREFETCH  ACCESS:          0  HIT:          0  MISS:          0
cpu0_STLB WRITEBACK ACCESS:          0  HIT:          0  MISS:          0
cpu0_L1D TOTAL     ACCESS:    4409470  HIT:    3935274  MISS:     474196
cpu0_L1D LOAD      ACCESS:    3629067  HIT:    3159422  MISS:     469645
cpu0_L1D RFO       ACCESS:     771080  HIT:     766692  MISS:       4388
cpu0_L1D PREFETCH  ACCESS:          0  HIT:          0  MISS:          0
cpu0_L1D WRITEBACK ACCESS:          0  HIT:          0  MISS:          0
cpu0_L2C TOTAL     ACCESS:     629275  HIT:     215981  MISS:     413294
cpu0_L2C LOAD      ACCESS:     469715  HIT:      61077  MISS:     408638
cpu0_L2C RFO       ACCESS:       4386  HIT:       1441  MISS:       2945
cpu0_L2C PREFETCH  ACCESS:          0  HIT:          0  MISS:          0
cpu0_L2C WRITEBACK ACCESS:     155011  HIT:     153430  MISS:       1581
LLC TOTAL     ACCESS:     548412  HIT:     507316  MISS:      41096
LLC LOAD      ACCESS:     408609  HIT:     367736  MISS:      40873
LLC RFO       ACCESS:       2945  HIT:       2730  MISS:        215
LLC PREFETCH  ACCESS:          0  HIT:          0  MISS:          0
LLC WRITEBACK ACCESS:     136728  HIT:     136728  MISS:          0
Heartbeat CPU 0 instructions: 70000000 cycles: 63112362 heartbeat IPC: 0.395382 cumulative IPC: 0.411085 (Simulation time: 0 hr 49 min 52 sec) 

Region of Interest Statistics
cpu0_DTLB TOTAL     ACCESS:    4968987  HIT:    4520158  MISS:     448829
cpu0_DTLB LOAD      ACCESS:    4409698  HIT:    4008674  MISS:     401024
cpu0_DTLB RFO       ACCESS:     559289  HIT:     511484  MISS:      47805
cpu0_DTLB PREFETCH  ACCESS:          0  HIT:          0  MISS:          0
cpu0_DTLB WRITEBACK ACCESS:          0  HIT:          0  MISS:          0
cpu0_ITLB TOTAL     ACCESS:    2570064  HIT:    2570056  MISS:          8
cpu0_ITLB LOAD      ACCESS:    2570064  HIT:    2570056  MISS:          8
cpu0_ITLB RFO       ACCESS:          0  HIT:          0  MISS:          0
cpu0_ITLB PREFETCH  ACCESS:          0  HIT:          0  MISS:          0
cpu0_ITLB WRITEBACK ACCESS:          0  HIT:          0  MISS:          0
cpu0_L1I TOTAL     ACCESS:       1035  HIT:        930  MISS:        105
cpu0_L1I LOAD      ACCESS:       1035  HIT:        930  MISS:        105
cpu0_L1I RFO       ACCESS:          0  HIT:          0  MISS:          0
cpu0_L1I PREFETCH  ACCESS:          0  HIT:          0  MISS:          0
cpu0_L1I WRITEBACK ACCESS:          0  HIT:          0  MISS:          0
cpu0_STLB TOTAL     ACCESS:     448837  HIT:     426477  MISS:      22360
cpu0_STLB LOAD      ACCESS:     401032  HIT:     381372  MISS:      19660
cpu0_STLB RFO       ACCESS:      47805  HIT:      45105  MISS:       2700
cpu0_STLB PREFETCH  ACCESS:          0  HIT:          0  MISS:          0
cpu0_STLB WRITEBACK ACCESS:          0  HIT:          0  MISS:          0
cpu0_L1D TOTAL     ACCESS:    4912790  HIT:    4378879  MISS:     533911
cpu0_L1D LOAD      ACCESS:    4035365  HIT:    3506847  MISS:     528518
cpu0_L1D RFO       ACCESS:     856232  HIT:     851082  MISS:       5150
cpu0_L1D PREFETCH  ACCESS:          0  HIT:          0  MISS:          0
cpu0_L1D WRITEBACK ACCESS:          0  HIT:          0  MISS:          0
cpu0_L2C TOTAL     ACCESS:     709265  HIT:     242137  MISS:     467128
cpu0_L2C LOAD      ACCESS:     528586  HIT:      66773  MISS:     461813
cpu0_L2C RFO       ACCESS:       5148  HIT:       1753  MISS:       3395
cpu0_L2C PREFETCH  ACCESS:          0  HIT:          0  MISS:          0
cpu0_L2C WRITEBACK ACCESS:     175288  HIT:     173574  MISS:       1714
LLC TOTAL     ACCESS:     620460  HIT:     574812  MISS:      45648
LLC LOAD      ACCESS:     461784  HIT:     416359  MISS:      45425
LLC RFO       ACCESS:       3395  HIT:       3180  MISS:        215
LLC PREFETCH  ACCESS:          0  HIT:          0  MISS:          0
LLC WRITEBACK ACCESS:     155075  HIT:     155075  MISS:          0
Heartbeat CPU 0 instructions: 72000000 cycles: 68226273 heartbeat IPC: 0.39109 cumulative IPC: 0.409183 (Simulation time: 0 hr 51 min 17 sec) 

Region of Interest Statistics
cpu0_DTLB TOTAL     ACCESS:    5467187  HIT:    4968789  MISS:     498398
cpu0_DTLB LOAD      ACCESS:    4853596  HIT:    4407157  MISS:     446439
cpu0_DTLB RFO       ACCESS:     613591  HIT:     561632  MISS:      51959
cpu0_DTLB PREFETCH  ACCESS:          0  HIT:          0  MISS:          0
cpu0_DTLB WRITEBACK ACCESS:          0  HIT:          0  MISS:          0
cpu0_ITLB TOTAL     ACCESS:    2827973  HIT:    2827965  MISS:          8
cpu0_ITLB LOAD      ACCESS:    2827973  HIT:    2827965  MISS:          8
cpu0_ITLB RFO       ACCESS:          0  HIT:          0  MISS:          0
cpu0_ITLB PREFETCH  ACCESS:          0  HIT:          0  MISS:          0
cpu0_ITLB WRITEBACK ACCESS:          0  HIT:          0  MISS:          0
cpu0_L1I TOTAL     ACCESS:       1041  HIT:        936  MISS:        105
cpu0_L1I LOAD      ACCESS:       1041  HIT:        936  MISS:        105
cpu0_L1I RFO       ACCESS:          0  HIT:          0  MISS:          0
cpu0_L1I PREFETCH  ACCESS:          0  HIT:          0  MISS:          0
cpu0_L1I WRITEBACK ACCESS:          0  HIT:          0  MISS:          0
cpu0_STLB TOTAL     ACCESS:     498406  HIT:     448033  MISS:      50373
cpu0_STLB LOAD      ACCESS:     446447  HIT:     401958  MISS:      44489
cpu0_STLB RFO       ACCESS:      51959  HIT:      46075  MISS:       5884
cpu0_STLB PREFETCH  ACCESS:          0  HIT:          0  MISS:          0
cpu0_STLB WRITEBACK ACCESS:          0  HIT:          0  MISS:          0
cpu0_L1D TOTAL     ACCESS:    5430570  HIT:    4838893  MISS:     591677
cpu0_L1D LOAD      ACCESS:    4441843  HIT:    3856422  MISS:     585421
cpu0_L1D RFO       ACCESS:     941729  HIT:     935778  MISS:       5951
cpu0_L1D PREFETCH  ACCESS:          0  HIT:          0  MISS:          0
cpu0_L1D WRITEBACK ACCESS:          0  HIT:          0  MISS:          0
cpu0_L2C TOTAL     ACCESS:     786572  HIT:     267570  MISS:     519002
cpu0_L2C LOAD      ACCESS:     585488  HIT:      72498  MISS:     512990
cpu0_L2C RFO       ACCESS:       5949  HIT:       2030  MISS:       3919
cpu0_L2C PREFETCH  ACCESS:          0  HIT:          0  MISS:          0
cpu0_L2C WRITEBACK ACCESS:     194830  HIT:     192984  MISS:       1846
LLC TOTAL     ACCESS:     689968  HIT:     640110  MISS:      49858
LLC LOAD      ACCESS:     512960  HIT:     463342  MISS:      49618
LLC RFO       ACCESS:       3919  HIT:       3687  MISS:        232
LLC PREFETCH  ACCESS:          0  HIT:          0  MISS:          0
LLC WRITEBACK ACCESS:     172842  HIT:     172842  MISS:          0
Heartbeat CPU 0 instructions: 74000001 cycles: 73050217 heartbeat IPC: 0.414599 cumulative IPC: 0.409629 (Simulation time: 0 hr 52 min 36 sec) 

Region of Interest Statistics
cpu0_DTLB TOTAL     ACCESS:    5967425  HIT:    5427176  MISS:     540249
cpu0_DTLB LOAD      ACCESS:    5299235  HIT:    4814258  MISS:     484977
cpu0_DTLB RFO       ACCESS:     668190  HIT:     612918  MISS:      55272
cpu0_DTLB PREFETCH  ACCESS:          0  HIT:          0  MISS:          0
cpu0_DTLB WRITEBACK ACCESS:          0  HIT:          0  MISS:          0
cpu0_ITLB TOTAL     ACCESS:    3085537  HIT:    3085529  MISS:          8
cpu0_ITLB LOAD      ACCESS:    3085537  HIT:    3085529  MISS:          8
cpu0_ITLB RFO       ACCESS:          0  HIT:          0  MISS:          0
cpu0_ITLB PREFETCH  ACCESS:          0  HIT:          0  MISS:          0
cpu0_ITLB WRITEBACK ACCESS:          0  HIT:          0  MISS:          0
cpu0_L1I TOTAL     ACCESS:       1054  HIT:        949  MISS:        105
cpu0_L1I LOAD      ACCESS:       1054  HIT:        949  MISS:        105
cpu0_L1I RFO       ACCESS:          0  HIT:          0  MISS:          0
cpu0_L1I PREFETCH  ACCESS:          0  HIT:          0  MISS:          0
cpu0_L1I WRITEBACK ACCESS:          0  HIT:          0  MISS:          0
cpu0_STLB TOTAL     ACCESS:     540257  HIT:     483937  MISS:      56320
cpu0_STLB LOAD      ACCESS:     484985  HIT:     435061  MISS:      49924
cpu0_STLB RFO       ACCESS:      55272  HIT:      48876  MISS:       6396
cpu0_STLB PREFETCH  ACCESS:          0  HIT:          0  MISS:          0
cpu0_STLB WRITEBACK ACCESS:          0  HIT:          0  MISS:          0
cpu0_L1D TOTAL     ACCESS:    5927731  HIT:    5284094  MISS:     643637
cpu0_L1D LOAD      ACCESS:    4848379  HIT:    4211844  MISS:     636535
cpu0_L1D RFO       ACCESS:    1026735  HIT:    1019947  MISS:       6788
cpu0_L1D PREFETCH  ACCESS:          0  HIT:          0  MISS:          0
cpu0_L1D WRITEBACK ACCESS:          0  HIT:          0  MISS:          0
cpu0_L2C TOTAL     ACCESS:     856080  HIT:     290693  MISS:     565387
cpu0_L2C LOAD      ACCESS:     636600  HIT:      78061  MISS:     558539
cpu0_L2C RFO       ACCESS:       6786  HIT:       2344  MISS:       4442
cpu0_L2C PREFETCH  ACCESS:          0  HIT:          0  MISS:          0
cpu0_L2C WRITEBACK ACCESS:     212380  HIT:     210224  MISS:       2156
LLC TOTAL     ACCESS:     751632  HIT:     697848  MISS:      53784
LLC LOAD      ACCESS:     558508  HIT:     504970  MISS:      53538
LLC RFO       ACCESS:       4442  HIT:       4204  MISS:        238
LLC PREFETCH  ACCESS:          0  HIT:          0  MISS:          0
LLC WRITEBACK ACCESS:     188432  HIT:     188432  MISS:          0
Heartbeat CPU 0 instructions: 76000000 cycles: 77769530 heartbeat IPC: 0.42379 cumulative IPC: 0.410684 (Simulation time: 0 hr 53 min 54 sec) 

Region of Interest Statistics
cpu0_DTLB TOTAL     ACCESS:    6472584  HIT:    5894684  MISS:     577900
cpu0_DTLB LOAD      ACCESS:    5749955  HIT:    5231623  MISS:     518332
cpu0_DTLB RFO       ACCESS:     722629  HIT:     663061  MISS:      59568
cpu0_DTLB PREFETCH  ACCESS:          0  HIT:          0  MISS:          0
cpu0_DTLB WRITEBACK ACCESS:          0  HIT:          0  MISS:          0
cpu0_ITLB TOTAL     ACCESS:    3343797  HIT:    3343789  MISS:          8
cpu0_ITLB LOAD      ACCESS:    3343797  HIT:    3343789  MISS:          8
cpu0_ITLB RFO       ACCESS:          0  HIT:          0  MISS:          0
cpu0_ITLB PREFETCH  ACCESS:          0  HIT:          0  MISS:          0
cpu0_ITLB WRITEBACK ACCESS:          0  HIT:          0  MISS:          0
cpu0_L1I TOTAL     ACCESS:       1054  HIT:        949  MISS:        105
cpu0_L1I LOAD      ACCESS:       1054  HIT:        949  MISS:        105
cpu0_L1I RFO       ACCESS:          0  HIT:          0  MISS:          0
cpu0_L1I PREFETCH  ACCESS:          0  HIT:          0  MISS:          0
cpu0_L1I WRITEBACK ACCESS:          0  HIT:          0  MISS:          0
cpu0_STLB TOTAL     ACCESS:     577908  HIT:     517616  MISS:      60292
cpu0_STLB LOAD      ACCESS:     518340  HIT:     465031  MISS:      53309
cpu0_STLB RFO       ACCESS:      59568  HIT:      52585  MISS:       6983
cpu0_STLB PREFETCH  ACCESS:          0  HIT:          0  MISS:          0
cpu0_STLB WRITEBACK ACCESS:          0  HIT:          0  MISS:          0
cpu0_L1D TOTAL     ACCESS:    6426165  HIT:    5731667  MISS:     694498
cpu0_L1D LOAD      ACCESS:    5259144  HIT:    4572780  MISS:     686364
cpu0_L1D RFO       ACCESS:    1110544  HIT:    1102729  MISS:       7815
cpu0_L1D PREFETCH  ACCESS:          0  HIT:          0  MISS:          0
cpu0_L1D WRITEBACK ACCESS:          0  HIT:          0  MISS:          0
cpu0_L2C TOTAL     ACCESS:     923770  HIT:     317742  MISS:     606028
cpu0_L2C LOAD      ACCESS:     686425  HIT:      88025  MISS:     598400
cpu0_L2C RFO       ACCESS:       7813  HIT:       2887  MISS:       4926
cpu0_L2C PREFETCH  ACCESS:          0  HIT:          0  MISS:          0
cpu0_L2C WRITEBACK ACCESS:     229213  HIT:     226763  MISS:       2450
LLC TOTAL     ACCESS:     805655  HIT:     747694  MISS:      57961
LLC LOAD      ACCESS:     598362  HIT:     540651  MISS:      57711
LLC RFO       ACCESS:       4926  HIT:       4684  MISS:        242
LLC PREFETCH  ACCESS:          0  HIT:          0  MISS:          0
LLC WRITEBACK ACCESS:     202115  HIT:     202115  MISS:          0
Heartbeat CPU 0 instructions: 78000000 cycles: 82660525 heartbeat IPC: 0.408915 cumulative IPC: 0.410558 (Simulation time: 0 hr 55 min 16 sec) 

Region of Interest Statistics
cpu0_DTLB TOTAL     ACCESS:    6975634  HIT:    6356121  MISS:     619513
cpu0_DTLB LOAD      ACCESS:    6197873  HIT:    5643129  MISS:     554744
cpu0_DTLB RFO       ACCESS:     777761  HIT:     712992  MISS:      64769
cpu0_DTLB PREFETCH  ACCESS:          0  HIT:          0  MISS:          0
cpu0_DTLB WRITEBACK ACCESS:          0  HIT:          0  MISS:          0
cpu0_ITLB TOTAL     ACCESS:    3601890  HIT:    3601882  MISS:          8
cpu0_ITLB LOAD      ACCESS:    3601890  HIT:    3601882  MISS:          8
cpu0_ITLB RFO       ACCESS:          0  HIT:          0  MISS:          0
cpu0_ITLB PREFETCH  ACCESS:          0  HIT:          0  MISS:          0
cpu0_ITLB WRITEBACK ACCESS:          0  HIT:          0  MISS:          0
cpu0_L1I TOTAL     ACCESS:       1054  HIT:        949  MISS:        105
cpu0_L1I LOAD      ACCESS:       1054  HIT:        949  MISS:        105
cpu0_L1I RFO       ACCESS:          0  HIT:          0  MISS:          0
cpu0_L1I PREFETCH  ACCESS:          0  HIT:          0  MISS:          0
cpu0_L1I WRITEBACK ACCESS:          0  HIT:          0  MISS:          0
cpu0_STLB TOTAL     ACCESS:     619521  HIT:     545810  MISS:      73711
cpu0_STLB LOAD      ACCESS:     554752  HIT:     489944  MISS:      64808
cpu0_STLB RFO       ACCESS:      64769  HIT:      55866  MISS:       8903
cpu0_STLB PREFETCH  ACCESS:          0  HIT:          0  MISS:          0
cpu0_STLB WRITEBACK ACCESS:          0  HIT:          0  MISS:          0
cpu0_L1D TOTAL     ACCESS:    6933184  HIT:    6186181  MISS:     747003
cpu0_L1D LOAD      ACCESS:    5668652  HIT:    4930705  MISS:     737947
cpu0_L1D RFO       ACCESS:    1195364  HIT:    1186657  MISS:       8707
cpu0_L1D PREFETCH  ACCESS:          0  HIT:          0  MISS:          0
cpu0_L1D WRITEBACK ACCESS:          0  HIT:          0  MISS:          0
cpu0_L2C TOTAL     ACCESS:     993994  HIT:     342201  MISS:     651793
cpu0_L2C LOAD      ACCESS:     738008  HIT:      94715  MISS:     643293
cpu0_L2C RFO       ACCESS:       8705  HIT:       3205  MISS:       5500
cpu0_L2C PREFETCH  ACCESS:          0  HIT:          0  MISS:          0
cpu0_L2C WRITEBACK ACCESS:     246932  HIT:     244214  MISS:       2718
LLC TOTAL     ACCESS:     866651  HIT:     804350  MISS:      62301
LLC LOAD      ACCESS:     643254  HIT:     581203  MISS:      62051
LLC RFO       ACCESS:       5500  HIT:       5258  MISS:        242
LLC PREFETCH  ACCESS:          0  HIT:          0  MISS:          0
LLC WRITEBACK ACCESS:     217615  HIT:     217615  MISS:          0
Heartbeat CPU 0 instructions: 80000002 cycles: 87638379 heartbeat IPC: 0.40178 cumulative IPC: 0.409961 (Simulation time: 0 hr 56 min 38 sec) 

Region of Interest Statistics
cpu0_DTLB TOTAL     ACCESS:    7477501  HIT:    6816943  MISS:     660558
cpu0_DTLB LOAD      ACCESS:    6644705  HIT:    6052943  MISS:     591762
cpu0_DTLB RFO       ACCESS:     832796  HIT:     764000  MISS:      68796
cpu0_DTLB PREFETCH  ACCESS:          0  HIT:          0  MISS:          0
cpu0_DTLB WRITEBACK ACCESS:          0  HIT:          0  MISS:          0
cpu0_ITLB TOTAL     ACCESS:    3860784  HIT:    3860776  MISS:          8
cpu0_ITLB LOAD      ACCESS:    3860784  HIT:    3860776  MISS:          8
cpu0_ITLB RFO       ACCESS:          0  HIT:          0  MISS:          0
cpu0_ITLB PREFETCH  ACCESS:          0  HIT:          0  MISS:          0
cpu0_ITLB WRITEBACK ACCESS:          0  HIT:          0  MISS:          0
cpu0_L1I TOTAL     ACCESS:       1067  HIT:        962  MISS:        105
cpu0_L1I LOAD      ACCESS:       1067  HIT:        962  MISS:        105
cpu0_L1I RFO       ACCESS:          0  HIT:          0  MISS:          0
cpu0_L1I PREFETCH  ACCESS:          0  HIT:          0  MISS:          0
cpu0_L1I WRITEBACK ACCESS:          0  HIT:          0  MISS:          0
cpu0_STLB TOTAL     ACCESS:     660566  HIT:     562075  MISS:      98491
cpu0_STLB LOAD      ACCESS:     591770  HIT:     505677  MISS:      86093
cpu0_STLB RFO       ACCESS:      68796  HIT:      56398  MISS:      12398
cpu0_STLB PREFETCH  ACCESS:          0  HIT:          0  MISS:          0
cpu0_STLB WRITEBACK ACCESS:          0  HIT:          0  MISS:          0
cpu0_L1D TOTAL     ACCESS:    7449693  HIT:    6648472  MISS:     801221
cpu0_L1D LOAD      ACCESS:    6077431  HIT:    5286345  MISS:     791086
cpu0_L1D RFO       ACCESS:    1280278  HIT:    1270547  MISS:       9731
cpu0_L1D PREFETCH  ACCESS:          0  HIT:          0  MISS:          0
cpu0_L1D WRITEBACK ACCESS:          0  HIT:          0  MISS:          0
cpu0_L2C TOTAL     ACCESS:    1066108  HIT:     367342  MISS:     698766
cpu0_L2C LOAD      ACCESS:     791145  HIT:     101738  MISS:     689407
cpu0_L2C RFO       ACCESS:       9729  HIT:       3604  MISS:       6125
cpu0_L2C PREFETCH  ACCESS:          0  HIT:          0  MISS:          0
cpu0_L2C WRITEBACK ACCESS:     264830  HIT:     261923  MISS:       2907
LLC TOTAL     ACCESS:     929163  HIT:     862730  MISS:      66433
LLC LOAD      ACCESS:     689364  HIT:     623181  MISS:      66183
LLC RFO       ACCESS:       6125  HIT:       5883  MISS:        242
LLC PREFETCH  ACCESS:          0  HIT:          0  MISS:          0
LLC WRITEBACK ACCESS:     233347  HIT:     233347  MISS:          0
Heartbeat CPU 0 instructions: 82000002 cycles: 92722297 heartbeat IPC: 0.393397 cumulative IPC: 0.408885 (Simulation time: 0 hr 57 min 59 sec) 

Region of Interest Statistics
cpu0_DTLB TOTAL     ACCESS:    7977270  HIT:    7273220  MISS:     704050
cpu0_DTLB LOAD      ACCESS:    7090305  HIT:    6457488  MISS:     632817
cpu0_DTLB RFO       ACCESS:     886965  HIT:     815732  MISS:      71233
cpu0_DTLB PREFETCH  ACCESS:          0  HIT:          0  MISS:          0
cpu0_DTLB WRITEBACK ACCESS:          0  HIT:          0  MISS:          0
cpu0_ITLB TOTAL     ACCESS:    4119880  HIT:    4119872  MISS:          8
cpu0_ITLB LOAD      ACCESS:    4119880  HIT:    4119872  MISS:          8
cpu0_ITLB RFO       ACCESS:          0  HIT:          0  MISS:          0
cpu0_ITLB PREFETCH  ACCESS:          0  HIT:          0  MISS:          0
cpu0_ITLB WRITEBACK ACCESS:          0  HIT:          0  MISS:          0
cpu0_L1I TOTAL     ACCESS:       1083  HIT:        978  MISS:        105
cpu0_L1I LOAD      ACCESS:       1083  HIT:        978  MISS:        105
cpu0_L1I RFO       ACCESS:          0  HIT:          0  MISS:          0
cpu0_L1I PREFETCH  ACCESS:          0  HIT:          0  MISS:          0
cpu0_L1I WRITEBACK ACCESS:          0  HIT:          0  MISS:          0
cpu0_STLB TOTAL     ACCESS:     704058  HIT:     580860  MISS:     123198
cpu0_STLB LOAD      ACCESS:     632825  HIT:     524170  MISS:     108655
cpu0_STLB RFO       ACCESS:      71233  HIT:      56690  MISS:      14543
cpu0_STLB PREFETCH  ACCESS:          0  HIT:          0  MISS:          0
cpu0_STLB WRITEBACK ACCESS:          0  HIT:          0  MISS:          0
cpu0_L1D TOTAL     ACCESS:    7963893  HIT:    7107606  MISS:     856287
cpu0_L1D LOAD      ACCESS:    6484260  HIT:    5639130  MISS:     845130
cpu0_L1D RFO       ACCESS:    1364711  HIT:    1354017  MISS:      10694
cpu0_L1D PREFETCH  ACCESS:          0  HIT:          0  MISS:          0
cpu0_L1D WRITEBACK ACCESS:          0  HIT:          0  MISS:          0
cpu0_L2C TOTAL     ACCESS:    1138980  HIT:     391522  MISS:     747458
cpu0_L2C LOAD      ACCESS:     845188  HIT:     107957  MISS:     737231
cpu0_L2C RFO       ACCESS:      10692  HIT:       3977  MISS:       6715
cpu0_L2C PREFETCH  ACCESS:          0  HIT:          0  MISS:          0
cpu0_L2C WRITEBACK ACCESS:     282637  HIT:     279495  MISS:       3142
LLC TOTAL     ACCESS:     993691  HIT:     923046  MISS:      70645
LLC LOAD      ACCESS:     737185  HIT:     666791  MISS:      70394
LLC RFO       ACCESS:       6715  HIT:       6472  MISS:        243
LLC PREFETCH  ACCESS:          0  HIT:          0  MISS:          0
LLC WRITEBACK ACCESS:     249421  HIT:     249421  MISS:          0
Heartbeat CPU 0 instructions: 84000000 cycles: 97809635 heartbeat IPC: 0.393133 cumulative IPC: 0.407923 (Simulation time: 0 hr 59 min 23 sec) 

Region of Interest Statistics
cpu0_DTLB TOTAL     ACCESS:    8475221  HIT:    7725728  MISS:     749493
cpu0_DTLB LOAD      ACCESS:    7534331  HIT:    6858384  MISS:     675947
cpu0_DTLB RFO       ACCESS:     940890  HIT:     867344  MISS:      73546
cpu0_DTLB PREFETCH  ACCESS:          0  HIT:          0  MISS:          0
cpu0_DTLB WRITEBACK ACCESS:          0  HIT:          0  MISS:          0
cpu0_ITLB TOTAL     ACCESS:    4378919  HIT:    4378911  MISS:          8
cpu0_ITLB LOAD      ACCESS:    4378919  HIT:    4378911  MISS:          8
cpu0_ITLB RFO       ACCESS:          0  HIT:          0  MISS:          0
cpu0_ITLB PREFETCH  ACCESS:          0  HIT:          0  MISS:          0
cpu0_ITLB WRITEBACK ACCESS:          0  HIT:          0  MISS:          0
cpu0_L1I TOTAL     ACCESS:       1134  HIT:       1029  MISS:        105
cpu0_L1I LOAD      ACCESS:       1134  HIT:       1029  MISS:        105
cpu0_L1I RFO       ACCESS:          0  HIT:          0  MISS:          0
cpu0_L1I PREFETCH  ACCESS:          0  HIT:          0  MISS:          0
cpu0_L1I WRITEBACK ACCESS:          0  HIT:          0  MISS:          0
cpu0_STLB TOTAL     ACCESS:     749501  HIT:     605630  MISS:     143871
cpu0_STLB LOAD      ACCESS:     675955  HIT:     548160  MISS:     127795
cpu0_STLB RFO       ACCESS:      73546  HIT:      57470  MISS:      16076
cpu0_STLB PREFETCH  ACCESS:          0  HIT:          0  MISS:          0
cpu0_STLB WRITEBACK ACCESS:          0  HIT:          0  MISS:          0
cpu0_L1D TOTAL     ACCESS:    8473129  HIT:    7560611  MISS:     912518
cpu0_L1D LOAD      ACCESS:    6890119  HIT:    5989631  MISS:     900488
cpu0_L1D RFO       ACCESS:    1448823  HIT:    1437312  MISS:      11511
cpu0_L1D PREFETCH  ACCESS:          0  HIT:          0  MISS:          0
cpu0_L1D WRITEBACK ACCESS:          0  HIT:          0  MISS:          0
cpu0_L2C TOTAL     ACCESS:    1212912  HIT:     414974  MISS:     797938
cpu0_L2C LOAD      ACCESS:     900546  HIT:     113547  MISS:     786999
cpu0_L2C RFO       ACCESS:      11509  HIT:       4266  MISS:       7243
cpu0_L2C PREFETCH  ACCESS:          0  HIT:          0  MISS:          0
cpu0_L2C WRITEBACK ACCESS:     300338  HIT:     297046  MISS:       3292
LLC TOTAL     ACCESS:    1059861  HIT:     985136  MISS:      74725
LLC LOAD      ACCESS:     786950  HIT:     712476  MISS:      74474
LLC RFO       ACCESS:       7243  HIT:       7000  MISS:        243
LLC PREFETCH  ACCESS:          0  HIT:          0  MISS:          0
LLC WRITEBACK ACCESS:     265264  HIT:     265264  MISS:          0
Heartbeat CPU 0 instructions: 86000001 cycles: 103040574 heartbeat IPC: 0.382341 cumulative IPC: 0.406412 (Simulation time: 1 hr 0 min 48 sec) 

Region of Interest Statistics
cpu0_DTLB TOTAL     ACCESS:    8974648  HIT:    8177999  MISS:     796649
cpu0_DTLB LOAD      ACCESS:    7979512  HIT:    7258821  MISS:     720691
cpu0_DTLB RFO       ACCESS:     995136  HIT:     919178  MISS:      75958
cpu0_DTLB PREFETCH  ACCESS:          0  HIT:          0  MISS:          0
cpu0_DTLB WRITEBACK ACCESS:          0  HIT:          0  MISS:          0
cpu0_ITLB TOTAL     ACCESS:    4638426  HIT:    4638418  MISS:          8
cpu0_ITLB LOAD      ACCESS:    4638426  HIT:    4638418  MISS:          8
cpu0_ITLB RFO       ACCESS:          0  HIT:          0  MISS:          0
cpu0_ITLB PREFETCH  ACCESS:          0  HIT:          0  MISS:          0
cpu0_ITLB WRITEBACK ACCESS:          0  HIT:          0  MISS:          0
cpu0_L1I TOTAL     ACCESS:       1272  HIT:       1167  MISS:        105
cpu0_L1I LOAD      ACCESS:       1272  HIT:       1167  MISS:        105
cpu0_L1I RFO       ACCESS:          0  HIT:          0  MISS:          0
cpu0_L1I PREFETCH  ACCESS:          0  HIT:          0  MISS:          0
cpu0_L1I WRITEBACK ACCESS:          0  HIT:          0  MISS:          0
cpu0_STLB TOTAL     ACCESS:     796657  HIT:     636813  MISS:     159844
cpu0_STLB LOAD      ACCESS:     720699  HIT:     577358  MISS:     143341
cpu0_STLB RFO       ACCESS:      75958  HIT:      59455  MISS:      16503
cpu0_STLB PREFETCH  ACCESS:          0  HIT:          0  MISS:          0
cpu0_STLB WRITEBACK ACCESS:          0  HIT:          0  MISS:          0
cpu0_L1D TOTAL     ACCESS:    8978538  HIT:    8007190  MISS:     971348
cpu0_L1D LOAD      ACCESS:    7295523  HIT:    6336969  MISS:     958554
cpu0_L1D RFO       ACCESS:    1533576  HIT:    1521338  MISS:      12238
cpu0_L1D PREFETCH  ACCESS:          0  HIT:          0  MISS:          0
cpu0_L1D WRITEBACK ACCESS:          0  HIT:          0  MISS:          0
cpu0_L2C TOTAL     ACCESS:    1290672  HIT:     438281  MISS:     852391
cpu0_L2C LOAD      ACCESS:     958612  HIT:     117888  MISS:     840724
cpu0_L2C RFO       ACCESS:      12236  HIT:       4448  MISS:       7788
cpu0_L2C PREFETCH  ACCESS:          0  HIT:          0  MISS:          0
cpu0_L2C WRITEBACK ACCESS:     319268  HIT:     315808  MISS:       3460
LLC TOTAL     ACCESS:    1131694  HIT:    1052436  MISS:      79258
LLC LOAD      ACCESS:     840674  HIT:     761667  MISS:      79007
LLC RFO       ACCESS:       7788  HIT:       7545  MISS:        243
LLC PREFETCH  ACCESS:          0  HIT:          0  MISS:          0
LLC WRITEBACK ACCESS:     282813  HIT:     282813  MISS:          0
Heartbeat CPU 0 instructions: 88000000 cycles: 108240734 heartbeat IPC: 0.384603 cumulative IPC: 0.405203 (Simulation time: 1 hr 2 min 12 sec) 

Region of Interest Statistics
cpu0_DTLB TOTAL     ACCESS:    9478808  HIT:    8629274  MISS:     849534
cpu0_DTLB LOAD      ACCESS:    8430216  HIT:    7660857  MISS:     769359
cpu0_DTLB RFO       ACCESS:    1048592  HIT:     968417  MISS:      80175
cpu0_DTLB PREFETCH  ACCESS:          0  HIT:          0  MISS:          0
cpu0_DTLB WRITEBACK ACCESS:          0  HIT:          0  MISS:          0
cpu0_ITLB TOTAL     ACCESS:    4899141  HIT:    4899133  MISS:          8
cpu0_ITLB LOAD      ACCESS:    4899141  HIT:    4899133  MISS:          8
cpu0_ITLB RFO       ACCESS:          0  HIT:          0  MISS:          0
cpu0_ITLB PREFETCH  ACCESS:          0  HIT:          0  MISS:          0
cpu0_ITLB WRITEBACK ACCESS:          0  HIT:          0  MISS:          0
cpu0_L1I TOTAL     ACCESS:       1272  HIT:       1167  MISS:        105
cpu0_L1I LOAD      ACCESS:       1272  HIT:       1167  MISS:        105
cpu0_L1I RFO       ACCESS:          0  HIT:          0  MISS:          0
cpu0_L1I PREFETCH  ACCESS:          0  HIT:          0  MISS:          0
cpu0_L1I WRITEBACK ACCESS:          0  HIT:          0  MISS:          0
cpu0_STLB TOTAL     ACCESS:     849542  HIT:     682532  MISS:     167010
cpu0_STLB LOAD      ACCESS:     769367  HIT:     619127  MISS:     150240
cpu0_STLB RFO       ACCESS:      80175  HIT:      63405  MISS:      16770
cpu0_STLB PREFETCH  ACCESS:          0  HIT:          0  MISS:          0
cpu0_STLB WRITEBACK ACCESS:          0  HIT:          0  MISS:          0
cpu0_L1D TOTAL     ACCESS:    9479246  HIT:    8444452  MISS:    1034794
cpu0_L1D LOAD      ACCESS:    7706230  HIT:    6685039  MISS:    1021191
cpu0_L1D RFO       ACCESS:    1616737  HIT:    1603738  MISS:      12999
cpu0_L1D PREFETCH  ACCESS:          0  HIT:          0  MISS:          0
cpu0_L1D WRITEBACK ACCESS:          0  HIT:          0  MISS:          0
cpu0_L2C TOTAL     ACCESS:    1374034  HIT:     462960  MISS:     911074
cpu0_L2C LOAD      ACCESS:    1021247  HIT:     122643  MISS:     898604
cpu0_L2C RFO       ACCESS:      12997  HIT:       4656  MISS:       8341
cpu0_L2C PREFETCH  ACCESS:          0  HIT:          0  MISS:          0
cpu0_L2C WRITEBACK ACCESS:     339186  HIT:     335512  MISS:       3674
LLC TOTAL     ACCESS:    1208771  HIT:    1125462  MISS:      83309
LLC LOAD      ACCESS:     898554  HIT:     815496  MISS:      83058
LLC RFO       ACCESS:       8341  HIT:       8098  MISS:        243
LLC PREFETCH  ACCESS:          0  HIT:          0  MISS:          0
LLC WRITEBACK ACCESS:     301421  HIT:     301421  MISS:          0
Heartbeat CPU 0 instructions: 90000003 cycles: 113638750 heartbeat IPC: 0.370507 cumulative IPC: 0.403315 (Simulation time: 1 hr 3 min 40 sec) 

Region of Interest Statistics
cpu0_DTLB TOTAL     ACCESS:    9981115  HIT:    9072773  MISS:     908342
cpu0_DTLB LOAD      ACCESS:    8878450  HIT:    8055218  MISS:     823232
cpu0_DTLB RFO       ACCESS:    1102665  HIT:    1017555  MISS:      85110
cpu0_DTLB PREFETCH  ACCESS:          0  HIT:          0  MISS:          0
cpu0_DTLB WRITEBACK ACCESS:          0  HIT:          0  MISS:          0
cpu0_ITLB TOTAL     ACCESS:    5159348  HIT:    5159340  MISS:          8
cpu0_ITLB LOAD      ACCESS:    5159348  HIT:    5159340  MISS:          8
cpu0_ITLB RFO       ACCESS:          0  HIT:          0  MISS:          0
cpu0_ITLB PREFETCH  ACCESS:          0  HIT:          0  MISS:          0
cpu0_ITLB WRITEBACK ACCESS:          0  HIT:          0  MISS:          0
cpu0_L1I TOTAL     ACCESS:       1310  HIT:       1205  MISS:        105
cpu0_L1I LOAD      ACCESS:       1310  HIT:       1205  MISS:        105
cpu0_L1I RFO       ACCESS:          0  HIT:          0  MISS:          0
cpu0_L1I PREFETCH  ACCESS:          0  HIT:          0  MISS:          0
cpu0_L1I WRITEBACK ACCESS:          0  HIT:          0  MISS:          0
cpu0_STLB TOTAL     ACCESS:     908350  HIT:     740436  MISS:     167914
cpu0_STLB LOAD      ACCESS:     823240  HIT:     672154  MISS:     151086
cpu0_STLB RFO       ACCESS:      85110  HIT:      68282  MISS:      16828
cpu0_STLB PREFETCH  ACCESS:          0  HIT:          0  MISS:          0
cpu0_STLB WRITEBACK ACCESS:          0  HIT:          0  MISS:          0
cpu0_L1D TOTAL     ACCESS:    9973357  HIT:    8869212  MISS:    1104145
cpu0_L1D LOAD      ACCESS:    8114891  HIT:    7025058  MISS:    1089833
cpu0_L1D RFO       ACCESS:    1701308  HIT:    1687608  MISS:      13700
cpu0_L1D PREFETCH  ACCESS:          0  HIT:          0  MISS:          0
cpu0_L1D WRITEBACK ACCESS:          0  HIT:          0  MISS:          0
cpu0_L2C TOTAL     ACCESS:    1465205  HIT:     488155  MISS:     977050
cpu0_L2C LOAD      ACCESS:    1089889  HIT:     126114  MISS:     963775
cpu0_L2C RFO       ACCESS:      13698  HIT:       4805  MISS:       8893
cpu0_L2C PREFETCH  ACCESS:          0  HIT:          0  MISS:          0
cpu0_L2C WRITEBACK ACCESS:     361006  HIT:     357086  MISS:       3920
LLC TOTAL     ACCESS:    1295621  HIT:    1207266  MISS:      88355
LLC LOAD      ACCESS:     963725  HIT:     875621  MISS:      88104
LLC RFO       ACCESS:       8893  HIT:       8650  MISS:        243
LLC PREFETCH  ACCESS:          0  HIT:          0  MISS:          0
LLC WRITEBACK ACCESS:     322541  HIT:     322541  MISS:          0
Heartbeat CPU 0 instructions: 92000002 cycles: 118795328 heartbeat IPC: 0.387854 cumulative IPC: 0.402551 (Simulation time: 1 hr 5 min 3 sec) 

Region of Interest Statistics
cpu0_DTLB TOTAL     ACCESS:   10481378  HIT:    9525906  MISS:     955472
cpu0_DTLB LOAD      ACCESS:    9324268  HIT:    8456659  MISS:     867609
cpu0_DTLB RFO       ACCESS:    1157110  HIT:    1069247  MISS:      87863
cpu0_DTLB PREFETCH  ACCESS:          0  HIT:          0  MISS:          0
cpu0_DTLB WRITEBACK ACCESS:          0  HIT:          0  MISS:          0
cpu0_ITLB TOTAL     ACCESS:    5418951  HIT:    5418943  MISS:          8
cpu0_ITLB LOAD      ACCESS:    5418951  HIT:    5418943  MISS:          8
cpu0_ITLB RFO       ACCESS:          0  HIT:          0  MISS:          0
cpu0_ITLB PREFETCH  ACCESS:          0  HIT:          0  MISS:          0
cpu0_ITLB WRITEBACK ACCESS:          0  HIT:          0  MISS:          0
cpu0_L1I TOTAL     ACCESS:       1323  HIT:       1218  MISS:        105
cpu0_L1I LOAD      ACCESS:       1323  HIT:       1218  MISS:        105
cpu0_L1I RFO       ACCESS:          0  HIT:          0  MISS:          0
cpu0_L1I PREFETCH  ACCESS:          0  HIT:          0  MISS:          0
cpu0_L1I WRITEBACK ACCESS:          0  HIT:          0  MISS:          0
cpu0_STLB TOTAL     ACCESS:     955480  HIT:     775581  MISS:     179899
cpu0_STLB LOAD      ACCESS:     867617  HIT:     704831  MISS:     162786
cpu0_STLB RFO       ACCESS:      87863  HIT:      70750  MISS:      17113
cpu0_STLB PREFETCH  ACCESS:          0  HIT:          0  MISS:          0
cpu0_STLB WRITEBACK ACCESS:          0  HIT:          0  MISS:          0
cpu0_L1D TOTAL     ACCESS:   10476974  HIT:    9314367  MISS:    1162607
cpu0_L1D LOAD      ACCESS:    8522080  HIT:    7374519  MISS:    1147561
cpu0_L1D RFO       ACCESS:    1786304  HIT:    1771911  MISS:      14393
cpu0_L1D PREFETCH  ACCESS:          0  HIT:          0  MISS:          0
cpu0_L1D WRITEBACK ACCESS:          0  HIT:          0  MISS:          0
cpu0_L2C TOTAL     ACCESS:    1542297  HIT:     510541  MISS:    1031756
cpu0_L2C LOAD      ACCESS:    1147615  HIT:     130073  MISS:    1017542
cpu0_L2C RFO       ACCESS:      14391  HIT:       4959  MISS:       9432
cpu0_L2C PREFETCH  ACCESS:          0  HIT:          0  MISS:          0
cpu0_L2C WRITEBACK ACCESS:     379638  HIT:     375359  MISS:       4279
LLC TOTAL     ACCESS:    1367678  HIT:    1275031  MISS:      92647
LLC LOAD      ACCESS:    1017492  HIT:     925096  MISS:      92396
LLC RFO       ACCESS:       9432  HIT:       9189  MISS:        243
LLC PREFETCH  ACCESS:          0  HIT:          0  MISS:          0
LLC WRITEBACK ACCESS:     340251  HIT:     340251  MISS:          0
Heartbeat CPU 0 instructions: 94000004 cycles: 123789565 heartbeat IPC: 0.400462 cumulative IPC: 0.402455 (Simulation time: 1 hr 6 min 24 sec) 

Region of Interest Statistics
cpu0_DTLB TOTAL     ACCESS:   10980077  HIT:    9981476  MISS:     998601
cpu0_DTLB LOAD      ACCESS:    9768874  HIT:    8860561  MISS:     908313
cpu0_DTLB RFO       ACCESS:    1211203  HIT:    1120915  MISS:      90288
cpu0_DTLB PREFETCH  ACCESS:          0  HIT:          0  MISS:          0
cpu0_DTLB WRITEBACK ACCESS:          0  HIT:          0  MISS:          0
cpu0_ITLB TOTAL     ACCESS:    5677240  HIT:    5677232  MISS:          8
cpu0_ITLB LOAD      ACCESS:    5677240  HIT:    5677232  MISS:          8
cpu0_ITLB RFO       ACCESS:          0  HIT:          0  MISS:          0
cpu0_ITLB PREFETCH  ACCESS:          0  HIT:          0  MISS:          0
cpu0_ITLB WRITEBACK ACCESS:          0  HIT:          0  MISS:          0
cpu0_L1I TOTAL     ACCESS:       1334  HIT:       1229  MISS:        105
cpu0_L1I LOAD      ACCESS:       1334  HIT:       1229  MISS:        105
cpu0_L1I RFO       ACCESS:          0  HIT:          0  MISS:          0
cpu0_L1I PREFETCH  ACCESS:          0  HIT:          0  MISS:          0
cpu0_L1I WRITEBACK ACCESS:          0  HIT:          0  MISS:          0
cpu0_STLB TOTAL     ACCESS:     998609  HIT:     811728  MISS:     186881
cpu0_STLB LOAD      ACCESS:     908321  HIT:     738624  MISS:     169697
cpu0_STLB RFO       ACCESS:      90288  HIT:      73104  MISS:      17184
cpu0_STLB PREFETCH  ACCESS:          0  HIT:          0  MISS:          0
cpu0_STLB WRITEBACK ACCESS:          0  HIT:          0  MISS:          0
cpu0_L1D TOTAL     ACCESS:   10973255  HIT:    9756207  MISS:    1217048
cpu0_L1D LOAD      ACCESS:    8927078  HIT:    7725888  MISS:    1201190
cpu0_L1D RFO       ACCESS:    1870837  HIT:    1855656  MISS:      15181
cpu0_L1D PREFETCH  ACCESS:          0  HIT:          0  MISS:          0
cpu0_L1D WRITEBACK ACCESS:          0  HIT:          0  MISS:          0
cpu0_L2C TOTAL     ACCESS:    1614476  HIT:     533635  MISS:    1080841
cpu0_L2C LOAD      ACCESS:    1201242  HIT:     135371  MISS:    1065871
cpu0_L2C RFO       ACCESS:      15179  HIT:       5269  MISS:       9910
cpu0_L2C PREFETCH  ACCESS:          0  HIT:          0  MISS:          0
cpu0_L2C WRITEBACK ACCESS:     397378  HIT:     392830  MISS:       4548
LLC TOTAL     ACCESS:    1432478  HIT:    1335275  MISS:      97203
LLC LOAD      ACCESS:    1065821  HIT:     968869  MISS:      96952
LLC RFO       ACCESS:       9910  HIT:       9667  MISS:        243
LLC PREFETCH  ACCESS:          0  HIT:          0  MISS:          0
LLC WRITEBACK ACCESS:     356235  HIT:     356235  MISS:          0
Heartbeat CPU 0 instructions: 96000001 cycles: 128534406 heartbeat IPC: 0.42151 cumulative IPC: 0.403248 (Simulation time: 1 hr 7 min 46 sec) 

Region of Interest Statistics
cpu0_DTLB TOTAL     ACCESS:   11476335  HIT:   10438205  MISS:    1038130
cpu0_DTLB LOAD      ACCESS:   10210550  HIT:    9266291  MISS:     944259
cpu0_DTLB RFO       ACCESS:    1265785  HIT:    1171914  MISS:      93871
cpu0_DTLB PREFETCH  ACCESS:          0  HIT:          0  MISS:          0
cpu0_DTLB WRITEBACK ACCESS:          0  HIT:          0  MISS:          0
cpu0_ITLB TOTAL     ACCESS:    5934400  HIT:    5934392  MISS:          8
cpu0_ITLB LOAD      ACCESS:    5934400  HIT:    5934392  MISS:          8
cpu0_ITLB RFO       ACCESS:          0  HIT:          0  MISS:          0
cpu0_ITLB PREFETCH  ACCESS:          0  HIT:          0  MISS:          0
cpu0_ITLB WRITEBACK ACCESS:          0  HIT:          0  MISS:          0
cpu0_L1I TOTAL     ACCESS:       1367  HIT:       1262  MISS:        105
cpu0_L1I LOAD      ACCESS:       1367  HIT:       1262  MISS:        105
cpu0_L1I RFO       ACCESS:          0  HIT:          0  MISS:          0
cpu0_L1I PREFETCH  ACCESS:          0  HIT:          0  MISS:          0
cpu0_L1I WRITEBACK ACCESS:          0  HIT:          0  MISS:          0
cpu0_STLB TOTAL     ACCESS:    1038138  HIT:     848640  MISS:     189498
cpu0_STLB LOAD      ACCESS:     944267  HIT:     772040  MISS:     172227
cpu0_STLB RFO       ACCESS:      93871  HIT:      76600  MISS:      17271
cpu0_STLB PREFETCH  ACCESS:          0  HIT:          0  MISS:          0
cpu0_STLB WRITEBACK ACCESS:          0  HIT:          0  MISS:          0
cpu0_L1D TOTAL     ACCESS:   11463240  HIT:   10196298  MISS:    1266942
cpu0_L1D LOAD      ACCESS:    9329683  HIT:    8079304  MISS:    1250379
cpu0_L1D RFO       ACCESS:    1955674  HIT:    1939812  MISS:      15862
cpu0_L1D PREFETCH  ACCESS:          0  HIT:          0  MISS:          0
cpu0_L1D WRITEBACK ACCESS:          0  HIT:          0  MISS:          0
cpu0_L2C TOTAL     ACCESS:    1681295  HIT:     555966  MISS:    1125329
cpu0_L2C LOAD      ACCESS:    1250431  HIT:     140622  MISS:    1109809
cpu0_L2C RFO       ACCESS:      15860  HIT:       5559  MISS:      10301
cpu0_L2C PREFETCH  ACCESS:          0  HIT:          0  MISS:          0
cpu0_L2C WRITEBACK ACCESS:     414303  HIT:     409602  MISS:       4701
LLC TOTAL     ACCESS:    1492015  HIT:    1390496  MISS:     101519
LLC LOAD      ACCESS:    1109756  HIT:    1008488  MISS:     101268
LLC RFO       ACCESS:      10301  HIT:      10058  MISS:        243
LLC PREFETCH  ACCESS:          0  HIT:          0  MISS:          0
LLC WRITEBACK ACCESS:     371440  HIT:     371440  MISS:          0
Heartbeat CPU 0 instructions: 98000002 cycles: 133391102 heartbeat IPC: 0.411803 cumulative IPC: 0.403597 (Simulation time: 1 hr 9 min 7 sec) 

Region of Interest Statistics
cpu0_DTLB TOTAL     ACCESS:   11974100  HIT:   10888899  MISS:    1085201
cpu0_DTLB LOAD      ACCESS:   10653960  HIT:    9666752  MISS:     987208
cpu0_DTLB RFO       ACCESS:    1320140  HIT:    1222147  MISS:      97993
cpu0_DTLB PREFETCH  ACCESS:          0  HIT:          0  MISS:          0
cpu0_DTLB WRITEBACK ACCESS:          0  HIT:          0  MISS:          0
cpu0_ITLB TOTAL     ACCESS:    6191877  HIT:    6191869  MISS:          8
cpu0_ITLB LOAD      ACCESS:    6191877  HIT:    6191869  MISS:          8
cpu0_ITLB RFO       ACCESS:          0  HIT:          0  MISS:          0
cpu0_ITLB PREFETCH  ACCESS:          0  HIT:          0  MISS:          0
cpu0_ITLB WRITEBACK ACCESS:          0  HIT:          0  MISS:          0
cpu0_L1I TOTAL     ACCESS:       1395  HIT:       1290  MISS:        105
cpu0_L1I LOAD      ACCESS:       1395  HIT:       1290  MISS:        105
cpu0_L1I RFO       ACCESS:          0  HIT:          0  MISS:          0
cpu0_L1I PREFETCH  ACCESS:          0  HIT:          0  MISS:          0
cpu0_L1I WRITEBACK ACCESS:          0  HIT:          0  MISS:          0
cpu0_STLB TOTAL     ACCESS:    1085209  HIT:     895293  MISS:     189916
cpu0_STLB LOAD      ACCESS:     987216  HIT:     814582  MISS:     172634
cpu0_STLB RFO       ACCESS:      97993  HIT:      80711  MISS:      17282
cpu0_STLB PREFETCH  ACCESS:          0  HIT:          0  MISS:          0
cpu0_STLB WRITEBACK ACCESS:          0  HIT:          0  MISS:          0
cpu0_L1D TOTAL     ACCESS:   11950130  HIT:   10628544  MISS:    1321586
cpu0_L1D LOAD      ACCESS:    9731580  HIT:    8427239  MISS:    1304341
cpu0_L1D RFO       ACCESS:    2040266  HIT:    2023731  MISS:      16535
cpu0_L1D PREFETCH  ACCESS:          0  HIT:          0  MISS:          0
cpu0_L1D WRITEBACK ACCESS:          0  HIT:          0  MISS:          0
cpu0_L2C TOTAL     ACCESS:    1754570  HIT:     579420  MISS:    1175150
cpu0_L2C LOAD      ACCESS:    1304392  HIT:     145381  MISS:    1159011
cpu0_L2C RFO       ACCESS:      16533  HIT:       5783  MISS:      10750
cpu0_L2C PREFETCH  ACCESS:          0  HIT:          0  MISS:          0
cpu0_L2C WRITEBACK ACCESS:     432935  HIT:     428065  MISS:       4870
LLC TOTAL     ACCESS:    1558860  HIT:    1453244  MISS:     105616
LLC LOAD      ACCESS:    1158953  HIT:    1053588  MISS:     105365
LLC RFO       ACCESS:      10750  HIT:      10507  MISS:        243
LLC PREFETCH  ACCESS:          0  HIT:          0  MISS:          0
LLC WRITEBACK ACCESS:     388638  HIT:     388638  MISS:          0
Heartbeat CPU 0 instructions: 100000000 cycles: 138187988 heartbeat IPC: 0.416937 cumulative IPC: 0.404114 (Simulation time: 1 hr 10 min 26 sec) 

Region of Interest Statistics
cpu0_DTLB TOTAL     ACCESS:   12461643  HIT:   11328406  MISS:    1133237
cpu0_DTLB LOAD      ACCESS:   11086261  HIT:   10055562  MISS:    1030699
cpu0_DTLB RFO       ACCESS:    1375382  HIT:    1272844  MISS:     102538
cpu0_DTLB PREFETCH  ACCESS:          0  HIT:          0  MISS:          0
cpu0_DTLB WRITEBACK ACCESS:          0  HIT:          0  MISS:          0
cpu0_ITLB TOTAL     ACCESS:    6446535  HIT:    6446527  MISS:          8
cpu0_ITLB LOAD      ACCESS:    6446535  HIT:    6446527  MISS:          8
cpu0_ITLB RFO       ACCESS:          0  HIT:          0  MISS:          0
cpu0_ITLB PREFETCH  ACCESS:          0  HIT:          0  MISS:          0
cpu0_ITLB WRITEBACK ACCESS:          0  HIT:          0  MISS:          0
cpu0_L1I TOTAL     ACCESS:       1410  HIT:       1305  MISS:        105
cpu0_L1I LOAD      ACCESS:       1410  HIT:       1305  MISS:        105
cpu0_L1I RFO       ACCESS:          0  HIT:          0  MISS:          0
cpu0_L1I PREFETCH  ACCESS:          0  HIT:          0  MISS:          0
cpu0_L1I WRITEBACK ACCESS:          0  HIT:          0  MISS:          0
cpu0_STLB TOTAL     ACCESS:    1133245  HIT:     942365  MISS:     190880
cpu0_STLB LOAD      ACCESS:    1030707  HIT:     857152  MISS:     173555
cpu0_STLB RFO       ACCESS:     102538  HIT:      85213  MISS:      17325
cpu0_STLB PREFETCH  ACCESS:          0  HIT:          0  MISS:          0
cpu0_STLB WRITEBACK ACCESS:          0  HIT:          0  MISS:          0
cpu0_L1D TOTAL     ACCESS:   12430096  HIT:   11053028  MISS:    1377068
cpu0_L1D LOAD      ACCESS:   10123844  HIT:    8764614  MISS:    1359230
cpu0_L1D RFO       ACCESS:    2127018  HIT:    2109933  MISS:      17085
cpu0_L1D PREFETCH  ACCESS:          0  HIT:          0  MISS:          0
cpu0_L1D WRITEBACK ACCESS:          0  HIT:          0  MISS:          0
cpu0_L2C TOTAL     ACCESS:    1829611  HIT:     602518  MISS:    1227093
cpu0_L2C LOAD      ACCESS:    1359281  HIT:     149068  MISS:    1210213
cpu0_L2C RFO       ACCESS:      17083  HIT:       5923  MISS:      11160
cpu0_L2C PREFETCH  ACCESS:          0  HIT:          0  MISS:          0
cpu0_L2C WRITEBACK ACCESS:     452494  HIT:     447336  MISS:       5158
LLC TOTAL     ACCESS:    1628962  HIT:    1519084  MISS:     109878
LLC LOAD      ACCESS:    1210153  HIT:    1100526  MISS:     109627
LLC RFO       ACCESS:      11160  HIT:      10917  MISS:        243
LLC PREFETCH  ACCESS:          0  HIT:          0  MISS:          0
LLC WRITEBACK ACCESS:     407087  HIT:     407087  MISS:          0
Heartbeat CPU 0 instructions: 102000000 cycles: 142953709 heartbeat IPC: 0.419664 cumulative IPC: 0.404691 (Simulation time: 1 hr 11 min 50 sec) 

Region of Interest Statistics
cpu0_DTLB TOTAL     ACCESS:   12949749  HIT:   11770200  MISS:    1179549
cpu0_DTLB LOAD      ACCESS:   11519603  HIT:   10447135  MISS:    1072468
cpu0_DTLB RFO       ACCESS:    1430146  HIT:    1323065  MISS:     107081
cpu0_DTLB PREFETCH  ACCESS:          0  HIT:          0  MISS:          0
cpu0_DTLB WRITEBACK ACCESS:          0  HIT:          0  MISS:          0
cpu0_ITLB TOTAL     ACCESS:    6701278  HIT:    6701270  MISS:          8
cpu0_ITLB LOAD      ACCESS:    6701278  HIT:    6701270  MISS:          8
cpu0_ITLB RFO       ACCESS:          0  HIT:          0  MISS:          0
cpu0_ITLB PREFETCH  ACCESS:          0  HIT:          0  MISS:          0
cpu0_ITLB WRITEBACK ACCESS:          0  HIT:          0  MISS:          0
cpu0_L1I TOTAL     ACCESS:       1420  HIT:       1315  MISS:        105
cpu0_L1I LOAD      ACCESS:       1420  HIT:       1315  MISS:        105
cpu0_L1I RFO       ACCESS:          0  HIT:          0  MISS:          0
cpu0_L1I PREFETCH  ACCESS:          0  HIT:          0  MISS:          0
cpu0_L1I WRITEBACK ACCESS:          0  HIT:          0  MISS:          0
cpu0_STLB TOTAL     ACCESS:    1179558  HIT:     988189  MISS:     191369
cpu0_STLB LOAD      ACCESS:    1072477  HIT:     898439  MISS:     174038
cpu0_STLB RFO       ACCESS:     107081  HIT:      89750  MISS:      17331
cpu0_STLB PREFETCH  ACCESS:          0  HIT:          0  MISS:          0
cpu0_STLB WRITEBACK ACCESS:          0  HIT:          0  MISS:          0
cpu0_L1D TOTAL     ACCESS:   12910122  HIT:   11478280  MISS:    1431842
cpu0_L1D LOAD      ACCESS:   10517548  HIT:    9104210  MISS:    1413338
cpu0_L1D RFO       ACCESS:    2212858  HIT:    2195155  MISS:      17703
cpu0_L1D PREFETCH  ACCESS:          0  HIT:          0  MISS:          0
cpu0_L1D WRITEBACK ACCESS:          0  HIT:          0  MISS:          0
cpu0_L2C TOTAL     ACCESS:    1903363  HIT:     625953  MISS:    1277410
cpu0_L2C LOAD      ACCESS:    1413386  HIT:     153518  MISS:    1259868
cpu0_L2C RFO       ACCESS:      17701  HIT:       6103  MISS:      11598
cpu0_L2C PREFETCH  ACCESS:          0  HIT:          0  MISS:          0
cpu0_L2C WRITEBACK ACCESS:     471475  HIT:     466140  MISS:       5335
LLC TOTAL     ACCESS:    1696919  HIT:    1582653  MISS:     114266
LLC LOAD      ACCESS:    1259804  HIT:    1145789  MISS:     114015
LLC RFO       ACCESS:      11598  HIT:      11355  MISS:        243
LLC PREFETCH  ACCESS:          0  HIT:          0  MISS:          0
LLC WRITEBACK ACCESS:     424908  HIT:     424908  MISS:          0
Heartbeat CPU 0 instructions: 104000000 cycles: 148054535 heartbeat IPC: 0.392093 cumulative IPC: 0.40421 (Simulation time: 1 hr 13 min 7 sec) 

Region of Interest Statistics
cpu0_DTLB TOTAL     ACCESS:   13446497  HIT:   12216759  MISS:    1229738
cpu0_DTLB LOAD      ACCESS:   11961861  HIT:   10843024  MISS:    1118837
cpu0_DTLB RFO       ACCESS:    1484636  HIT:    1373735  MISS:     110901
cpu0_DTLB PREFETCH  ACCESS:          0  HIT:          0  MISS:          0
cpu0_DTLB WRITEBACK ACCESS:          0  HIT:          0  MISS:          0
cpu0_ITLB TOTAL     ACCESS:    6959494  HIT:    6959486  MISS:          8
cpu0_ITLB LOAD      ACCESS:    6959494  HIT:    6959486  MISS:          8
cpu0_ITLB RFO       ACCESS:          0  HIT:          0  MISS:          0
cpu0_ITLB PREFETCH  ACCESS:          0  HIT:          0  MISS:          0
cpu0_ITLB WRITEBACK ACCESS:          0  HIT:          0  MISS:          0
cpu0_L1I TOTAL     ACCESS:       1429  HIT:       1324  MISS:        105
cpu0_L1I LOAD      ACCESS:       1429  HIT:       1324  MISS:        105
cpu0_L1I RFO       ACCESS:          0  HIT:          0  MISS:          0
cpu0_L1I PREFETCH  ACCESS:          0  HIT:          0  MISS:          0
cpu0_L1I WRITEBACK ACCESS:          0  HIT:          0  MISS:          0
cpu0_STLB TOTAL     ACCESS:    1229746  HIT:    1036295  MISS:     193451
cpu0_STLB LOAD      ACCESS:    1118845  HIT:     942765  MISS:     176080
cpu0_STLB RFO       ACCESS:     110901  HIT:      93530  MISS:      17371
cpu0_STLB PREFETCH  ACCESS:          0  HIT:          0  MISS:          0
cpu0_STLB WRITEBACK ACCESS:          0  HIT:          0  MISS:          0
cpu0_L1D TOTAL     ACCESS:   13399742  HIT:   11908220  MISS:    1491522
cpu0_L1D LOAD      ACCESS:   10919680  HIT:    9447270  MISS:    1472410
cpu0_L1D RFO       ACCESS:    2298290  HIT:    2279988  MISS:      18302
cpu0_L1D PREFETCH  ACCESS:          0  HIT:          0  MISS:          0
cpu0_L1D WRITEBACK ACCESS:          0  HIT:          0  MISS:          0
cpu0_L2C TOTAL     ACCESS:    1982891  HIT:     650168  MISS:    1332723
cpu0_L2C LOAD      ACCESS:    1472457  HIT:     158042  MISS:    1314415
cpu0_L2C RFO       ACCESS:      18300  HIT:       6330  MISS:      11970
cpu0_L2C PREFETCH  ACCESS:          0  HIT:          0  MISS:          0
cpu0_L2C WRITEBACK ACCESS:     491324  HIT:     485596  MISS:       5728
LLC TOTAL     ACCESS:    1770182  HIT:    1651262  MISS:     118920
LLC LOAD      ACCESS:    1314351  HIT:    1195682  MISS:     118669
LLC RFO       ACCESS:      11970  HIT:      11727  MISS:        243
LLC PREFETCH  ACCESS:          0  HIT:          0  MISS:          0
LLC WRITEBACK ACCESS:     443251  HIT:     443251  MISS:          0
Heartbeat CPU 0 instructions: 106000000 cycles: 153042341 heartbeat IPC: 0.400978 cumulative IPC: 0.404094 (Simulation time: 1 hr 14 min 30 sec) 

Region of Interest Statistics
cpu0_DTLB TOTAL     ACCESS:   13944300  HIT:   12668223  MISS:    1276077
cpu0_DTLB LOAD      ACCESS:   12404793  HIT:   11243731  MISS:    1161062
cpu0_DTLB RFO       ACCESS:    1539507  HIT:    1424492  MISS:     115015
cpu0_DTLB PREFETCH  ACCESS:          0  HIT:          0  MISS:          0
cpu0_DTLB WRITEBACK ACCESS:          0  HIT:          0  MISS:          0
cpu0_ITLB TOTAL     ACCESS:    7217290  HIT:    7217282  MISS:          8
cpu0_ITLB LOAD      ACCESS:    7217290  HIT:    7217282  MISS:          8
cpu0_ITLB RFO       ACCESS:          0  HIT:          0  MISS:          0
cpu0_ITLB PREFETCH  ACCESS:          0  HIT:          0  MISS:          0
cpu0_ITLB WRITEBACK ACCESS:          0  HIT:          0  MISS:          0
cpu0_L1I TOTAL     ACCESS:       1452  HIT:       1347  MISS:        105
cpu0_L1I LOAD      ACCESS:       1452  HIT:       1347  MISS:        105
cpu0_L1I RFO       ACCESS:          0  HIT:          0  MISS:          0
cpu0_L1I PREFETCH  ACCESS:          0  HIT:          0  MISS:          0
cpu0_L1I WRITEBACK ACCESS:          0  HIT:          0  MISS:          0
cpu0_STLB TOTAL     ACCESS:    1276085  HIT:    1075504  MISS:     200581
cpu0_STLB LOAD      ACCESS:    1161070  HIT:     978282  MISS:     182788
cpu0_STLB RFO       ACCESS:     115015  HIT:      97222  MISS:      17793
cpu0_STLB PREFETCH  ACCESS:          0  HIT:          0  MISS:          0
cpu0_STLB WRITEBACK ACCESS:          0  HIT:          0  MISS:          0
cpu0_L1D TOTAL     ACCESS:   13895247  HIT:   12347118  MISS:    1548129
cpu0_L1D LOAD      ACCESS:   11322653  HIT:    9794503  MISS:    1528150
cpu0_L1D RFO       ACCESS:    2383860  HIT:    2364761  MISS:      19099
cpu0_L1D PREFETCH  ACCESS:          0  HIT:          0  MISS:          0
cpu0_L1D WRITEBACK ACCESS:          0  HIT:          0  MISS:          0
cpu0_L2C TOTAL     ACCESS:    2058285  HIT:     674681  MISS:    1383604
cpu0_L2C LOAD      ACCESS:    1528196  HIT:     163858  MISS:    1364338
cpu0_L2C RFO       ACCESS:      19097  HIT:       6638  MISS:      12459
cpu0_L2C PREFETCH  ACCESS:          0  HIT:          0  MISS:          0
[...]
cpu0_DTLB TOTAL     ACCESS:  374857052  HIT:  339590438  MISS:   35266614
cpu0_DTLB LOAD      ACCESS:  333779953  HIT:  302197833  MISS:   31582120
cpu0_DTLB RFO       ACCESS:   41077099  HIT:   37392605  MISS:    3684494
cpu0_DTLB PREFETCH  ACCESS:          0  HIT:          0  MISS:          0
cpu0_DTLB WRITEBACK ACCESS:          0  HIT:          0  MISS:          0
cpu0_DTLB TRANSLATION ACCESS:          0  HIT:          0  MISS:          0
cpu0_DTLB PREFETCH  REQUESTED:          0  ISSUED:          0  USEFUL:          0  USELESS:          0
cpu0_DTLB AVERAGE MISS LATENCY: 11.0805 cycles
cpu0_ITLB TOTAL     ACCESS:  193671406  HIT:  193671398  MISS:          8
cpu0_ITLB LOAD      ACCESS:  193671406  HIT:  193671398  MISS:          8
cpu0_ITLB RFO       ACCESS:          0  HIT:          0  MISS:          0
cpu0_ITLB PREFETCH  ACCESS:          0  HIT:          0  MISS:          0
cpu0_ITLB WRITEBACK ACCESS:          0  HIT:          0  MISS:          0
cpu0_ITLB TRANSLATION ACCESS:          0  HIT:          0  MISS:          0
cpu0_ITLB PREFETCH  REQUESTED:          0  ISSUED:          0  USEFUL:          0  USELESS:          0
cpu0_ITLB AVERAGE MISS LATENCY: 245.25 cycles
cpu0_L1I TOTAL     ACCESS:      84617  HIT:      84500  MISS:        117
cpu0_L1I LOAD      ACCESS:      84617  HIT:      84500  MISS:        117
cpu0_L1I RFO       ACCESS:          0  HIT:          0  MISS:          0
cpu0_L1I PREFETCH  ACCESS:          0  HIT:          0  MISS:          0
cpu0_L1I WRITEBACK ACCESS:          0  HIT:          0  MISS:          0
cpu0_L1I TRANSLATION ACCESS:          0  HIT:          0  MISS:          0
cpu0_L1I PREFETCH  REQUESTED:          0  ISSUED:          0  USEFUL:          0  USELESS:          0
cpu0_L1I AVERAGE MISS LATENCY: 189.444 cycles
cpu0_STLB TOTAL     ACCESS:   35266622  HIT:   26056796  MISS:    9209826
cpu0_STLB LOAD      ACCESS:   31582128  HIT:   23488719  MISS:    8093409
cpu0_STLB RFO       ACCESS:    3684494  HIT:    2568077  MISS:    1116417
cpu0_STLB PREFETCH  ACCESS:          0  HIT:          0  MISS:          0
cpu0_STLB WRITEBACK ACCESS:          0  HIT:          0  MISS:          0
cpu0_STLB TRANSLATION ACCESS:          0  HIT:          0  MISS:          0
cpu0_STLB PREFETCH  REQUESTED:          0  ISSUED:          0  USEFUL:          0  USELESS:          0
cpu0_STLB AVERAGE MISS LATENCY: 7.94543 cycles
cpu0_L1D TOTAL     ACCESS:  377252843  HIT:  334222733  MISS:   43030110
cpu0_L1D LOAD      ACCESS:  304900941  HIT:  262464153  MISS:   42436788
cpu0_L1D RFO       ACCESS:   63673682  HIT:   63098683  MISS:     574999
cpu0_L1D PREFETCH  ACCESS:          0  HIT:          0  MISS:          0
cpu0_L1D WRITEBACK ACCESS:          0  HIT:          0  MISS:          0
cpu0_L1D TRANSLATION ACCESS:    8678220  HIT:    8659897  MISS:      18323
cpu0_L1D PREFETCH  REQUESTED:          0  ISSUED:          0  USEFUL:          0  USELESS:          0
cpu0_L1D AVERAGE MISS LATENCY: 43.0568 cycles
cpu0_L2C TOTAL     ACCESS:   57171122  HIT:   18245328  MISS:   38925794
cpu0_L2C LOAD      ACCESS:   42435789  HIT:    4085314  MISS:   38350475
cpu0_L2C RFO       ACCESS:     574974  HIT:     195032  MISS:     379942
cpu0_L2C PREFETCH  ACCESS:          0  HIT:          0  MISS:          0
cpu0_L2C WRITEBACK ACCESS:   14142036  HIT:   13958855  MISS:     183181
cpu0_L2C TRANSLATION ACCESS:      18323  HIT:       6127  MISS:      12196
cpu0_L2C PREFETCH  REQUESTED:          0  ISSUED:          0  USEFUL:          0  USELESS:          0
cpu0_L2C AVERAGE MISS LATENCY: 35.4146 cycles
LLC TOTAL     ACCESS:   51634583  HIT:   48363856  MISS:    3270727
LLC LOAD      ACCESS:   38349048  HIT:   35081788  MISS:    3267260
LLC RFO       ACCESS:     379940  HIT:     376592  MISS:       3348
LLC PREFETCH  ACCESS:          0  HIT:          0  MISS:          0
LLC WRITEBACK ACCESS:   12893399  HIT:   12893381  MISS:         18
LLC TRANSLATION ACCESS:      12196  HIT:      12095  MISS:        101
LLC PREFETCH  REQUESTED:          0  ISSUED:          0  USEFUL:          0  USELESS:          0
LLC AVERAGE MISS LATENCY: 172.737 cycles
~~~~~~~~~~Reuse Distance Profiler output~~~~~~~~~~
0	39707728	14618464
1	28767632	26221520
2	36562496	31573680
3	23775680	20318784
4	22243104	18018352
5	19907104	16696016
6	19397744	17257632
7	16555168	14674784
8	13916160	12712960
9	12572224	11618608
10	11872128	11012576
11	11211024	10333136
12	10091600	9209312
13	9221520	8248464
14	8223856	7129888
15	7280928	6244016
16	6063728	5134272
17	5265568	4274016
18	4168752	3357472
19	3339056	2675776
20	2790432	2186656
21	2374048	1895712
22	1971104	1590464
23	1637552	1312064
24	1390336	1115152
25	1163472	902128
26	969760	727120
27	843920	611056
28	763024	516000
29	648560	433312
30	563568	355072
31	497520	294592
32	433008	251088
33	385536	219552
34	341280	195520
35	308624	178720
36	276816	164208
37	250224	150224
38	225680	138880
39	207328	128032
40	189744	120480
41	174256	109984
42	160816	101856
43	152224	98512
44	142848	91056
45	134768	86240
46	127328	84032
47	118704	78560
48	111600	73472
49	104816	71920
50	99504	69264
51	94848	67120
52	86480	62032
53	82560	61824
54	77680	58464
55	73936	55952
56	72496	55344
57	68816	53072
58	64640	50720
59	60784	47808
60	59504	47440
61	57520	46832
62	52528	42928
63	52144	42576
64	96192	78864
66	89760	76336
68	83072	71344
70	78064	68688
72	72608	64224
74	66992	60336
76	64480	58432
78	60208	54464
80	57216	52688
82	57072	53136
84	51072	47648
86	50032	47328
88	45392	42992
90	42544	40608
92	40912	39072
94	39136	37120
96	39696	38176
98	35936	34688
100	33792	32640
102	32944	31984
104	30656	29984
106	30880	30048
108	28544	27616
110	28752	28000
112	26080	25424
114	24736	24160
116	24672	24144
118	22768	22432
120	22576	22064
122	22576	22256
124	20384	20048
126	19952	19712
128	41488	40944
132	37472	37024
136	33696	33216
140	32816	32544
144	32592	32272
148	31664	31440
152	28224	28032
156	28448	28144
160	27536	27408
164	24336	24240
168	21696	21520
172	22416	22224
176	21664	21504
180	19824	19680
184	19040	18928
188	18048	17968
192	18224	18096
196	17296	17152
200	16112	16064
204	16000	15984
208	14944	14912
212	15584	15488
216	13504	13456
220	12704	12672
224	12304	12128
228	12256	12160
232	12944	12880
236	10928	10880
240	12096	12016
244	11152	11152
248	12000	11968
252	11408	11408
256	21632	21600
264	20480	20432
272	18752	18640
280	17840	17728
288	16192	16128
296	14864	14752
304	14704	14624
312	13840	13792
320	13232	13216
328	12704	12656
336	12144	12096
344	11792	11792
352	11280	11200
360	11296	11248
368	10128	10080
376	9216	9216
384	9472	9456
392	10416	10368
400	9632	9616
408	8576	8544
416	8480	8480
424	8160	8112
432	7056	7056
440	7232	7168
448	6880	6864
456	7040	6976
464	6656	6624
472	6688	6672
480	6464	6448
488	6832	6768
496	5920	5856
504	6016	5968
512	10944	10880
528	11424	11328
544	10800	10752
560	9088	9008
576	9872	9808
592	10112	10000
608	8544	8496
624	8272	8112
640	7072	6960
656	6752	6688
672	7344	7280
688	6576	6560
704	6448	6352
720	6752	6704
736	6656	6528
752	6032	5856
768	6064	5920
784	5296	5152
800	6272	6176
816	5728	5632
832	5952	5792
848	5424	5328
864	4928	4880
880	5296	5232
896	5328	5248
912	5632	5488
928	5664	5584
944	5072	4992
960	5760	5616
976	6000	5840
992	5680	5504
1008	6128	5936
1024	13184	12976
1056	11024	10784
1088	11328	10928
1120	11296	10912
1152	12400	12128
1184	10176	9840
1216	10496	10048
1248	9712	9152
1280	10352	9936
1312	11440	10928
1344	11600	11088
1376	12240	11696
1408	12016	11568
1440	13728	13280
1472	12288	11808
1504	13600	13232
1536	14816	14352
1568	14928	14512
1600	13840	13504
1632	13600	13152
1664	13040	12576
1696	15152	14816
1728	14400	13968
1760	14400	13888
1792	14832	14448
1824	13376	12880
1856	15024	14640
1888	16688	16352
1920	15984	15536
1952	15936	15520
1984	15200	14784
2016	15952	15392
2048	29456	28160
2112	29504	28288
2176	33696	32528
2240	35712	34352
2304	39200	37968
2368	38528	36928
2432	42144	40560
2496	40432	38912
2560	43072	41664
2624	42448	40912
2688	44576	43104
2752	43952	42368
2816	43248	41744
2880	43840	42160
2944	42528	40720
3008	44368	42464
3072	43664	41952
3136	47184	45296
3200	52816	51104
3264	52832	50720
3328	50784	48976
3392	52688	51264
3456	54976	53056
3520	57312	55696
3584	54064	52112
3648	53344	51392
3712	52368	50176
3776	58944	56608
3840	61088	58832
3904	63504	61424
3968	68064	66032
4032	67008	64496
4096	120672	116848
4224	115200	111776
4352	109040	105312
4480	113024	109184
4608	113312	109136
4736	104544	101264
4864	112432	109264
4992	107552	104112
5120	105840	101696
5248	115792	111936
5376	113104	109392
5504	111184	106912
5632	111504	106400
5760	133632	128768
5888	162544	157008
6016	161472	156032
6144	162560	157056
6272	167728	162800
6400	163184	157840
6528	160512	154624
6656	175696	169120
6784	193040	186624
6912	209136	202352
7040	210736	203728
7168	217184	210384
7296	234976	227808
7424	242032	234832
7552	221184	214352
7680	200128	193664
7808	198416	191744
7936	209936	202768
8064	217936	210896
8192	426624	412240
8448	481568	465504
8704	529072	510752
8960	599888	579600
9216	650336	631216
9472	590768	572592
9728	561584	544080
9984	540160	522304
10240	528304	512688
10496	481728	466400
10752	489776	475104
11008	493072	477728
11264	478976	463344
11520	472880	456256
11776	524224	504416
12032	624736	606384
12288	615728	597168
12544	586720	568256
12800	589728	571104
13056	594896	576896
13312	569920	552352
13568	543456	525888
13824	596256	578064
14080	576896	560224
14336	504784	488064
14592	568192	547968
14848	622624	602688
15104	658944	636784
15360	716480	693616
15616	736656	713856
15872	779616	757008
16128	735728	713344
16384	1331952	1288448
16896	1514480	1468608
17408	1267344	1228400
17920	1110720	1078992
18432	803776	780416
18944	804928	780928
19456	828816	802448
19968	797392	772928
20480	806976	780208
20992	839840	816416
21504	662096	643616
22016	499968	484288
22528	501744	486480
23040	459696	444976
23552	427184	415776
24064	336304	325712
24576	307712	298560
25088	244960	238464
25600	229184	222224
26112	224224	217168
26624	203856	197680
27136	193008	187904
27648	161808	158000
28160	111856	108864
28672	80336	77824
29184	78080	76112
29696	77424	75888
30208	62000	60624
30720	42672	41168
31232	55808	54512
31744	60240	58768
32256	59840	58832
32768	114032	110896
33792	170768	165904
34816	163936	159232
35840	292400	283296
36864	326656	316512
37888	343872	333488
38912	334928	324160
39936	336864	327440
40960	237408	229552
41984	288640	280752
43008	239712	233568
44032	79936	78272
45056	21712	21280
46080	16720	16496
47104	17904	17712
48128	16512	16384
49152	14544	14304
50176	13472	13344
51200	14960	14688
52224	12944	12832
53248	12032	11968
54272	11552	11376
55296	9920	9728
56320	8464	8304
57344	7872	7760
58368	8608	8496
59392	7728	7536
60416	8304	8064
61440	7328	7216
62464	8000	7936
63488	8624	8496
64512	7424	7328
65536	13712	13552
67584	14608	14400
69632	13072	12960
71680	15440	15344
73728	13936	13776
75776	14896	14720
77824	14016	13824
79872	13648	13408
81920	11248	11120
83968	12256	12112
86016	10368	10176
88064	7296	7184
90112	5104	5040
92160	4624	4560
94208	4272	4144
96256	4720	4640
98304	4080	4016
100352	4080	4000
102400	3936	3808
104448	4032	4000
106496	3952	3856
108544	4352	4288
110592	4512	4416
112640	3600	3520
114688	4336	4256
116736	3648	3584
118784	3728	3632
120832	3808	3696
122880	3248	3184
124928	3600	3552
126976	3216	3168
129024	2528	2480
131072	4368	4272
135168	3904	3808
139264	4176	4016
143360	3536	3424
147456	3648	3568
151552	3744	3632
155648	3136	2992
159744	3456	3264
163840	2976	2912
167936	2672	2592
172032	2528	2448
176128	2368	2272
180224	1760	1664
184320	1792	1696
188416	1968	1856
192512	1936	1824
196608	1648	1600
200704	1808	1712
204800	1728	1616
208896	1792	1744
212992	1728	1648
217088	1520	1488
221184	1360	1280
225280	912	800
229376	1136	1072
233472	1024	944
237568	1040	960
241664	1024	960
245760	944	912
249856	1008	976
253952	800	768
258048	944	864
262144	1760	1600
270336	1520	1488
278528	1536	1408
286720	1136	1056
294912	1536	1456
303104	1232	1168
311296	1104	992
319488	960	848
327680	1168	1056
335872	944	896
344064	1104	1056
352256	1184	1120
360448	688	640
368640	768	688
376832	912	832
385024	832	800
393216	624	560
401408	640	624
409600	816	720
417792	608	544
425984	640	608
434176	768	704
442368	752	672
450560	464	352
458752	624	576
466944	576	528
475136	448	384
483328	656	608
491520	576	512
499712	448	432
507904	416	352
516096	464	416
524288	1056	944
540672	1056	896
557056	1024	944
573440	1120	1056
589824	976	896
606208	960	912
622592	944	848
638976	688	640
655360	816	736
671744	832	800
688128	832	768
704512	896	832
720896	768	640
737280	912	864
753664	688	640
770048	800	752
786432	656	624
802816	496	464
819200	688	640
835584	480	432
851968	720	688
868352	576	496
884736	880	848
901120	848	816
917504	528	512
933888	576	560
950272	800	784
966656	560	544
983040	640	560
999424	640	608
1015808	512	480
1032192	864	816
1048576	1312	1232
1081344	1216	1136
1114112	1584	1520
1146880	1168	1120
1179648	1488	1440
1212416	992	928
1245184	1200	1152
1277952	944	896
1310720	1328	1280
1343488	1136	1104
1376256	992	944
1409024	784	752
1441792	1024	960
1474560	1024	976
1507328	960	944
1540096	1200	1104
1572864	1136	1136
1605632	768	736
1638400	1120	1072
1671168	1008	960
1703936	1120	1008
1736704	1232	1200
1769472	1088	1056
1802240	1136	1120
1835008	896	880
1867776	1056	1040
1900544	1392	1328
1933312	1232	1216
1966080	1120	1104
1998848	880	848
2031616	848	832
2064384	1024	1008
2097152	1856	1808
2162688	1952	1840
2228224	1872	1760
2293760	1488	1440
2359296	1808	1744
2424832	1488	1408
2490368	1408	1344
2555904	1712	1712
2621440	1648	1648
2686976	1680	1680
2752512	1504	1472
2818048	1984	1984
2883584	2144	2112
2949120	1760	1728
3014656	1696	1648
3080192	2016	2000
3145728	1728	1712
3211264	1840	1792
3276800	1664	1664
3342336	1584	1552
3407872	1440	1392
3473408	1360	1360
3538944	1696	1680
3604480	2224	2192
3670016	2544	2528
3735552	2304	2272
3801088	2752	2704
3866624	2816	2784
3932160	2848	2816
3997696	2480	2464
4063232	2432	2432
4128768	3072	3056
4194304	4672	4656
4325376	3984	3968
4456448	4720	4720
4587520	4720	4672
4718592	3952	3920
4849664	3792	3776
4980736	3872	3856
5111808	4224	4224
5242880	4192	4176
5373952	4208	4160
5505024	4656	4656
5636096	4272	4208
5767168	4352	4288
5898240	3968	3920
6029312	3856	3856
6160384	3360	3360
6291456	3056	3040
6422528	3296	3296
6553600	3264	3248
6684672	3520	3456
6815744	3920	3904
6946816	2880	2832
7077888	2992	2992
7208960	3616	3616
7340032	4480	4448
7471104	4224	4224
7602176	3952	3920
7733248	5344	5344
7864320	4672	4640
7995392	5392	5360
8126464	5408	5376
8257536	4304	4304
8388608	8720	8720
8650752	13712	13712
8912896	19664	19584
9175040	12928	12864
9437184	11152	11120
9699328	19968	19936
9961472	28624	28576
10223616	20064	20048
10485760	21664	21632
10747904	24720	24688
11010048	30144	30128
11272192	30912	30896
11534336	25424	25424
11796480	22576	22576
12058624	19632	19632
12320768	17072	17072
12582912	14304	14288
12845056	12784	12768
13107200	12288	12288
13369344	16464	16448
13631488	21872	21872
13893632	23712	23712
14155776	23440	23424
14417920	20736	20736
14680064	17904	17904
14942208	17216	17168
15204352	20656	20528
15466496	22288	22288
15728640	21248	21248
15990784	22896	22896
16252928	22864	22864
16515072	22672	22672
16777216	51952	51952
17301504	38608	38576
17825792	38096	38096
18350080	37456	37424
18874368	40736	40736
19398656	55968	55952
19922944	49392	49392
20447232	35136	35104
20971520	37520	37504
21495808	42832	42832
22020096	44288	44288
22544384	35824	35808
23068672	27872	27840
23592960	31056	31040
24117248	30736	30736
24641536	31616	31616
25165824	32256	32256
25690112	34720	34720
26214400	38864	38864
26738688	37280	37280
27262976	31488	31488
27787264	29856	29824
28311552	27648	27648
28835840	25120	25088
29360128	20336	20336
29884416	18208	18208
30408704	19696	19696
30932992	19520	19520
31457280	19696	19696
31981568	20528	20528
32505856	22688	22688
33030144	24864	24864
33554432	88864	88864
34603008	77152	77136
35651584	67616	67616
36700160	55632	55616
37748736	44528	44528
38797312	57040	57008
39845888	40736	40736
40894464	39600	39600
41943040	42496	42496
42991616	39232	39232
44040192	72400	72352
45088768	50000	49936
46137344	51424	51424
47185920	57344	57344
48234496	52752	52720
49283072	54656	54656
50331648	20928	20864
51380224	20608	20592
52428800	24288	24288
53477376	23456	23424
54525952	18192	18192
55574528	34544	34544
56623104	21184	21184
57671680	25280	25264
58720256	7424	7424
59768832	10416	10416
60817408	61392	61392
61865984	18928	18928
62914560	8304	8304
63963136	4496	4496
65011712	4656	4560
66060288	7568	7568
67108864	10256	10224
69206016	24112	24112
71303168	18656	18656
73400320	5696	5696
75497472	6288	6288
77594624	30528	30512
79691776	18064	18064
81788928	528	528
83886080	1424	1424
85983232	480	480
88080384	416	416
90177536	5008	4992
92274688	6544	6544
94371840	4272	4272
96468992	528	512
98566144	0	0
100663296	48	48
102760448	9200	9200
104857600	2144	2144
106954752	0	0
109051904	0	0
111149056	0	0
113246208	16	16
115343360	0	0
117440512	0	0
119537664	0	0
121634816	0	0
123731968	0	0
125829120	0	0
127926272	0	0
130023424	0	0
132120576	0	0
134217728	0	0
138412032	0	0
142606336	0	0
146800640	176	0
150994944	0	0
155189248	0	0
159383552	0	0
163577856	0	0
167772160	0	0
171966464	0	0
176160768	0	0
180355072	0	0
184549376	0	0
188743680	0	0
192937984	0	0
197132288	0	0
201326592	0	0
205520896	0	0
209715200	0	0
213909504	0	0
218103808	0	0
222298112	144	16
226492416	0	0
230686720	0	0
234881024	0	0
239075328	0	0
243269632	0	0
247463936	0	0
251658240	0	0
255852544	0	0
260046848	0	0
264241152	0	0
268435456	0	0
276824064	0	0
285212672	0	0
293601280	0	0
301989888	0	0
310378496	0	0
318767104	0	0
327155712	0	0
335544320	0	0
343932928	0	0
352321536	0	0
360710144	0	0
369098752	0	0
377487360	0	0
385875968	0	0
394264576	0	0
402653184	0	0
411041792	0	0
419430400	0	0
427819008	0	0
436207616	0	0
444596224	0	0
452984832	0	0
461373440	0	0
469762048	0	0
478150656	0	0
486539264	0	0
494927872	0	0
503316480	0	0
511705088	0	0
520093696	0	0
528482304	0	0
536870912	0	0
553648128	0	0
570425344	0	0
587202560	0	0
603979776	0	0
620756992	0	0
637534208	0	0
654311424	0	0
671088640	0	0
687865856	0	0
704643072	0	0
721420288	0	0
738197504	0	0
754974720	0	0
771751936	0	0
788529152	0	0
805306368	0	0
822083584	0	0
838860800	0	0
855638016	0	0
872415232	0	0
889192448	0	0
905969664	0	0
922746880	0	0
939524096	0	0
956301312	0	0
973078528	0	0
989855744	0	0
1006632960	0	0
1023410176	0	0
1040187392	0	0
1056964608	0	0
1073741824	0	0
1107296256	0	0
1140850688	0	0
1174405120	0	0
1207959552	0	0
1241513984	0	0
1275068416	0	0
1308622848	0	0
1342177280	0	0
1375731712	0	0
1409286144	0	0
1442840576	0	0
1476395008	0	0
1509949440	0	0
1543503872	0	0
1577058304	0	0
1610612736	0	0
1644167168	0	0
1677721600	0	0
1711276032	0	0
1744830464	0	0
1778384896	0	0
1811939328	0	0
1845493760	0	0
1879048192	0	0
1912602624	0	0
1946157056	0	0
1979711488	0	0
2013265920	0	0
2046820352	0	0
2080374784	0	0
2113929216	0	0
2147483648	0	0
2214592512	0	0
2281701376	0	0
2348810240	0	0
2415919104	0	0
2483027968	0	0
2550136832	0	0
2617245696	0	0
2684354560	0	0
2751463424	0	0
2818572288	0	0
2885681152	0	0
2952790016	0	0
3019898880	0	0
3087007744	0	0
3154116608	0	0
3221225472	0	0
3288334336	0	0
3355443200	0	0
3422552064	0	0
3489660928	0	0
3556769792	0	0
3623878656	0	0
3690987520	0	0
3758096384	0	0
3825205248	0	0
3892314112	0	0
3959422976	0	0
4026531840	0	0
4093640704	0	0
4160749568	0	0
4227858432	0	0
~~~~~~~~~~Reuse Distance Profiler output end~~~~~~~~~~

Sampler size:20444

DRAM Statistics
 CHANNEL 0
 RQ ROW_BUFFER_HIT:       2681  ROW_BUFFER_MISS:    3267672
 DBUS AVG_CONGESTED_CYCLE:    3.52743
 WQ ROW_BUFFER_HIT:     103151  ROW_BUFFER_MISS:    1921181  FULL:          0


CPU 0 Branch Prediction Accuracy: 69.4253% MPKI: 57.746 Average ROB Occupancy at Mispredict: 5.45988
Branch type MPKI
BRANCH_DIRECT_JUMP: 2.46667e-05
BRANCH_INDIRECT: 0
BRANCH_CONDITIONAL: 57.746
BRANCH_DIRECT_CALL: 1.2e-05
BRANCH_INDIRECT_CALL: 0
BRANCH_RETURN: 1.33333e-05

