
*** ChampSim Multicore Out-of-Order Simulator ***

Warmup Instructions: 50000000
Simulation Instructions: 1500000000
Number of CPUs: 1
Off-chip DRAM Size: 4 GiB Channels: 1 Width: 64-bit Data Rate: 3200 MT/s

VirtualMemory physical capacity: 8588881920 num_ppages: 2096895
VirtualMemory page size: 4096 log2_page_size: 12

CPU 0 runs /s/traces/champsim_traces/481.wrf-1254B.champsimtrace.xz
CPU 0 Bimodal branch predictor
Basic BTB sets: 1024 ways: 8 indirect buffer size: 4096 RAS size: 64
Initializing LRU.
Initializing LRU.
Initializing LRU.
Initializing LRU.
Initializing rdLRU.
Initializing LRU.
Initializing LRU.
Heartbeat CPU 0 instructions: 2000004 cycles: 501678 heartbeat IPC: 3.98663 cumulative IPC: 3.98663 (Simulation time: 0 hr 1 min 16 sec) 
Heartbeat CPU 0 instructions: 4000000 cycles: 1004660 heartbeat IPC: 3.97628 cumulative IPC: 3.98145 (Simulation time: 0 hr 2 min 30 sec) 
Heartbeat CPU 0 instructions: 6000004 cycles: 1530793 heartbeat IPC: 3.80133 cumulative IPC: 3.91954 (Simulation time: 0 hr 3 min 48 sec) 
Heartbeat CPU 0 instructions: 8000003 cycles: 2063634 heartbeat IPC: 3.75346 cumulative IPC: 3.87666 (Simulation time: 0 hr 5 min 5 sec) 
Heartbeat CPU 0 instructions: 10000001 cycles: 2596489 heartbeat IPC: 3.75336 cumulative IPC: 3.85136 (Simulation time: 0 hr 6 min 21 sec) 
Heartbeat CPU 0 instructions: 12000000 cycles: 3118989 heartbeat IPC: 3.82775 cumulative IPC: 3.8474 (Simulation time: 0 hr 7 min 26 sec) 
Heartbeat CPU 0 instructions: 14000001 cycles: 3626097 heartbeat IPC: 3.94393 cumulative IPC: 3.8609 (Simulation time: 0 hr 8 min 18 sec) 
Heartbeat CPU 0 instructions: 16000000 cycles: 4189933 heartbeat IPC: 3.54713 cumulative IPC: 3.81868 (Simulation time: 0 hr 9 min 30 sec) 
Heartbeat CPU 0 instructions: 18000002 cycles: 4760885 heartbeat IPC: 3.50292 cumulative IPC: 3.78081 (Simulation time: 0 hr 10 min 43 sec) 
Heartbeat CPU 0 instructions: 20000000 cycles: 5324712 heartbeat IPC: 3.54718 cumulative IPC: 3.75607 (Simulation time: 0 hr 11 min 54 sec) 
Heartbeat CPU 0 instructions: 22000000 cycles: 5888556 heartbeat IPC: 3.54708 cumulative IPC: 3.73606 (Simulation time: 0 hr 13 min 5 sec) 
Heartbeat CPU 0 instructions: 24000001 cycles: 6459492 heartbeat IPC: 3.50302 cumulative IPC: 3.71546 (Simulation time: 0 hr 14 min 19 sec) 
Heartbeat CPU 0 instructions: 26000003 cycles: 7023332 heartbeat IPC: 3.54711 cumulative IPC: 3.70195 (Simulation time: 0 hr 15 min 29 sec) 
Heartbeat CPU 0 instructions: 28000002 cycles: 7587797 heartbeat IPC: 3.54318 cumulative IPC: 3.69014 (Simulation time: 0 hr 16 min 43 sec) 
Heartbeat CPU 0 instructions: 30000003 cycles: 8158103 heartbeat IPC: 3.50689 cumulative IPC: 3.67733 (Simulation time: 0 hr 17 min 58 sec) 
Heartbeat CPU 0 instructions: 32000000 cycles: 8721948 heartbeat IPC: 3.54707 cumulative IPC: 3.66891 (Simulation time: 0 hr 19 min 10 sec) 
Heartbeat CPU 0 instructions: 34000004 cycles: 9287903 heartbeat IPC: 3.53386 cumulative IPC: 3.66068 (Simulation time: 0 hr 20 min 24 sec) 
Heartbeat CPU 0 instructions: 36000001 cycles: 9856729 heartbeat IPC: 3.51601 cumulative IPC: 3.65233 (Simulation time: 0 hr 21 min 34 sec) 
Heartbeat CPU 0 instructions: 38000000 cycles: 10420569 heartbeat IPC: 3.5471 cumulative IPC: 3.64663 (Simulation time: 0 hr 22 min 39 sec) 
Heartbeat CPU 0 instructions: 40000003 cycles: 10994895 heartbeat IPC: 3.48235 cumulative IPC: 3.63805 (Simulation time: 0 hr 23 min 40 sec) 
Heartbeat CPU 0 instructions: 42000000 cycles: 11599756 heartbeat IPC: 3.30654 cumulative IPC: 3.62077 (Simulation time: 0 hr 24 min 48 sec) 
Heartbeat CPU 0 instructions: 44000001 cycles: 12194133 heartbeat IPC: 3.36487 cumulative IPC: 3.60829 (Simulation time: 0 hr 26 min 1 sec) 
Heartbeat CPU 0 instructions: 46000003 cycles: 12798997 heartbeat IPC: 3.30653 cumulative IPC: 3.59403 (Simulation time: 0 hr 27 min 19 sec) 
Heartbeat CPU 0 instructions: 48000000 cycles: 13393374 heartbeat IPC: 3.36486 cumulative IPC: 3.58386 (Simulation time: 0 hr 28 min 29 sec) 
Heartbeat CPU 0 instructions: 50000002 cycles: 13998237 heartbeat IPC: 3.30654 cumulative IPC: 3.57188 (Simulation time: 0 hr 29 min 43 sec) 

Warmup complete CPU 0 instructions: 50000002 cycles: 13998237 (Simulation time: 0 hr 29 min 43 sec) 

Heartbeat CPU 0 instructions: 52000001 cycles: 15026596 heartbeat IPC: 1.94485 cumulative IPC: 1.94485 (Simulation time: 0 hr 31 min 29 sec) 

Region of Interest Statistics
cpu0_DTLB TOTAL     ACCESS:     418015  HIT:     417907  MISS:        108
cpu0_DTLB LOAD      ACCESS:     377016  HIT:     376908  MISS:        108
cpu0_DTLB RFO       ACCESS:      40999  HIT:      40999  MISS:          0
cpu0_DTLB PREFETCH  ACCESS:          0  HIT:          0  MISS:          0
cpu0_DTLB WRITEBACK ACCESS:          0  HIT:          0  MISS:          0
cpu0_ITLB TOTAL     ACCESS:      19730  HIT:      19730  MISS:          0
cpu0_ITLB LOAD      ACCESS:      19730  HIT:      19730  MISS:          0
cpu0_ITLB RFO       ACCESS:          0  HIT:          0  MISS:          0
cpu0_ITLB PREFETCH  ACCESS:          0  HIT:          0  MISS:          0
cpu0_ITLB WRITEBACK ACCESS:          0  HIT:          0  MISS:          0
cpu0_L1I TOTAL     ACCESS:        856  HIT:        856  MISS:          0
cpu0_L1I LOAD      ACCESS:        856  HIT:        856  MISS:          0
cpu0_L1I RFO       ACCESS:          0  HIT:          0  MISS:          0
cpu0_L1I PREFETCH  ACCESS:          0  HIT:          0  MISS:          0
cpu0_L1I WRITEBACK ACCESS:          0  HIT:          0  MISS:          0
cpu0_STLB TOTAL     ACCESS:        108  HIT:         59  MISS:         49
cpu0_STLB LOAD      ACCESS:        108  HIT:         59  MISS:         49
cpu0_STLB RFO       ACCESS:          0  HIT:          0  MISS:          0
cpu0_STLB PREFETCH  ACCESS:          0  HIT:          0  MISS:          0
cpu0_STLB WRITEBACK ACCESS:          0  HIT:          0  MISS:          0
cpu0_L1D TOTAL     ACCESS:     320419  HIT:     313439  MISS:       6980
cpu0_L1D LOAD      ACCESS:     254454  HIT:     247536  MISS:       6918
cpu0_L1D RFO       ACCESS:      65916  HIT:      65860  MISS:         56
cpu0_L1D PREFETCH  ACCESS:          0  HIT:          0  MISS:          0
cpu0_L1D WRITEBACK ACCESS:          0  HIT:          0  MISS:          0
cpu0_L2C TOTAL     ACCESS:       9366  HIT:       2563  MISS:       6803
cpu0_L2C LOAD      ACCESS:       6918  HIT:        210  MISS:       6708
cpu0_L2C RFO       ACCESS:         56  HIT:         56  MISS:          0
cpu0_L2C PREFETCH  ACCESS:          0  HIT:          0  MISS:          0
cpu0_L2C WRITEBACK ACCESS:       2386  HIT:       2294  MISS:         92
LLC TOTAL     ACCESS:       8969  HIT:       2398  MISS:       6571
LLC LOAD      ACCESS:       6708  HIT:        137  MISS:       6571
LLC RFO       ACCESS:          0  HIT:          0  MISS:          0
LLC PREFETCH  ACCESS:          0  HIT:          0  MISS:          0
LLC WRITEBACK ACCESS:       2258  HIT:       2258  MISS:          0
Heartbeat CPU 0 instructions: 54000000 cycles: 16065274 heartbeat IPC: 1.92552 cumulative IPC: 1.93514 (Simulation time: 0 hr 33 min 14 sec) 

Region of Interest Statistics
cpu0_DTLB TOTAL     ACCESS:     845975  HIT:     845757  MISS:        218
cpu0_DTLB LOAD      ACCESS:     764476  HIT:     764258  MISS:        218
cpu0_DTLB RFO       ACCESS:      81499  HIT:      81499  MISS:          0
cpu0_DTLB PREFETCH  ACCESS:          0  HIT:          0  MISS:          0
cpu0_DTLB WRITEBACK ACCESS:          0  HIT:          0  MISS:          0
cpu0_ITLB TOTAL     ACCESS:      40061  HIT:      40061  MISS:          0
cpu0_ITLB LOAD      ACCESS:      40061  HIT:      40061  MISS:          0
cpu0_ITLB RFO       ACCESS:          0  HIT:          0  MISS:          0
cpu0_ITLB PREFETCH  ACCESS:          0  HIT:          0  MISS:          0
cpu0_ITLB WRITEBACK ACCESS:          0  HIT:          0  MISS:          0
cpu0_L1I TOTAL     ACCESS:       1769  HIT:       1769  MISS:          0
cpu0_L1I LOAD      ACCESS:       1769  HIT:       1769  MISS:          0
cpu0_L1I RFO       ACCESS:          0  HIT:          0  MISS:          0
cpu0_L1I PREFETCH  ACCESS:          0  HIT:          0  MISS:          0
cpu0_L1I WRITEBACK ACCESS:          0  HIT:          0  MISS:          0
cpu0_STLB TOTAL     ACCESS:        218  HIT:        133  MISS:         85
cpu0_STLB LOAD      ACCESS:        218  HIT:        133  MISS:         85
cpu0_STLB RFO       ACCESS:          0  HIT:          0  MISS:          0
cpu0_STLB PREFETCH  ACCESS:          0  HIT:          0  MISS:          0
cpu0_STLB WRITEBACK ACCESS:          0  HIT:          0  MISS:          0
cpu0_L1D TOTAL     ACCESS:     650655  HIT:     636604  MISS:      14051
cpu0_L1D LOAD      ACCESS:     516491  HIT:     502567  MISS:      13924
cpu0_L1D RFO       ACCESS:     134079  HIT:     133962  MISS:        117
cpu0_L1D PREFETCH  ACCESS:          0  HIT:          0  MISS:          0
cpu0_L1D WRITEBACK ACCESS:          0  HIT:          0  MISS:          0
cpu0_L2C TOTAL     ACCESS:      18842  HIT:       5164  MISS:      13678
cpu0_L2C LOAD      ACCESS:      13924  HIT:        442  MISS:      13482
cpu0_L2C RFO       ACCESS:        117  HIT:        117  MISS:          0
cpu0_L2C PREFETCH  ACCESS:          0  HIT:          0  MISS:          0
cpu0_L2C WRITEBACK ACCESS:       4791  HIT:       4600  MISS:        191
LLC TOTAL     ACCESS:      18055  HIT:       4981  MISS:      13074
LLC LOAD      ACCESS:      13482  HIT:        411  MISS:      13071
LLC RFO       ACCESS:          0  HIT:          0  MISS:          0
LLC PREFETCH  ACCESS:          0  HIT:          0  MISS:          0
LLC WRITEBACK ACCESS:       4568  HIT:       4565  MISS:          3
Heartbeat CPU 0 instructions: 56000002 cycles: 17104707 heartbeat IPC: 1.92413 cumulative IPC: 1.93145 (Simulation time: 0 hr 35 min 1 sec) 

Region of Interest Statistics
cpu0_DTLB TOTAL     ACCESS:    1263458  HIT:    1263132  MISS:        326
cpu0_DTLB LOAD      ACCESS:    1141364  HIT:    1141038  MISS:        326
cpu0_DTLB RFO       ACCESS:     122094  HIT:     122094  MISS:          0
cpu0_DTLB PREFETCH  ACCESS:          0  HIT:          0  MISS:          0
cpu0_DTLB WRITEBACK ACCESS:          0  HIT:          0  MISS:          0
cpu0_ITLB TOTAL     ACCESS:      59609  HIT:      59609  MISS:          0
cpu0_ITLB LOAD      ACCESS:      59609  HIT:      59609  MISS:          0
cpu0_ITLB RFO       ACCESS:          0  HIT:          0  MISS:          0
cpu0_ITLB PREFETCH  ACCESS:          0  HIT:          0  MISS:          0
cpu0_ITLB WRITEBACK ACCESS:          0  HIT:          0  MISS:          0
cpu0_L1I TOTAL     ACCESS:       2623  HIT:       2623  MISS:          0
cpu0_L1I LOAD      ACCESS:       2623  HIT:       2623  MISS:          0
cpu0_L1I RFO       ACCESS:          0  HIT:          0  MISS:          0
cpu0_L1I PREFETCH  ACCESS:          0  HIT:          0  MISS:          0
cpu0_L1I WRITEBACK ACCESS:          0  HIT:          0  MISS:          0
cpu0_STLB TOTAL     ACCESS:        326  HIT:        202  MISS:        124
cpu0_STLB LOAD      ACCESS:        326  HIT:        202  MISS:        124
cpu0_STLB RFO       ACCESS:          0  HIT:          0  MISS:          0
cpu0_STLB PREFETCH  ACCESS:          0  HIT:          0  MISS:          0
cpu0_STLB WRITEBACK ACCESS:          0  HIT:          0  MISS:          0
cpu0_L1D TOTAL     ACCESS:     970475  HIT:     949420  MISS:      21055
cpu0_L1D LOAD      ACCESS:     770372  HIT:     749521  MISS:      20851
cpu0_L1D RFO       ACCESS:     199979  HIT:     199790  MISS:        189
cpu0_L1D PREFETCH  ACCESS:          0  HIT:          0  MISS:          0
cpu0_L1D WRITEBACK ACCESS:          0  HIT:          0  MISS:          0
cpu0_L2C TOTAL     ACCESS:      28257  HIT:       7761  MISS:      20496
cpu0_L2C LOAD      ACCESS:      20851  HIT:        657  MISS:      20194
cpu0_L2C RFO       ACCESS:        189  HIT:        189  MISS:          0
cpu0_L2C PREFETCH  ACCESS:          0  HIT:          0  MISS:          0
cpu0_L2C WRITEBACK ACCESS:       7202  HIT:       6908  MISS:        294
LLC TOTAL     ACCESS:      27103  HIT:       7518  MISS:      19585
LLC LOAD      ACCESS:      20194  HIT:        627  MISS:      19567
LLC RFO       ACCESS:          0  HIT:          0  MISS:          0
LLC PREFETCH  ACCESS:          0  HIT:          0  MISS:          0
LLC WRITEBACK ACCESS:       6901  HIT:       6883  MISS:         18
Heartbeat CPU 0 instructions: 58000004 cycles: 18136181 heartbeat IPC: 1.93897 cumulative IPC: 1.93333 (Simulation time: 0 hr 36 min 48 sec) 

Region of Interest Statistics
cpu0_DTLB TOTAL     ACCESS:    1691027  HIT:    1690591  MISS:        436
cpu0_DTLB LOAD      ACCESS:    1528583  HIT:    1528147  MISS:        436
cpu0_DTLB RFO       ACCESS:     162444  HIT:     162444  MISS:          0
cpu0_DTLB PREFETCH  ACCESS:          0  HIT:          0  MISS:          0
cpu0_DTLB WRITEBACK ACCESS:          0  HIT:          0  MISS:          0
cpu0_ITLB TOTAL     ACCESS:      79899  HIT:      79899  MISS:          0
cpu0_ITLB LOAD      ACCESS:      79899  HIT:      79899  MISS:          0
cpu0_ITLB RFO       ACCESS:          0  HIT:          0  MISS:          0
cpu0_ITLB PREFETCH  ACCESS:          0  HIT:          0  MISS:          0
cpu0_ITLB WRITEBACK ACCESS:          0  HIT:          0  MISS:          0
cpu0_L1I TOTAL     ACCESS:       3537  HIT:       3537  MISS:          0
cpu0_L1I LOAD      ACCESS:       3537  HIT:       3537  MISS:          0
cpu0_L1I RFO       ACCESS:          0  HIT:          0  MISS:          0
cpu0_L1I PREFETCH  ACCESS:          0  HIT:          0  MISS:          0
cpu0_L1I WRITEBACK ACCESS:          0  HIT:          0  MISS:          0
cpu0_STLB TOTAL     ACCESS:        436  HIT:        270  MISS:        166
cpu0_STLB LOAD      ACCESS:        436  HIT:        270  MISS:        166
cpu0_STLB RFO       ACCESS:          0  HIT:          0  MISS:          0
cpu0_STLB PREFETCH  ACCESS:          0  HIT:          0  MISS:          0
cpu0_STLB WRITEBACK ACCESS:          0  HIT:          0  MISS:          0
cpu0_L1D TOTAL     ACCESS:    1300851  HIT:    1272741  MISS:      28110
cpu0_L1D LOAD      ACCESS:    1032526  HIT:    1004669  MISS:      27857
cpu0_L1D RFO       ACCESS:     268159  HIT:     267926  MISS:        233
cpu0_L1D PREFETCH  ACCESS:          0  HIT:          0  MISS:          0
cpu0_L1D WRITEBACK ACCESS:          0  HIT:          0  MISS:          0
cpu0_L2C TOTAL     ACCESS:      37707  HIT:      10331  MISS:      27376
cpu0_L2C LOAD      ACCESS:      27857  HIT:        891  MISS:      26966
cpu0_L2C RFO       ACCESS:        233  HIT:        233  MISS:          0
cpu0_L2C PREFETCH  ACCESS:          0  HIT:          0  MISS:          0
cpu0_L2C WRITEBACK ACCESS:       9597  HIT:       9199  MISS:        398
LLC TOTAL     ACCESS:      36131  HIT:      10251  MISS:      25880
LLC LOAD      ACCESS:      26966  HIT:       1109  MISS:      25857
LLC RFO       ACCESS:          0  HIT:          0  MISS:          0
LLC PREFETCH  ACCESS:          0  HIT:          0  MISS:          0
LLC WRITEBACK ACCESS:       9153  HIT:       9130  MISS:         23
Heartbeat CPU 0 instructions: 60000000 cycles: 19155577 heartbeat IPC: 1.96194 cumulative IPC: 1.93898 (Simulation time: 0 hr 38 min 37 sec) 

Region of Interest Statistics
cpu0_DTLB TOTAL     ACCESS:    2108447  HIT:    2107903  MISS:        544
cpu0_DTLB LOAD      ACCESS:    1905716  HIT:    1905172  MISS:        544
cpu0_DTLB RFO       ACCESS:     202731  HIT:     202731  MISS:          0
cpu0_DTLB PREFETCH  ACCESS:          0  HIT:          0  MISS:          0
cpu0_DTLB WRITEBACK ACCESS:          0  HIT:          0  MISS:          0
cpu0_ITLB TOTAL     ACCESS:      99636  HIT:      99636  MISS:          0
cpu0_ITLB LOAD      ACCESS:      99636  HIT:      99636  MISS:          0
cpu0_ITLB RFO       ACCESS:          0  HIT:          0  MISS:          0
cpu0_ITLB PREFETCH  ACCESS:          0  HIT:          0  MISS:          0
cpu0_ITLB WRITEBACK ACCESS:          0  HIT:          0  MISS:          0
cpu0_L1I TOTAL     ACCESS:       4392  HIT:       4392  MISS:          0
cpu0_L1I LOAD      ACCESS:       4392  HIT:       4392  MISS:          0
cpu0_L1I RFO       ACCESS:          0  HIT:          0  MISS:          0
cpu0_L1I PREFETCH  ACCESS:          0  HIT:          0  MISS:          0
cpu0_L1I WRITEBACK ACCESS:          0  HIT:          0  MISS:          0
cpu0_STLB TOTAL     ACCESS:        544  HIT:        336  MISS:        208
cpu0_STLB LOAD      ACCESS:        544  HIT:        336  MISS:        208
cpu0_STLB RFO       ACCESS:          0  HIT:          0  MISS:          0
cpu0_STLB PREFETCH  ACCESS:          0  HIT:          0  MISS:          0
cpu0_STLB WRITEBACK ACCESS:          0  HIT:          0  MISS:          0
cpu0_L1D TOTAL     ACCESS:    1621880  HIT:    1586794  MISS:      35086
cpu0_L1D LOAD      ACCESS:    1287599  HIT:    1252829  MISS:      34770
cpu0_L1D RFO       ACCESS:     334073  HIT:     333783  MISS:        290
cpu0_L1D PREFETCH  ACCESS:          0  HIT:          0  MISS:          0
cpu0_L1D WRITEBACK ACCESS:          0  HIT:          0  MISS:          0
cpu0_L2C TOTAL     ACCESS:      47078  HIT:      12893  MISS:      34185
cpu0_L2C LOAD      ACCESS:      34770  HIT:       1094  MISS:      33676
cpu0_L2C RFO       ACCESS:        290  HIT:        290  MISS:          0
cpu0_L2C PREFETCH  ACCESS:          0  HIT:          0  MISS:          0
cpu0_L2C WRITEBACK ACCESS:      11992  HIT:      11496  MISS:        496
LLC TOTAL     ACCESS:      45148  HIT:      12841  MISS:      32307
LLC LOAD      ACCESS:      33676  HIT:       1425  MISS:      32251
LLC RFO       ACCESS:          0  HIT:          0  MISS:          0
LLC PREFETCH  ACCESS:          0  HIT:          0  MISS:          0
LLC WRITEBACK ACCESS:      11459  HIT:      11403  MISS:         56
Heartbeat CPU 0 instructions: 62000002 cycles: 20172634 heartbeat IPC: 1.96646 cumulative IPC: 1.94351 (Simulation time: 0 hr 40 min 21 sec) 

Region of Interest Statistics
cpu0_DTLB TOTAL     ACCESS:    2536145  HIT:    2535492  MISS:        653
cpu0_DTLB LOAD      ACCESS:    2292843  HIT:    2292190  MISS:        653
cpu0_DTLB RFO       ACCESS:     243302  HIT:     243302  MISS:          0
cpu0_DTLB PREFETCH  ACCESS:          0  HIT:          0  MISS:          0
cpu0_DTLB WRITEBACK ACCESS:          0  HIT:          0  MISS:          0
cpu0_ITLB TOTAL     ACCESS:     120181  HIT:     120181  MISS:          0
cpu0_ITLB LOAD      ACCESS:     120181  HIT:     120181  MISS:          0
cpu0_ITLB RFO       ACCESS:          0  HIT:          0  MISS:          0
cpu0_ITLB PREFETCH  ACCESS:          0  HIT:          0  MISS:          0
cpu0_ITLB WRITEBACK ACCESS:          0  HIT:          0  MISS:          0
cpu0_L1I TOTAL     ACCESS:       5306  HIT:       5306  MISS:          0
cpu0_L1I LOAD      ACCESS:       5306  HIT:       5306  MISS:          0
cpu0_L1I RFO       ACCESS:          0  HIT:          0  MISS:          0
cpu0_L1I PREFETCH  ACCESS:          0  HIT:          0  MISS:          0
cpu0_L1I WRITEBACK ACCESS:          0  HIT:          0  MISS:          0
cpu0_STLB TOTAL     ACCESS:        653  HIT:        407  MISS:        246
cpu0_STLB LOAD      ACCESS:        653  HIT:        407  MISS:        246
cpu0_STLB RFO       ACCESS:          0  HIT:          0  MISS:          0
cpu0_STLB PREFETCH  ACCESS:          0  HIT:          0  MISS:          0
cpu0_STLB WRITEBACK ACCESS:          0  HIT:          0  MISS:          0
cpu0_L1D TOTAL     ACCESS:    1951799  HIT:    1909616  MISS:      42183
cpu0_L1D LOAD      ACCESS:    1549315  HIT:    1507510  MISS:      41805
cpu0_L1D RFO       ACCESS:     402238  HIT:     401889  MISS:        349
cpu0_L1D PREFETCH  ACCESS:          0  HIT:          0  MISS:          0
cpu0_L1D WRITEBACK ACCESS:          0  HIT:          0  MISS:          0
cpu0_L2C TOTAL     ACCESS:      56597  HIT:      15528  MISS:      41069
cpu0_L2C LOAD      ACCESS:      41805  HIT:       1357  MISS:      40448
cpu0_L2C RFO       ACCESS:        349  HIT:        349  MISS:          0
cpu0_L2C PREFETCH  ACCESS:          0  HIT:          0  MISS:          0
cpu0_L2C WRITEBACK ACCESS:      14414  HIT:      13808  MISS:        606
LLC TOTAL     ACCESS:      54264  HIT:      15666  MISS:      38598
LLC LOAD      ACCESS:      40448  HIT:       1928  MISS:      38520
LLC RFO       ACCESS:          0  HIT:          0  MISS:          0
LLC PREFETCH  ACCESS:          0  HIT:          0  MISS:          0
LLC WRITEBACK ACCESS:      13801  HIT:      13723  MISS:         78
Heartbeat CPU 0 instructions: 64000002 cycles: 21190179 heartbeat IPC: 1.96552 cumulative IPC: 1.94662 (Simulation time: 0 hr 42 min 4 sec) 

Region of Interest Statistics
cpu0_DTLB TOTAL     ACCESS:    2953881  HIT:    2953120  MISS:        761
cpu0_DTLB LOAD      ACCESS:    2669838  HIT:    2669077  MISS:        761
cpu0_DTLB RFO       ACCESS:     284043  HIT:     284043  MISS:          0
cpu0_DTLB PREFETCH  ACCESS:          0  HIT:          0  MISS:          0
cpu0_DTLB WRITEBACK ACCESS:          0  HIT:          0  MISS:          0
cpu0_ITLB TOTAL     ACCESS:     139682  HIT:     139682  MISS:          0
cpu0_ITLB LOAD      ACCESS:     139682  HIT:     139682  MISS:          0
cpu0_ITLB RFO       ACCESS:          0  HIT:          0  MISS:          0
cpu0_ITLB PREFETCH  ACCESS:          0  HIT:          0  MISS:          0
cpu0_ITLB WRITEBACK ACCESS:          0  HIT:          0  MISS:          0
cpu0_L1I TOTAL     ACCESS:       6162  HIT:       6162  MISS:          0
cpu0_L1I LOAD      ACCESS:       6162  HIT:       6162  MISS:          0
cpu0_L1I RFO       ACCESS:          0  HIT:          0  MISS:          0
cpu0_L1I PREFETCH  ACCESS:          0  HIT:          0  MISS:          0
cpu0_L1I WRITEBACK ACCESS:          0  HIT:          0  MISS:          0
cpu0_STLB TOTAL     ACCESS:        761  HIT:        478  MISS:        283
cpu0_STLB LOAD      ACCESS:        761  HIT:        478  MISS:        283
cpu0_STLB RFO       ACCESS:          0  HIT:          0  MISS:          0
cpu0_STLB PREFETCH  ACCESS:          0  HIT:          0  MISS:          0
cpu0_STLB WRITEBACK ACCESS:          0  HIT:          0  MISS:          0
cpu0_L1D TOTAL     ACCESS:    2272860  HIT:    2223714  MISS:      49146
cpu0_L1D LOAD      ACCESS:    1804419  HIT:    1755707  MISS:      48712
cpu0_L1D RFO       ACCESS:     468158  HIT:     467757  MISS:        401
cpu0_L1D PREFETCH  ACCESS:          0  HIT:          0  MISS:          0
cpu0_L1D WRITEBACK ACCESS:          0  HIT:          0  MISS:          0
cpu0_L2C TOTAL     ACCESS:      65945  HIT:      18077  MISS:      47868
cpu0_L2C LOAD      ACCESS:      48712  HIT:       1554  MISS:      47158
cpu0_L2C RFO       ACCESS:        401  HIT:        401  MISS:          0
cpu0_L2C PREFETCH  ACCESS:          0  HIT:          0  MISS:          0
cpu0_L2C WRITEBACK ACCESS:      16799  HIT:      16108  MISS:        691
LLC TOTAL     ACCESS:      63302  HIT:      18300  MISS:      45002
LLC LOAD      ACCESS:      47158  HIT:       2249  MISS:      44909
LLC RFO       ACCESS:          0  HIT:          0  MISS:          0
LLC PREFETCH  ACCESS:          0  HIT:          0  MISS:          0
LLC WRITEBACK ACCESS:      16125  HIT:      16032  MISS:         93
Heartbeat CPU 0 instructions: 66000004 cycles: 22248171 heartbeat IPC: 1.89038 cumulative IPC: 1.93941 (Simulation time: 0 hr 43 min 53 sec) 

Region of Interest Statistics
cpu0_DTLB TOTAL     ACCESS:    3367293  HIT:    3366410  MISS:        883
cpu0_DTLB LOAD      ACCESS:    3041841  HIT:    3040962  MISS:        879
cpu0_DTLB RFO       ACCESS:     325452  HIT:     325448  MISS:          4
cpu0_DTLB PREFETCH  ACCESS:          0  HIT:          0  MISS:          0
cpu0_DTLB WRITEBACK ACCESS:          0  HIT:          0  MISS:          0
cpu0_ITLB TOTAL     ACCESS:     160122  HIT:     160120  MISS:          2
cpu0_ITLB LOAD      ACCESS:     160122  HIT:     160120  MISS:          2
cpu0_ITLB RFO       ACCESS:          0  HIT:          0  MISS:          0
cpu0_ITLB PREFETCH  ACCESS:          0  HIT:          0  MISS:          0
cpu0_ITLB WRITEBACK ACCESS:          0  HIT:          0  MISS:          0
cpu0_L1I TOTAL     ACCESS:       7033  HIT:       6990  MISS:         43
cpu0_L1I LOAD      ACCESS:       7033  HIT:       6990  MISS:         43
cpu0_L1I RFO       ACCESS:          0  HIT:          0  MISS:          0
cpu0_L1I PREFETCH  ACCESS:          0  HIT:          0  MISS:          0
cpu0_L1I WRITEBACK ACCESS:          0  HIT:          0  MISS:          0
cpu0_STLB TOTAL     ACCESS:        885  HIT:        546  MISS:        339
cpu0_STLB LOAD      ACCESS:        881  HIT:        546  MISS:        335
cpu0_STLB RFO       ACCESS:          4  HIT:          0  MISS:          4
cpu0_STLB PREFETCH  ACCESS:          0  HIT:          0  MISS:          0
cpu0_STLB WRITEBACK ACCESS:          0  HIT:          0  MISS:          0
cpu0_L1D TOTAL     ACCESS:    2600002  HIT:    2543303  MISS:      56699
cpu0_L1D LOAD      ACCESS:    2063627  HIT:    2007671  MISS:      55956
cpu0_L1D RFO       ACCESS:     536037  HIT:     535337  MISS:        700
cpu0_L1D PREFETCH  ACCESS:          0  HIT:          0  MISS:          0
cpu0_L1D WRITEBACK ACCESS:          0  HIT:          0  MISS:          0
cpu0_L2C TOTAL     ACCESS:      76219  HIT:      20766  MISS:      55453
cpu0_L2C LOAD      ACCESS:      55999  HIT:       1792  MISS:      54207
cpu0_L2C RFO       ACCESS:        700  HIT:        462  MISS:        238
cpu0_L2C PREFETCH  ACCESS:          0  HIT:          0  MISS:          0
cpu0_L2C WRITEBACK ACCESS:      19477  HIT:      18495  MISS:        982
LLC TOTAL     ACCESS:      73157  HIT:      21155  MISS:      52002
LLC LOAD      ACCESS:      54207  HIT:       2552  MISS:      51655
LLC RFO       ACCESS:        238  HIT:          0  MISS:        238
LLC PREFETCH  ACCESS:          0  HIT:          0  MISS:          0
LLC WRITEBACK ACCESS:      18686  HIT:      18581  MISS:        105
Heartbeat CPU 0 instructions: 68000001 cycles: 23417754 heartbeat IPC: 1.71001 cumulative IPC: 1.91093 (Simulation time: 0 hr 45 min 49 sec) 

Region of Interest Statistics
cpu0_DTLB TOTAL     ACCESS:    3680078  HIT:    3679051  MISS:       1027
cpu0_DTLB LOAD      ACCESS:    3309378  HIT:    3308355  MISS:       1023
cpu0_DTLB RFO       ACCESS:     370700  HIT:     370696  MISS:          4
cpu0_DTLB PREFETCH  ACCESS:          0  HIT:          0  MISS:          0
cpu0_DTLB WRITEBACK ACCESS:          0  HIT:          0  MISS:          0
cpu0_ITLB TOTAL     ACCESS:     179555  HIT:     179553  MISS:          2
cpu0_ITLB LOAD      ACCESS:     179555  HIT:     179553  MISS:          2
cpu0_ITLB RFO       ACCESS:          0  HIT:          0  MISS:          0
cpu0_ITLB PREFETCH  ACCESS:          0  HIT:          0  MISS:          0
cpu0_ITLB WRITEBACK ACCESS:          0  HIT:          0  MISS:          0
cpu0_L1I TOTAL     ACCESS:       7423  HIT:       7380  MISS:         43
cpu0_L1I LOAD      ACCESS:       7423  HIT:       7380  MISS:         43
cpu0_L1I RFO       ACCESS:          0  HIT:          0  MISS:          0
cpu0_L1I PREFETCH  ACCESS:          0  HIT:          0  MISS:          0
cpu0_L1I WRITEBACK ACCESS:          0  HIT:          0  MISS:          0
cpu0_STLB TOTAL     ACCESS:       1029  HIT:        620  MISS:        409
cpu0_STLB LOAD      ACCESS:       1025  HIT:        620  MISS:        405
cpu0_STLB RFO       ACCESS:          4  HIT:          0  MISS:          4
cpu0_STLB PREFETCH  ACCESS:          0  HIT:          0  MISS:          0
cpu0_STLB WRITEBACK ACCESS:          0  HIT:          0  MISS:          0
cpu0_L1D TOTAL     ACCESS:    2935960  HIT:    2869842  MISS:      66118
cpu0_L1D LOAD      ACCESS:    2310544  HIT:    2245288  MISS:      65256
cpu0_L1D RFO       ACCESS:     625008  HIT:     624192  MISS:        816
cpu0_L1D PREFETCH  ACCESS:          0  HIT:          0  MISS:          0
cpu0_L1D WRITEBACK ACCESS:          0  HIT:          0  MISS:          0
cpu0_L2C TOTAL     ACCESS:      88853  HIT:      24506  MISS:      64347
cpu0_L2C LOAD      ACCESS:      65299  HIT:       2278  MISS:      63021
cpu0_L2C RFO       ACCESS:        816  HIT:        578  MISS:        238
cpu0_L2C PREFETCH  ACCESS:          0  HIT:          0  MISS:          0
cpu0_L2C WRITEBACK ACCESS:      22692  HIT:      21632  MISS:       1060
LLC TOTAL     ACCESS:      85169  HIT:      24802  MISS:      60367
LLC LOAD      ACCESS:      63021  HIT:       3125  MISS:      59896
LLC RFO       ACCESS:        238  HIT:          0  MISS:        238
LLC PREFETCH  ACCESS:          0  HIT:          0  MISS:          0
LLC WRITEBACK ACCESS:      21882  HIT:      21653  MISS:        229
Heartbeat CPU 0 instructions: 70000001 cycles: 24565362 heartbeat IPC: 1.74276 cumulative IPC: 1.89266 (Simulation time: 0 hr 47 min 41 sec) 

Region of Interest Statistics
cpu0_DTLB TOTAL     ACCESS:    3990718  HIT:    3989547  MISS:       1171
cpu0_DTLB LOAD      ACCESS:    3575034  HIT:    3573867  MISS:       1167
cpu0_DTLB RFO       ACCESS:     415684  HIT:     415680  MISS:          4
cpu0_DTLB PREFETCH  ACCESS:          0  HIT:          0  MISS:          0
cpu0_DTLB WRITEBACK ACCESS:          0  HIT:          0  MISS:          0
cpu0_ITLB TOTAL     ACCESS:     198442  HIT:     198440  MISS:          2
cpu0_ITLB LOAD      ACCESS:     198442  HIT:     198440  MISS:          2
cpu0_ITLB RFO       ACCESS:          0  HIT:          0  MISS:          0
cpu0_ITLB PREFETCH  ACCESS:          0  HIT:          0  MISS:          0
cpu0_ITLB WRITEBACK ACCESS:          0  HIT:          0  MISS:          0
cpu0_L1I TOTAL     ACCESS:       7800  HIT:       7757  MISS:         43
cpu0_L1I LOAD      ACCESS:       7800  HIT:       7757  MISS:         43
cpu0_L1I RFO       ACCESS:          0  HIT:          0  MISS:          0
cpu0_L1I PREFETCH  ACCESS:          0  HIT:          0  MISS:          0
cpu0_L1I WRITEBACK ACCESS:          0  HIT:          0  MISS:          0
cpu0_STLB TOTAL     ACCESS:       1173  HIT:        710  MISS:        463
cpu0_STLB LOAD      ACCESS:       1169  HIT:        710  MISS:        459
cpu0_STLB RFO       ACCESS:          4  HIT:          0  MISS:          4
cpu0_STLB PREFETCH  ACCESS:          0  HIT:          0  MISS:          0
cpu0_STLB WRITEBACK ACCESS:          0  HIT:          0  MISS:          0
cpu0_L1D TOTAL     ACCESS:    3269690  HIT:    3194242  MISS:      75448
cpu0_L1D LOAD      ACCESS:    2556308  HIT:    2481840  MISS:      74468
cpu0_L1D RFO       ACCESS:     712920  HIT:     711992  MISS:        928
cpu0_L1D PREFETCH  ACCESS:          0  HIT:          0  MISS:          0
cpu0_L1D WRITEBACK ACCESS:          0  HIT:          0  MISS:          0
cpu0_L2C TOTAL     ACCESS:     101422  HIT:      28267  MISS:      73155
cpu0_L2C LOAD      ACCESS:      74511  HIT:       2737  MISS:      71774
cpu0_L2C RFO       ACCESS:        928  HIT:        690  MISS:        238
cpu0_L2C PREFETCH  ACCESS:          0  HIT:          0  MISS:          0
cpu0_L2C WRITEBACK ACCESS:      25931  HIT:      24819  MISS:       1112
LLC TOTAL     ACCESS:      96918  HIT:      28266  MISS:      68652
LLC LOAD      ACCESS:      71774  HIT:       3593  MISS:      68181
LLC RFO       ACCESS:        238  HIT:          0  MISS:        238
LLC PREFETCH  ACCESS:          0  HIT:          0  MISS:          0
LLC WRITEBACK ACCESS:      24875  HIT:      24646  MISS:        229
Heartbeat CPU 0 instructions: 72000003 cycles: 25712804 heartbeat IPC: 1.74301 cumulative IPC: 1.878 (Simulation time: 0 hr 49 min 35 sec) 

Region of Interest Statistics
cpu0_DTLB TOTAL     ACCESS:    4299050  HIT:    4297735  MISS:       1315
cpu0_DTLB LOAD      ACCESS:    3837693  HIT:    3836382  MISS:       1311
cpu0_DTLB RFO       ACCESS:     461357  HIT:     461353  MISS:          4
cpu0_DTLB PREFETCH  ACCESS:          0  HIT:          0  MISS:          0
cpu0_DTLB WRITEBACK ACCESS:          0  HIT:          0  MISS:          0
cpu0_ITLB TOTAL     ACCESS:     217872  HIT:     217870  MISS:          2
cpu0_ITLB LOAD      ACCESS:     217872  HIT:     217870  MISS:          2
cpu0_ITLB RFO       ACCESS:          0  HIT:          0  MISS:          0
cpu0_ITLB PREFETCH  ACCESS:          0  HIT:          0  MISS:          0
cpu0_ITLB WRITEBACK ACCESS:          0  HIT:          0  MISS:          0
cpu0_L1I TOTAL     ACCESS:       8173  HIT:       8130  MISS:         43
cpu0_L1I LOAD      ACCESS:       8173  HIT:       8130  MISS:         43
cpu0_L1I RFO       ACCESS:          0  HIT:          0  MISS:          0
cpu0_L1I PREFETCH  ACCESS:          0  HIT:          0  MISS:          0
cpu0_L1I WRITEBACK ACCESS:          0  HIT:          0  MISS:          0
cpu0_STLB TOTAL     ACCESS:       1317  HIT:        787  MISS:        530
cpu0_STLB LOAD      ACCESS:       1313  HIT:        787  MISS:        526
cpu0_STLB RFO       ACCESS:          4  HIT:          0  MISS:          4
cpu0_STLB PREFETCH  ACCESS:          0  HIT:          0  MISS:          0
cpu0_STLB WRITEBACK ACCESS:          0  HIT:          0  MISS:          0
cpu0_L1D TOTAL     ACCESS:    3601579  HIT:    3516787  MISS:      84792
cpu0_L1D LOAD      ACCESS:    2800456  HIT:    2716752  MISS:      83704
cpu0_L1D RFO       ACCESS:     800594  HIT:     799562  MISS:       1032
cpu0_L1D PREFETCH  ACCESS:          0  HIT:          0  MISS:          0
cpu0_L1D WRITEBACK ACCESS:          0  HIT:          0  MISS:          0
cpu0_L2C TOTAL     ACCESS:     113869  HIT:      31873  MISS:      81996
cpu0_L2C LOAD      ACCESS:      83747  HIT:       3183  MISS:      80564
cpu0_L2C RFO       ACCESS:       1032  HIT:        794  MISS:        238
cpu0_L2C PREFETCH  ACCESS:          0  HIT:          0  MISS:          0
cpu0_L2C WRITEBACK ACCESS:      29034  HIT:      27874  MISS:       1160
LLC TOTAL     ACCESS:     108626  HIT:      31774  MISS:      76852
LLC LOAD      ACCESS:      80564  HIT:       4183  MISS:      76381
LLC RFO       ACCESS:        238  HIT:          0  MISS:        238
LLC PREFETCH  ACCESS:          0  HIT:          0  MISS:          0
LLC WRITEBACK ACCESS:      27790  HIT:      27561  MISS:        229
Heartbeat CPU 0 instructions: 74000003 cycles: 26855180 heartbeat IPC: 1.75074 cumulative IPC: 1.8667 (Simulation time: 0 hr 51 min 26 sec) 

Region of Interest Statistics
cpu0_DTLB TOTAL     ACCESS:    4611156  HIT:    4609697  MISS:       1459
cpu0_DTLB LOAD      ACCESS:    4104430  HIT:    4102975  MISS:       1455
cpu0_DTLB RFO       ACCESS:     506726  HIT:     506722  MISS:          4
cpu0_DTLB PREFETCH  ACCESS:          0  HIT:          0  MISS:          0
cpu0_DTLB WRITEBACK ACCESS:          0  HIT:          0  MISS:          0
cpu0_ITLB TOTAL     ACCESS:     237373  HIT:     237371  MISS:          2
cpu0_ITLB LOAD      ACCESS:     237373  HIT:     237371  MISS:          2
cpu0_ITLB RFO       ACCESS:          0  HIT:          0  MISS:          0
cpu0_ITLB PREFETCH  ACCESS:          0  HIT:          0  MISS:          0
cpu0_ITLB WRITEBACK ACCESS:          0  HIT:          0  MISS:          0
cpu0_L1I TOTAL     ACCESS:       8563  HIT:       8520  MISS:         43
cpu0_L1I LOAD      ACCESS:       8563  HIT:       8520  MISS:         43
cpu0_L1I RFO       ACCESS:          0  HIT:          0  MISS:          0
cpu0_L1I PREFETCH  ACCESS:          0  HIT:          0  MISS:          0
cpu0_L1I WRITEBACK ACCESS:          0  HIT:          0  MISS:          0
cpu0_STLB TOTAL     ACCESS:       1461  HIT:        877  MISS:        584
cpu0_STLB LOAD      ACCESS:       1457  HIT:        877  MISS:        580
cpu0_STLB RFO       ACCESS:          4  HIT:          0  MISS:          4
cpu0_STLB PREFETCH  ACCESS:          0  HIT:          0  MISS:          0
cpu0_STLB WRITEBACK ACCESS:          0  HIT:          0  MISS:          0
cpu0_L1D TOTAL     ACCESS:    3937089  HIT:    3842910  MISS:      94179
cpu0_L1D LOAD      ACCESS:    3046938  HIT:    2953964  MISS:      92974
cpu0_L1D RFO       ACCESS:     889568  HIT:     888422  MISS:       1146
cpu0_L1D PREFETCH  ACCESS:          0  HIT:          0  MISS:          0
cpu0_L1D WRITEBACK ACCESS:          0  HIT:          0  MISS:          0
cpu0_L2C TOTAL     ACCESS:     126413  HIT:      35553  MISS:      90860
cpu0_L2C LOAD      ACCESS:      93016  HIT:       3640  MISS:      89376
cpu0_L2C RFO       ACCESS:       1146  HIT:        908  MISS:        238
cpu0_L2C PREFETCH  ACCESS:          0  HIT:          0  MISS:          0
cpu0_L2C WRITEBACK ACCESS:      32192  HIT:      30982  MISS:       1210
LLC TOTAL     ACCESS:     120465  HIT:      35462  MISS:      85003
LLC LOAD      ACCESS:      89376  HIT:       4844  MISS:      84532
LLC RFO       ACCESS:        238  HIT:          0  MISS:        238
LLC PREFETCH  ACCESS:          0  HIT:          0  MISS:          0
LLC WRITEBACK ACCESS:      30815  HIT:      30586  MISS:        229
Heartbeat CPU 0 instructions: 76000003 cycles: 27987344 heartbeat IPC: 1.76653 cumulative IPC: 1.85859 (Simulation time: 0 hr 53 min 18 sec) 

Region of Interest Statistics
cpu0_DTLB TOTAL     ACCESS:    4922621  HIT:    4921019  MISS:       1602
cpu0_DTLB LOAD      ACCESS:    4370336  HIT:    4368738  MISS:       1598
cpu0_DTLB RFO       ACCESS:     552285  HIT:     552281  MISS:          4
cpu0_DTLB PREFETCH  ACCESS:          0  HIT:          0  MISS:          0
cpu0_DTLB WRITEBACK ACCESS:          0  HIT:          0  MISS:          0
cpu0_ITLB TOTAL     ACCESS:     257194  HIT:     257192  MISS:          2
cpu0_ITLB LOAD      ACCESS:     257194  HIT:     257192  MISS:          2
cpu0_ITLB RFO       ACCESS:          0  HIT:          0  MISS:          0
cpu0_ITLB PREFETCH  ACCESS:          0  HIT:          0  MISS:          0
cpu0_ITLB WRITEBACK ACCESS:          0  HIT:          0  MISS:          0
cpu0_L1I TOTAL     ACCESS:       8940  HIT:       8897  MISS:         43
cpu0_L1I LOAD      ACCESS:       8940  HIT:       8897  MISS:         43
cpu0_L1I RFO       ACCESS:          0  HIT:          0  MISS:          0
cpu0_L1I PREFETCH  ACCESS:          0  HIT:          0  MISS:          0
cpu0_L1I WRITEBACK ACCESS:          0  HIT:          0  MISS:          0
cpu0_STLB TOTAL     ACCESS:       1604  HIT:        967  MISS:        637
cpu0_STLB LOAD      ACCESS:       1600  HIT:        967  MISS:        633
cpu0_STLB RFO       ACCESS:          4  HIT:          0  MISS:          4
cpu0_STLB PREFETCH  ACCESS:          0  HIT:          0  MISS:          0
cpu0_STLB WRITEBACK ACCESS:          0  HIT:          0  MISS:          0
cpu0_L1D TOTAL     ACCESS:    4272863  HIT:    4169316  MISS:     103547
cpu0_L1D LOAD      ACCESS:    3294027  HIT:    3191805  MISS:     102222
cpu0_L1D RFO       ACCESS:     978200  HIT:     976939  MISS:       1261
cpu0_L1D PREFETCH  ACCESS:          0  HIT:          0  MISS:          0
cpu0_L1D WRITEBACK ACCESS:          0  HIT:          0  MISS:          0
cpu0_L2C TOTAL     ACCESS:     139040  HIT:      39335  MISS:      99705
cpu0_L2C LOAD      ACCESS:     102264  HIT:       4113  MISS:      98151
cpu0_L2C RFO       ACCESS:       1261  HIT:       1023  MISS:        238
cpu0_L2C PREFETCH  ACCESS:          0  HIT:          0  MISS:          0
cpu0_L2C WRITEBACK ACCESS:      35451  HIT:      34173  MISS:       1278
LLC TOTAL     ACCESS:     132317  HIT:      39258  MISS:      93059
LLC LOAD      ACCESS:      98151  HIT:       5563  MISS:      92588
LLC RFO       ACCESS:        238  HIT:          0  MISS:        238
LLC PREFETCH  ACCESS:          0  HIT:          0  MISS:          0
LLC WRITEBACK ACCESS:      33890  HIT:      33661  MISS:        229
Heartbeat CPU 0 instructions: 78000002 cycles: 29168029 heartbeat IPC: 1.69393 cumulative IPC: 1.84577 (Simulation time: 0 hr 55 min 15 sec) 

Region of Interest Statistics
cpu0_DTLB TOTAL     ACCESS:    5229725  HIT:    5227980  MISS:       1745
cpu0_DTLB LOAD      ACCESS:    4632386  HIT:    4630645  MISS:       1741
cpu0_DTLB RFO       ACCESS:     597339  HIT:     597335  MISS:          4
cpu0_DTLB PREFETCH  ACCESS:          0  HIT:          0  MISS:          0
cpu0_DTLB WRITEBACK ACCESS:          0  HIT:          0  MISS:          0
cpu0_ITLB TOTAL     ACCESS:     276267  HIT:     276265  MISS:          2
cpu0_ITLB LOAD      ACCESS:     276267  HIT:     276265  MISS:          2
cpu0_ITLB RFO       ACCESS:          0  HIT:          0  MISS:          0
cpu0_ITLB PREFETCH  ACCESS:          0  HIT:          0  MISS:          0
cpu0_ITLB WRITEBACK ACCESS:          0  HIT:          0  MISS:          0
cpu0_L1I TOTAL     ACCESS:       9313  HIT:       9270  MISS:         43
cpu0_L1I LOAD      ACCESS:       9313  HIT:       9270  MISS:         43
cpu0_L1I RFO       ACCESS:          0  HIT:          0  MISS:          0
cpu0_L1I PREFETCH  ACCESS:          0  HIT:          0  MISS:          0
cpu0_L1I WRITEBACK ACCESS:          0  HIT:          0  MISS:          0
cpu0_STLB TOTAL     ACCESS:       1747  HIT:       1038  MISS:        709
cpu0_STLB LOAD      ACCESS:       1743  HIT:       1038  MISS:        705
cpu0_STLB RFO       ACCESS:          4  HIT:          0  MISS:          4
cpu0_STLB PREFETCH  ACCESS:          0  HIT:          0  MISS:          0
cpu0_STLB WRITEBACK ACCESS:          0  HIT:          0  MISS:          0
cpu0_L1D TOTAL     ACCESS:    4603045  HIT:    4490174  MISS:     112871
cpu0_L1D LOAD      ACCESS:    3537184  HIT:    3425747  MISS:     111437
cpu0_L1D RFO       ACCESS:    1065153  HIT:    1063788  MISS:       1365
cpu0_L1D PREFETCH  ACCESS:          0  HIT:          0  MISS:          0
cpu0_L1D WRITEBACK ACCESS:          0  HIT:          0  MISS:          0
cpu0_L2C TOTAL     ACCESS:     151508  HIT:      42977  MISS:     108531
cpu0_L2C LOAD      ACCESS:     111479  HIT:       4566  MISS:     106913
cpu0_L2C RFO       ACCESS:       1365  HIT:       1127  MISS:        238
cpu0_L2C PREFETCH  ACCESS:          0  HIT:          0  MISS:          0
cpu0_L2C WRITEBACK ACCESS:      38595  HIT:      37258  MISS:       1337
LLC TOTAL     ACCESS:     144250  HIT:      42697  MISS:     101553
LLC LOAD      ACCESS:     106913  HIT:       5834  MISS:     101079
LLC RFO       ACCESS:        238  HIT:          0  MISS:        238
LLC PREFETCH  ACCESS:          0  HIT:          0  MISS:          0
LLC WRITEBACK ACCESS:      37056  HIT:      36824  MISS:        232
Heartbeat CPU 0 instructions: 80000000 cycles: 30282730 heartbeat IPC: 1.7942 cumulative IPC: 1.84224 (Simulation time: 0 hr 57 min 8 sec) 

Region of Interest Statistics
cpu0_DTLB TOTAL     ACCESS:    5541904  HIT:    5540015  MISS:       1889
cpu0_DTLB LOAD      ACCESS:    4899334  HIT:    4897449  MISS:       1885
cpu0_DTLB RFO       ACCESS:     642570  HIT:     642566  MISS:          4
cpu0_DTLB PREFETCH  ACCESS:          0  HIT:          0  MISS:          0
cpu0_DTLB WRITEBACK ACCESS:          0  HIT:          0  MISS:          0
cpu0_ITLB TOTAL     ACCESS:     296137  HIT:     296135  MISS:          2
cpu0_ITLB LOAD      ACCESS:     296137  HIT:     296135  MISS:          2
cpu0_ITLB RFO       ACCESS:          0  HIT:          0  MISS:          0
cpu0_ITLB PREFETCH  ACCESS:          0  HIT:          0  MISS:          0
cpu0_ITLB WRITEBACK ACCESS:          0  HIT:          0  MISS:          0
cpu0_L1I TOTAL     ACCESS:       9703  HIT:       9660  MISS:         43
cpu0_L1I LOAD      ACCESS:       9703  HIT:       9660  MISS:         43
cpu0_L1I RFO       ACCESS:          0  HIT:          0  MISS:          0
cpu0_L1I PREFETCH  ACCESS:          0  HIT:          0  MISS:          0
cpu0_L1I WRITEBACK ACCESS:          0  HIT:          0  MISS:          0
cpu0_STLB TOTAL     ACCESS:       1891  HIT:       1128  MISS:        763
cpu0_STLB LOAD      ACCESS:       1887  HIT:       1128  MISS:        759
cpu0_STLB RFO       ACCESS:          4  HIT:          0  MISS:          4
cpu0_STLB PREFETCH  ACCESS:          0  HIT:          0  MISS:          0
cpu0_STLB WRITEBACK ACCESS:          0  HIT:          0  MISS:          0
cpu0_L1D TOTAL     ACCESS:    4938341  HIT:    4816057  MISS:     122284
cpu0_L1D LOAD      ACCESS:    3783453  HIT:    3662722  MISS:     120731
cpu0_L1D RFO       ACCESS:    1154126  HIT:    1152647  MISS:       1479
cpu0_L1D PREFETCH  ACCESS:          0  HIT:          0  MISS:          0
cpu0_L1D WRITEBACK ACCESS:          0  HIT:          0  MISS:          0
cpu0_L2C TOTAL     ACCESS:     164056  HIT:      46660  MISS:     117396
cpu0_L2C LOAD      ACCESS:     120773  HIT:       5048  MISS:     115725
cpu0_L2C RFO       ACCESS:       1479  HIT:       1241  MISS:        238
cpu0_L2C PREFETCH  ACCESS:          0  HIT:          0  MISS:          0
cpu0_L2C WRITEBACK ACCESS:      41730  HIT:      40342  MISS:       1388
LLC TOTAL     ACCESS:     155840  HIT:      46315  MISS:     109525
LLC LOAD      ACCESS:     115725  HIT:       6682  MISS:     109043
LLC RFO       ACCESS:        238  HIT:          0  MISS:        238
LLC PREFETCH  ACCESS:          0  HIT:          0  MISS:          0
LLC WRITEBACK ACCESS:      39832  HIT:      39592  MISS:        240
Heartbeat CPU 0 instructions: 82000001 cycles: 31438385 heartbeat IPC: 1.73062 cumulative IPC: 1.83485 (Simulation time: 0 hr 58 min 59 sec) 

Region of Interest Statistics
cpu0_DTLB TOTAL     ACCESS:    5855307  HIT:    5853273  MISS:       2034
cpu0_DTLB LOAD      ACCESS:    5167696  HIT:    5165666  MISS:       2030
cpu0_DTLB RFO       ACCESS:     687611  HIT:     687607  MISS:          4
cpu0_DTLB PREFETCH  ACCESS:          0  HIT:          0  MISS:          0
cpu0_DTLB WRITEBACK ACCESS:          0  HIT:          0  MISS:          0
cpu0_ITLB TOTAL     ACCESS:     315334  HIT:     315332  MISS:          2
cpu0_ITLB LOAD      ACCESS:     315334  HIT:     315332  MISS:          2
cpu0_ITLB RFO       ACCESS:          0  HIT:          0  MISS:          0
cpu0_ITLB PREFETCH  ACCESS:          0  HIT:          0  MISS:          0
cpu0_ITLB WRITEBACK ACCESS:          0  HIT:          0  MISS:          0
cpu0_L1I TOTAL     ACCESS:      10093  HIT:      10050  MISS:         43
cpu0_L1I LOAD      ACCESS:      10093  HIT:      10050  MISS:         43
cpu0_L1I RFO       ACCESS:          0  HIT:          0  MISS:          0
cpu0_L1I PREFETCH  ACCESS:          0  HIT:          0  MISS:          0
cpu0_L1I WRITEBACK ACCESS:          0  HIT:          0  MISS:          0
cpu0_STLB TOTAL     ACCESS:       2036  HIT:       1224  MISS:        812
cpu0_STLB LOAD      ACCESS:       2032  HIT:       1224  MISS:        808
cpu0_STLB RFO       ACCESS:          4  HIT:          0  MISS:          4
cpu0_STLB PREFETCH  ACCESS:          0  HIT:          0  MISS:          0
cpu0_STLB WRITEBACK ACCESS:          0  HIT:          0  MISS:          0
cpu0_L1D TOTAL     ACCESS:    5275137  HIT:    5143455  MISS:     131682
cpu0_L1D LOAD      ACCESS:    4031231  HIT:    3901216  MISS:     130015
cpu0_L1D RFO       ACCESS:    1243095  HIT:    1241504  MISS:       1591
cpu0_L1D PREFETCH  ACCESS:          0  HIT:          0  MISS:          0
cpu0_L1D WRITEBACK ACCESS:          0  HIT:          0  MISS:          0
cpu0_L2C TOTAL     ACCESS:     176691  HIT:      50417  MISS:     126274
cpu0_L2C LOAD      ACCESS:     130057  HIT:       5520  MISS:     124537
cpu0_L2C RFO       ACCESS:       1591  HIT:       1353  MISS:        238
cpu0_L2C PREFETCH  ACCESS:          0  HIT:          0  MISS:          0
cpu0_L2C WRITEBACK ACCESS:      44967  HIT:      43515  MISS:       1452
LLC TOTAL     ACCESS:     167766  HIT:      50295  MISS:     117471
LLC LOAD      ACCESS:     124537  HIT:       7550  MISS:     116987
LLC RFO       ACCESS:        238  HIT:          0  MISS:        238
LLC PREFETCH  ACCESS:          0  HIT:          0  MISS:          0
LLC WRITEBACK ACCESS:      42944  HIT:      42702  MISS:        242
Heartbeat CPU 0 instructions: 84000003 cycles: 32578227 heartbeat IPC: 1.75463 cumulative IPC: 1.82993 (Simulation time: 1 hr 0 min 49 sec) 

Region of Interest Statistics
cpu0_DTLB TOTAL     ACCESS:    6163181  HIT:    6161005  MISS:       2176
cpu0_DTLB LOAD      ACCESS:    5430142  HIT:    5427970  MISS:       2172
cpu0_DTLB RFO       ACCESS:     733039  HIT:     733035  MISS:          4
cpu0_DTLB PREFETCH  ACCESS:          0  HIT:          0  MISS:          0
cpu0_DTLB WRITEBACK ACCESS:          0  HIT:          0  MISS:          0
cpu0_ITLB TOTAL     ACCESS:     334502  HIT:     334500  MISS:          2
cpu0_ITLB LOAD      ACCESS:     334502  HIT:     334500  MISS:          2
cpu0_ITLB RFO       ACCESS:          0  HIT:          0  MISS:          0
cpu0_ITLB PREFETCH  ACCESS:          0  HIT:          0  MISS:          0
cpu0_ITLB WRITEBACK ACCESS:          0  HIT:          0  MISS:          0
cpu0_L1I TOTAL     ACCESS:      10470  HIT:      10427  MISS:         43
cpu0_L1I LOAD      ACCESS:      10470  HIT:      10427  MISS:         43
cpu0_L1I RFO       ACCESS:          0  HIT:          0  MISS:          0
cpu0_L1I PREFETCH  ACCESS:          0  HIT:          0  MISS:          0
cpu0_L1I WRITEBACK ACCESS:          0  HIT:          0  MISS:          0
cpu0_STLB TOTAL     ACCESS:       2178  HIT:       1295  MISS:        883
cpu0_STLB LOAD      ACCESS:       2174  HIT:       1295  MISS:        879
cpu0_STLB RFO       ACCESS:          4  HIT:          0  MISS:          4
cpu0_STLB PREFETCH  ACCESS:          0  HIT:          0  MISS:          0
cpu0_STLB WRITEBACK ACCESS:          0  HIT:          0  MISS:          0
cpu0_L1D TOTAL     ACCESS:    5608156  HIT:    5467178  MISS:     140978
cpu0_L1D LOAD      ACCESS:    4277370  HIT:    4138182  MISS:     139188
cpu0_L1D RFO       ACCESS:    1329904  HIT:    1328193  MISS:       1711
cpu0_L1D PREFETCH  ACCESS:          0  HIT:          0  MISS:          0
cpu0_L1D WRITEBACK ACCESS:          0  HIT:          0  MISS:          0
cpu0_L2C TOTAL     ACCESS:     189176  HIT:      54113  MISS:     135063
cpu0_L2C LOAD      ACCESS:     139226  HIT:       5965  MISS:     133261
cpu0_L2C RFO       ACCESS:       1711  HIT:       1472  MISS:        239
cpu0_L2C PREFETCH  ACCESS:          0  HIT:          0  MISS:          0
cpu0_L2C WRITEBACK ACCESS:      48160  HIT:      46646  MISS:       1514
LLC TOTAL     ACCESS:     179583  HIT:      54017  MISS:     125566
LLC LOAD      ACCESS:     133261  HIT:       8182  MISS:     125079
LLC RFO       ACCESS:        239  HIT:          1  MISS:        238
LLC PREFETCH  ACCESS:          0  HIT:          0  MISS:          0
LLC WRITEBACK ACCESS:      46034  HIT:      45789  MISS:        245
Heartbeat CPU 0 instructions: 86000002 cycles: 33658351 heartbeat IPC: 1.85164 cumulative IPC: 1.83112 (Simulation time: 1 hr 2 min 26 sec) 

Region of Interest Statistics
cpu0_DTLB TOTAL     ACCESS:    6451467  HIT:    6449041  MISS:       2426
cpu0_DTLB LOAD      ACCESS:    5606915  HIT:    5604635  MISS:       2280
cpu0_DTLB RFO       ACCESS:     844552  HIT:     844406  MISS:        146
cpu0_DTLB PREFETCH  ACCESS:          0  HIT:          0  MISS:          0
cpu0_DTLB WRITEBACK ACCESS:          0  HIT:          0  MISS:          0
cpu0_ITLB TOTAL     ACCESS:     407234  HIT:     407231  MISS:          3
cpu0_ITLB LOAD      ACCESS:     407234  HIT:     407231  MISS:          3
cpu0_ITLB RFO       ACCESS:          0  HIT:          0  MISS:          0
cpu0_ITLB PREFETCH  ACCESS:          0  HIT:          0  MISS:          0
cpu0_ITLB WRITEBACK ACCESS:          0  HIT:          0  MISS:          0
cpu0_L1I TOTAL     ACCESS:      10924  HIT:      10804  MISS:        120
cpu0_L1I LOAD      ACCESS:      10924  HIT:      10804  MISS:        120
cpu0_L1I RFO       ACCESS:          0  HIT:          0  MISS:          0
cpu0_L1I PREFETCH  ACCESS:          0  HIT:          0  MISS:          0
cpu0_L1I WRITEBACK ACCESS:          0  HIT:          0  MISS:          0
cpu0_STLB TOTAL     ACCESS:       2429  HIT:       1355  MISS:       1074
cpu0_STLB LOAD      ACCESS:       2283  HIT:       1355  MISS:        928
cpu0_STLB RFO       ACCESS:        146  HIT:          0  MISS:        146
cpu0_STLB PREFETCH  ACCESS:          0  HIT:          0  MISS:          0
cpu0_STLB WRITEBACK ACCESS:          0  HIT:          0  MISS:          0
cpu0_L1D TOTAL     ACCESS:    5837074  HIT:    5681226  MISS:     155848
cpu0_L1D LOAD      ACCESS:    4438233  HIT:    4292939  MISS:     145294
cpu0_L1D RFO       ACCESS:    1397768  HIT:    1387302  MISS:      10466
cpu0_L1D PREFETCH  ACCESS:          0  HIT:          0  MISS:          0
cpu0_L1D WRITEBACK ACCESS:          0  HIT:          0  MISS:          0
cpu0_L2C TOTAL     ACCESS:     214573  HIT:      64060  MISS:     150513
cpu0_L2C LOAD      ACCESS:     145409  HIT:       6263  MISS:     139146
cpu0_L2C RFO       ACCESS:      10466  HIT:       1541  MISS:       8925
cpu0_L2C PREFETCH  ACCESS:          0  HIT:          0  MISS:          0
cpu0_L2C WRITEBACK ACCESS:      58610  HIT:      56224  MISS:       2386
LLC TOTAL     ACCESS:     203726  HIT:      63738  MISS:     139988
LLC LOAD      ACCESS:     139146  HIT:       8501  MISS:     130645
LLC RFO       ACCESS:       8925  HIT:          1  MISS:       8924
LLC PREFETCH  ACCESS:          0  HIT:          0  MISS:          0
LLC WRITEBACK ACCESS:      55599  HIT:      55189  MISS:        410
Heartbeat CPU 0 instructions: 88000001 cycles: 34671090 heartbeat IPC: 1.97484 cumulative IPC: 1.83816 (Simulation time: 1 hr 3 min 41 sec) 

Region of Interest Statistics
cpu0_DTLB TOTAL     ACCESS:    6699175  HIT:    6696327  MISS:       2848
cpu0_DTLB LOAD      ACCESS:    5660231  HIT:    5657891  MISS:       2340
cpu0_DTLB RFO       ACCESS:    1038944  HIT:    1038436  MISS:        508
cpu0_DTLB PREFETCH  ACCESS:          0  HIT:          0  MISS:          0
cpu0_DTLB WRITEBACK ACCESS:          0  HIT:          0  MISS:          0
cpu0_ITLB TOTAL     ACCESS:     552934  HIT:     552931  MISS:          3
cpu0_ITLB LOAD      ACCESS:     552934  HIT:     552931  MISS:          3
cpu0_ITLB RFO       ACCESS:          0  HIT:          0  MISS:          0
cpu0_ITLB PREFETCH  ACCESS:          0  HIT:          0  MISS:          0
cpu0_ITLB WRITEBACK ACCESS:          0  HIT:          0  MISS:          0
cpu0_L1I TOTAL     ACCESS:      10930  HIT:      10809  MISS:        121
cpu0_L1I LOAD      ACCESS:      10930  HIT:      10809  MISS:        121
cpu0_L1I RFO       ACCESS:          0  HIT:          0  MISS:          0
cpu0_L1I PREFETCH  ACCESS:          0  HIT:          0  MISS:          0
cpu0_L1I WRITEBACK ACCESS:          0  HIT:          0  MISS:          0
cpu0_STLB TOTAL     ACCESS:       2851  HIT:       1409  MISS:       1442
cpu0_STLB LOAD      ACCESS:       2343  HIT:       1355  MISS:        988
cpu0_STLB RFO       ACCESS:        508  HIT:         54  MISS:        454
cpu0_STLB PREFETCH  ACCESS:          0  HIT:          0  MISS:          0
cpu0_STLB WRITEBACK ACCESS:          0  HIT:          0  MISS:          0
cpu0_L1D TOTAL     ACCESS:    5891904  HIT:    5710107  MISS:     181797
cpu0_L1D LOAD      ACCESS:    4457042  HIT:    4308197  MISS:     148845
cpu0_L1D RFO       ACCESS:    1433421  HIT:    1400560  MISS:      32861
cpu0_L1D PREFETCH  ACCESS:          0  HIT:          0  MISS:          0
cpu0_L1D WRITEBACK ACCESS:          0  HIT:          0  MISS:          0
cpu0_L2C TOTAL     ACCESS:     263326  HIT:      86862  MISS:     176464
cpu0_L2C LOAD      ACCESS:     148961  HIT:       6263  MISS:     142698
cpu0_L2C RFO       ACCESS:      32861  HIT:       1541  MISS:      31320
cpu0_L2C PREFETCH  ACCESS:          0  HIT:          0  MISS:          0
cpu0_L2C WRITEBACK ACCESS:      81413  HIT:      79026  MISS:       2387
LLC TOTAL     ACCESS:     253129  HIT:      90481  MISS:     162648
LLC LOAD      ACCESS:     142698  HIT:       8507  MISS:     134191
LLC RFO       ACCESS:      31320  HIT:       3283  MISS:      28037
LLC PREFETCH  ACCESS:          0  HIT:          0  MISS:          0
LLC WRITEBACK ACCESS:      79052  HIT:      78642  MISS:        410
Heartbeat CPU 0 instructions: 90000003 cycles: 36028272 heartbeat IPC: 1.47364 cumulative IPC: 1.8157 (Simulation time: 1 hr 5 min 36 sec) 

Region of Interest Statistics
cpu0_DTLB TOTAL     ACCESS:    6979846  HIT:    6976525  MISS:       3321
cpu0_DTLB LOAD      ACCESS:    5878343  HIT:    5875757  MISS:       2586
cpu0_DTLB RFO       ACCESS:    1101503  HIT:    1100768  MISS:        735
cpu0_DTLB PREFETCH  ACCESS:          0  HIT:          0  MISS:          0
cpu0_DTLB WRITEBACK ACCESS:          0  HIT:          0  MISS:          0
cpu0_ITLB TOTAL     ACCESS:     618242  HIT:     618239  MISS:          3
cpu0_ITLB LOAD      ACCESS:     618242  HIT:     618239  MISS:          3
cpu0_ITLB RFO       ACCESS:          0  HIT:          0  MISS:          0
cpu0_ITLB PREFETCH  ACCESS:          0  HIT:          0  MISS:          0
cpu0_ITLB WRITEBACK ACCESS:          0  HIT:          0  MISS:          0
cpu0_L1I TOTAL     ACCESS:      10930  HIT:      10809  MISS:        121
cpu0_L1I LOAD      ACCESS:      10930  HIT:      10809  MISS:        121
cpu0_L1I RFO       ACCESS:          0  HIT:          0  MISS:          0
cpu0_L1I PREFETCH  ACCESS:          0  HIT:          0  MISS:          0
cpu0_L1I WRITEBACK ACCESS:          0  HIT:          0  MISS:          0
cpu0_STLB TOTAL     ACCESS:       3324  HIT:       1785  MISS:       1539
cpu0_STLB LOAD      ACCESS:       2589  HIT:       1504  MISS:       1085
cpu0_STLB RFO       ACCESS:        735  HIT:        281  MISS:        454
cpu0_STLB PREFETCH  ACCESS:          0  HIT:          0  MISS:          0
cpu0_STLB WRITEBACK ACCESS:          0  HIT:          0  MISS:          0
cpu0_L1D TOTAL     ACCESS:    6030717  HIT:    5819614  MISS:     211103
cpu0_L1D LOAD      ACCESS:    4527859  HIT:    4363811  MISS:     164048
cpu0_L1D RFO       ACCESS:    1501320  HIT:    1454367  MISS:      46953
cpu0_L1D PREFETCH  ACCESS:          0  HIT:          0  MISS:          0
cpu0_L1D WRITEBACK ACCESS:          0  HIT:          0  MISS:          0
cpu0_L2C TOTAL     ACCESS:     306707  HIT:     100937  MISS:     205770
cpu0_L2C LOAD      ACCESS:     164164  HIT:       6263  MISS:     157901
cpu0_L2C RFO       ACCESS:      46953  HIT:       1541  MISS:      45412
cpu0_L2C PREFETCH  ACCESS:          0  HIT:          0  MISS:          0
cpu0_L2C WRITEBACK ACCESS:      95488  HIT:      93101  MISS:       2387
LLC TOTAL     ACCESS:     296561  HIT:     119662  MISS:     176899
LLC LOAD      ACCESS:     157901  HIT:       9742  MISS:     148159
LLC RFO       ACCESS:      45412  HIT:      17092  MISS:      28320
LLC PREFETCH  ACCESS:          0  HIT:          0  MISS:          0
LLC WRITEBACK ACCESS:      93178  HIT:      92768  MISS:        410
Heartbeat CPU 0 instructions: 92000004 cycles: 37370580 heartbeat IPC: 1.48997 cumulative IPC: 1.797 (Simulation time: 1 hr 7 min 35 sec) 

Region of Interest Statistics
cpu0_DTLB TOTAL     ACCESS:    7262887  HIT:    7259078  MISS:       3809
cpu0_DTLB LOAD      ACCESS:    6096765  HIT:    6093851  MISS:       2914
cpu0_DTLB RFO       ACCESS:    1166122  HIT:    1165227  MISS:        895
cpu0_DTLB PREFETCH  ACCESS:          0  HIT:          0  MISS:          0
cpu0_DTLB WRITEBACK ACCESS:          0  HIT:          0  MISS:          0
cpu0_ITLB TOTAL     ACCESS:     722913  HIT:     722910  MISS:          3
cpu0_ITLB LOAD      ACCESS:     722913  HIT:     722910  MISS:          3
cpu0_ITLB RFO       ACCESS:          0  HIT:          0  MISS:          0
cpu0_ITLB PREFETCH  ACCESS:          0  HIT:          0  MISS:          0
cpu0_ITLB WRITEBACK ACCESS:          0  HIT:          0  MISS:          0
cpu0_L1I TOTAL     ACCESS:      10930  HIT:      10809  MISS:        121
cpu0_L1I LOAD      ACCESS:      10930  HIT:      10809  MISS:        121
cpu0_L1I RFO       ACCESS:          0  HIT:          0  MISS:          0
cpu0_L1I PREFETCH  ACCESS:          0  HIT:          0  MISS:          0
cpu0_L1I WRITEBACK ACCESS:          0  HIT:          0  MISS:          0
cpu0_STLB TOTAL     ACCESS:       3812  HIT:       2189  MISS:       1623
cpu0_STLB LOAD      ACCESS:       2917  HIT:       1748  MISS:       1169
cpu0_STLB RFO       ACCESS:        895  HIT:        441  MISS:        454
cpu0_STLB PREFETCH  ACCESS:          0  HIT:          0  MISS:          0
cpu0_STLB WRITEBACK ACCESS:          0  HIT:          0  MISS:          0
cpu0_L1D TOTAL     ACCESS:    6214023  HIT:    5972857  MISS:     241166
cpu0_L1D LOAD      ACCESS:    4599626  HIT:    4415476  MISS:     184150
cpu0_L1D RFO       ACCESS:    1612775  HIT:    1555868  MISS:      56907
cpu0_L1D PREFETCH  ACCESS:          0  HIT:          0  MISS:          0
cpu0_L1D WRITEBACK ACCESS:          0  HIT:          0  MISS:          0
cpu0_L2C TOTAL     ACCESS:     351309  HIT:     115088  MISS:     236221
cpu0_L2C LOAD      ACCESS:     184266  HIT:       6263  MISS:     178003
cpu0_L2C RFO       ACCESS:      56907  HIT:       1541  MISS:      55366
cpu0_L2C PREFETCH  ACCESS:          0  HIT:          0  MISS:          0
cpu0_L2C WRITEBACK ACCESS:     110027  HIT:     107252  MISS:       2775
LLC TOTAL     ACCESS:     341008  HIT:     149347  MISS:     191661
LLC LOAD      ACCESS:     178003  HIT:      17030  MISS:     160973
LLC RFO       ACCESS:      55366  HIT:      25099  MISS:      30267
LLC PREFETCH  ACCESS:          0  HIT:          0  MISS:          0
LLC WRITEBACK ACCESS:     107562  HIT:     107152  MISS:        410
Heartbeat CPU 0 instructions: 94000001 cycles: 39205435 heartbeat IPC: 1.09 cumulative IPC: 1.74553 (Simulation time: 1 hr 9 min 59 sec) 

Region of Interest Statistics
cpu0_DTLB TOTAL     ACCESS:    7559362  HIT:    7555038  MISS:       4324
cpu0_DTLB LOAD      ACCESS:    6328317  HIT:    6324888  MISS:       3429
cpu0_DTLB RFO       ACCESS:    1231045  HIT:    1230150  MISS:        895
cpu0_DTLB PREFETCH  ACCESS:          0  HIT:          0  MISS:          0
cpu0_DTLB WRITEBACK ACCESS:          0  HIT:          0  MISS:          0
cpu0_ITLB TOTAL     ACCESS:     798413  HIT:     798410  MISS:          3
cpu0_ITLB LOAD      ACCESS:     798413  HIT:     798410  MISS:          3
cpu0_ITLB RFO       ACCESS:          0  HIT:          0  MISS:          0
cpu0_ITLB PREFETCH  ACCESS:          0  HIT:          0  MISS:          0
cpu0_ITLB WRITEBACK ACCESS:          0  HIT:          0  MISS:          0
cpu0_L1I TOTAL     ACCESS:      10930  HIT:      10809  MISS:        121
cpu0_L1I LOAD      ACCESS:      10930  HIT:      10809  MISS:        121
cpu0_L1I RFO       ACCESS:          0  HIT:          0  MISS:          0
cpu0_L1I PREFETCH  ACCESS:          0  HIT:          0  MISS:          0
cpu0_L1I WRITEBACK ACCESS:          0  HIT:          0  MISS:          0
cpu0_STLB TOTAL     ACCESS:       4327  HIT:       2441  MISS:       1886
cpu0_STLB LOAD      ACCESS:       3432  HIT:       2000  MISS:       1432
cpu0_STLB RFO       ACCESS:        895  HIT:        441  MISS:        454
cpu0_STLB PREFETCH  ACCESS:          0  HIT:          0  MISS:          0
cpu0_STLB WRITEBACK ACCESS:          0  HIT:          0  MISS:          0
cpu0_L1D TOTAL     ACCESS:    6530787  HIT:    6257722  MISS:     273065
cpu0_L1D LOAD      ACCESS:    4669519  HIT:    4453470  MISS:     216049
cpu0_L1D RFO       ACCESS:    1859383  HIT:    1802476  MISS:      56907
cpu0_L1D PREFETCH  ACCESS:          0  HIT:          0  MISS:          0
cpu0_L1D WRITEBACK ACCESS:          0  HIT:          0  MISS:          0
cpu0_L2C TOTAL     ACCESS:     398840  HIT:     130720  MISS:     268120
cpu0_L2C LOAD      ACCESS:     216165  HIT:       6263  MISS:     209902
cpu0_L2C RFO       ACCESS:      56907  HIT:       1541  MISS:      55366
cpu0_L2C PREFETCH  ACCESS:          0  HIT:          0  MISS:          0
cpu0_L2C WRITEBACK ACCESS:     125659  HIT:     122884  MISS:       2775
LLC TOTAL     ACCESS:     388562  HIT:     174943  MISS:     213619
LLC LOAD      ACCESS:     209903  HIT:      26972  MISS:     182931
LLC RFO       ACCESS:      55366  HIT:      25099  MISS:      30267
LLC PREFETCH  ACCESS:          0  HIT:          0  MISS:          0
LLC WRITEBACK ACCESS:     123216  HIT:     122806  MISS:        410
Heartbeat CPU 0 instructions: 96000004 cycles: 40902843 heartbeat IPC: 1.17827 cumulative IPC: 1.70974 (Simulation time: 1 hr 12 min 25 sec) 

Region of Interest Statistics
cpu0_DTLB TOTAL     ACCESS:    7914373  HIT:    7909578  MISS:       4795
cpu0_DTLB LOAD      ACCESS:    6629652  HIT:    6625823  MISS:       3829
cpu0_DTLB RFO       ACCESS:    1284721  HIT:    1283755  MISS:        966
cpu0_DTLB PREFETCH  ACCESS:          0  HIT:          0  MISS:          0
cpu0_DTLB WRITEBACK ACCESS:          0  HIT:          0  MISS:          0
cpu0_ITLB TOTAL     ACCESS:     851943  HIT:     851940  MISS:          3
cpu0_ITLB LOAD      ACCESS:     851943  HIT:     851940  MISS:          3
cpu0_ITLB RFO       ACCESS:          0  HIT:          0  MISS:          0
cpu0_ITLB PREFETCH  ACCESS:          0  HIT:          0  MISS:          0
cpu0_ITLB WRITEBACK ACCESS:          0  HIT:          0  MISS:          0
cpu0_L1I TOTAL     ACCESS:      10930  HIT:      10809  MISS:        121
cpu0_L1I LOAD      ACCESS:      10930  HIT:      10809  MISS:        121
cpu0_L1I RFO       ACCESS:          0  HIT:          0  MISS:          0
cpu0_L1I PREFETCH  ACCESS:          0  HIT:          0  MISS:          0
cpu0_L1I WRITEBACK ACCESS:          0  HIT:          0  MISS:          0
cpu0_STLB TOTAL     ACCESS:       4798  HIT:       2633  MISS:       2165
cpu0_STLB LOAD      ACCESS:       3832  HIT:       2191  MISS:       1641
cpu0_STLB RFO       ACCESS:        966  HIT:        442  MISS:        524
cpu0_STLB PREFETCH  ACCESS:          0  HIT:          0  MISS:          0
cpu0_STLB WRITEBACK ACCESS:          0  HIT:          0  MISS:          0
cpu0_L1D TOTAL     ACCESS:    6782934  HIT:    6481077  MISS:     301857
cpu0_L1D LOAD      ACCESS:    4792012  HIT:    4551506  MISS:     240506
cpu0_L1D RFO       ACCESS:    1988759  HIT:    1927528  MISS:      61231
cpu0_L1D PREFETCH  ACCESS:          0  HIT:          0  MISS:          0
cpu0_L1D WRITEBACK ACCESS:          0  HIT:          0  MISS:          0
cpu0_L2C TOTAL     ACCESS:     439643  HIT:     142653  MISS:     296990
cpu0_L2C LOAD      ACCESS:     240622  HIT:       6311  MISS:     234311
cpu0_L2C RFO       ACCESS:      61231  HIT:       1541  MISS:      59690
cpu0_L2C PREFETCH  ACCESS:          0  HIT:          0  MISS:          0
cpu0_L2C WRITEBACK ACCESS:     137670  HIT:     134764  MISS:       2906
LLC TOTAL     ACCESS:     429621  HIT:     195571  MISS:     234050
LLC LOAD      ACCESS:     234311  HIT:      35277  MISS:     199034
LLC RFO       ACCESS:      59690  HIT:      25100  MISS:      34590
LLC PREFETCH  ACCESS:          0  HIT:          0  MISS:          0
LLC WRITEBACK ACCESS:     135537  HIT:     135127  MISS:        410
Heartbeat CPU 0 instructions: 98000001 cycles: 42629939 heartbeat IPC: 1.15801 cumulative IPC: 1.67646 (Simulation time: 1 hr 14 min 58 sec) 

Region of Interest Statistics
cpu0_DTLB TOTAL     ACCESS:    8325627  HIT:    8320414  MISS:       5213
cpu0_DTLB LOAD      ACCESS:    6997265  HIT:    6993154  MISS:       4111
cpu0_DTLB RFO       ACCESS:    1328362  HIT:    1327260  MISS:       1102
cpu0_DTLB PREFETCH  ACCESS:          0  HIT:          0  MISS:          0
cpu0_DTLB WRITEBACK ACCESS:          0  HIT:          0  MISS:          0
cpu0_ITLB TOTAL     ACCESS:     881373  HIT:     881370  MISS:          3
cpu0_ITLB LOAD      ACCESS:     881373  HIT:     881370  MISS:          3
cpu0_ITLB RFO       ACCESS:          0  HIT:          0  MISS:          0
cpu0_ITLB PREFETCH  ACCESS:          0  HIT:          0  MISS:          0
cpu0_ITLB WRITEBACK ACCESS:          0  HIT:          0  MISS:          0
cpu0_L1I TOTAL     ACCESS:      10930  HIT:      10809  MISS:        121
cpu0_L1I LOAD      ACCESS:      10930  HIT:      10809  MISS:        121
cpu0_L1I RFO       ACCESS:          0  HIT:          0  MISS:          0
cpu0_L1I PREFETCH  ACCESS:          0  HIT:          0  MISS:          0
cpu0_L1I WRITEBACK ACCESS:          0  HIT:          0  MISS:          0
cpu0_STLB TOTAL     ACCESS:       5216  HIT:       2764  MISS:       2452
cpu0_STLB LOAD      ACCESS:       4114  HIT:       2322  MISS:       1792
cpu0_STLB RFO       ACCESS:       1102  HIT:        442  MISS:        660
cpu0_STLB PREFETCH  ACCESS:          0  HIT:          0  MISS:          0
cpu0_STLB WRITEBACK ACCESS:          0  HIT:          0  MISS:          0
cpu0_L1D TOTAL     ACCESS:    6969591  HIT:    6641922  MISS:     327669
cpu0_L1D LOAD      ACCESS:    4958563  HIT:    4700631  MISS:     257932
cpu0_L1D RFO       ACCESS:    2008578  HIT:    1938976  MISS:      69602
cpu0_L1D PREFETCH  ACCESS:          0  HIT:          0  MISS:          0
cpu0_L1D WRITEBACK ACCESS:          0  HIT:          0  MISS:          0
cpu0_L2C TOTAL     ACCESS:     473855  HIT:     151115  MISS:     322740
cpu0_L2C LOAD      ACCESS:     258048  HIT:       6399  MISS:     251649
cpu0_L2C RFO       ACCESS:      69602  HIT:       1541  MISS:      68061
cpu0_L2C PREFETCH  ACCESS:          0  HIT:          0  MISS:          0
cpu0_L2C WRITEBACK ACCESS:     146070  HIT:     143131  MISS:       2939
LLC TOTAL     ACCESS:     463706  HIT:     207824  MISS:     255882
LLC LOAD      ACCESS:     251649  HIT:      39154  MISS:     212495
LLC RFO       ACCESS:      68061  HIT:      25100  MISS:      42961
LLC PREFETCH  ACCESS:          0  HIT:          0  MISS:          0
LLC WRITEBACK ACCESS:     143905  HIT:     143495  MISS:        410
Heartbeat CPU 0 instructions: 100000003 cycles: 44550452 heartbeat IPC: 1.04139 cumulative IPC: 1.63654 (Simulation time: 1 hr 17 min 40 sec) 

Region of Interest Statistics
cpu0_DTLB TOTAL     ACCESS:    8739094  HIT:    8733466  MISS:       5628
cpu0_DTLB LOAD      ACCESS:    7366097  HIT:    7361706  MISS:       4391
cpu0_DTLB RFO       ACCESS:    1372997  HIT:    1371760  MISS:       1237
cpu0_DTLB PREFETCH  ACCESS:          0  HIT:          0  MISS:          0
cpu0_DTLB WRITEBACK ACCESS:          0  HIT:          0  MISS:          0
cpu0_ITLB TOTAL     ACCESS:     909308  HIT:     909305  MISS:          3
cpu0_ITLB LOAD      ACCESS:     909308  HIT:     909305  MISS:          3
cpu0_ITLB RFO       ACCESS:          0  HIT:          0  MISS:          0
cpu0_ITLB PREFETCH  ACCESS:          0  HIT:          0  MISS:          0
cpu0_ITLB WRITEBACK ACCESS:          0  HIT:          0  MISS:          0
cpu0_L1I TOTAL     ACCESS:      10930  HIT:      10809  MISS:        121
cpu0_L1I LOAD      ACCESS:      10930  HIT:      10809  MISS:        121
cpu0_L1I RFO       ACCESS:          0  HIT:          0  MISS:          0
cpu0_L1I PREFETCH  ACCESS:          0  HIT:          0  MISS:          0
cpu0_L1I WRITEBACK ACCESS:          0  HIT:          0  MISS:          0
cpu0_STLB TOTAL     ACCESS:       5631  HIT:       2894  MISS:       2737
cpu0_STLB LOAD      ACCESS:       4394  HIT:       2452  MISS:       1942
cpu0_STLB RFO       ACCESS:       1237  HIT:        442  MISS:        795
cpu0_STLB PREFETCH  ACCESS:          0  HIT:          0  MISS:          0
cpu0_STLB WRITEBACK ACCESS:          0  HIT:          0  MISS:          0
cpu0_L1D TOTAL     ACCESS:    7152848  HIT:    6799363  MISS:     353485
cpu0_L1D LOAD      ACCESS:    5120621  HIT:    4845257  MISS:     275364
cpu0_L1D RFO       ACCESS:    2029492  HIT:    1951521  MISS:      77971
cpu0_L1D PREFETCH  ACCESS:          0  HIT:          0  MISS:          0
cpu0_L1D WRITEBACK ACCESS:          0  HIT:          0  MISS:          0
cpu0_L2C TOTAL     ACCESS:     508084  HIT:     159612  MISS:     348472
cpu0_L2C LOAD      ACCESS:     275480  HIT:       6493  MISS:     268987
cpu0_L2C RFO       ACCESS:      77971  HIT:       1541  MISS:      76430
cpu0_L2C PREFETCH  ACCESS:          0  HIT:          0  MISS:          0
cpu0_L2C WRITEBACK ACCESS:     154483  HIT:     151525  MISS:       2958
LLC TOTAL     ACCESS:     497802  HIT:     217983  MISS:     279819
LLC LOAD      ACCESS:     268987  HIT:      40927  MISS:     228060
LLC RFO       ACCESS:      76430  HIT:      25100  MISS:      51330
LLC PREFETCH  ACCESS:          0  HIT:          0  MISS:          0
LLC WRITEBACK ACCESS:     152288  HIT:     151875  MISS:        413
Heartbeat CPU 0 instructions: 102000004 cycles: 46454102 heartbeat IPC: 1.05061 cumulative IPC: 1.60218 (Simulation time: 1 hr 20 min 22 sec) 

Region of Interest Statistics
cpu0_DTLB TOTAL     ACCESS:    9143517  HIT:    9137464  MISS:       6053
cpu0_DTLB LOAD      ACCESS:    7715060  HIT:    7710395  MISS:       4665
cpu0_DTLB RFO       ACCESS:    1428457  HIT:    1427069  MISS:       1388
cpu0_DTLB PREFETCH  ACCESS:          0  HIT:          0  MISS:          0
cpu0_DTLB WRITEBACK ACCESS:          0  HIT:          0  MISS:          0
cpu0_ITLB TOTAL     ACCESS:     944697  HIT:     944694  MISS:          3
cpu0_ITLB LOAD      ACCESS:     944697  HIT:     944694  MISS:          3
cpu0_ITLB RFO       ACCESS:          0  HIT:          0  MISS:          0
cpu0_ITLB PREFETCH  ACCESS:          0  HIT:          0  MISS:          0
cpu0_ITLB WRITEBACK ACCESS:          0  HIT:          0  MISS:          0
cpu0_L1I TOTAL     ACCESS:      10970  HIT:      10849  MISS:        121
cpu0_L1I LOAD      ACCESS:      10970  HIT:      10849  MISS:        121
cpu0_L1I RFO       ACCESS:          0  HIT:          0  MISS:          0
cpu0_L1I PREFETCH  ACCESS:          0  HIT:          0  MISS:          0
cpu0_L1I WRITEBACK ACCESS:          0  HIT:          0  MISS:          0
cpu0_STLB TOTAL     ACCESS:       6056  HIT:       3017  MISS:       3039
cpu0_STLB LOAD      ACCESS:       4668  HIT:       2575  MISS:       2093
cpu0_STLB RFO       ACCESS:       1388  HIT:        442  MISS:        946
cpu0_STLB PREFETCH  ACCESS:          0  HIT:          0  MISS:          0
cpu0_STLB WRITEBACK ACCESS:          0  HIT:          0  MISS:          0
cpu0_L1D TOTAL     ACCESS:    7326198  HIT:    6946863  MISS:     379335
cpu0_L1D LOAD      ACCESS:    5272184  HIT:    4980330  MISS:     291854
cpu0_L1D RFO       ACCESS:    2050977  HIT:    1963665  MISS:      87312
cpu0_L1D PREFETCH  ACCESS:          0  HIT:          0  MISS:          0
cpu0_L1D WRITEBACK ACCESS:          0  HIT:          0  MISS:          0
cpu0_L2C TOTAL     ACCESS:     542810  HIT:     168545  MISS:     374265
cpu0_L2C LOAD      ACCESS:     291970  HIT:       6583  MISS:     285387
cpu0_L2C RFO       ACCESS:      87312  HIT:       1541  MISS:      85771
cpu0_L2C PREFETCH  ACCESS:          0  HIT:          0  MISS:          0
cpu0_L2C WRITEBACK ACCESS:     163359  HIT:     160363  MISS:       2996
LLC TOTAL     ACCESS:     531947  HIT:     227429  MISS:     304518
LLC LOAD      ACCESS:     285387  HIT:      41970  MISS:     243417
LLC RFO       ACCESS:      85771  HIT:      25105  MISS:      60666
LLC PREFETCH  ACCESS:          0  HIT:          0  MISS:          0
LLC WRITEBACK ACCESS:     160678  HIT:     160265  MISS:        413
Heartbeat CPU 0 instructions: 104000001 cycles: 47474181 heartbeat IPC: 1.96063 cumulative IPC: 1.6131 (Simulation time: 1 hr 21 min 39 sec) 

Region of Interest Statistics
cpu0_DTLB TOTAL     ACCESS:    9382684  HIT:    9376229  MISS:       6455
cpu0_DTLB LOAD      ACCESS:    7718262  HIT:    7713597  MISS:       4665
cpu0_DTLB RFO       ACCESS:    1664422  HIT:    1662632  MISS:       1790
cpu0_DTLB PREFETCH  ACCESS:          0  HIT:          0  MISS:          0
cpu0_DTLB WRITEBACK ACCESS:          0  HIT:          0  MISS:          0
cpu0_ITLB TOTAL     ACCESS:    1112589  HIT:    1112586  MISS:          3
cpu0_ITLB LOAD      ACCESS:    1112589  HIT:    1112586  MISS:          3
cpu0_ITLB RFO       ACCESS:          0  HIT:          0  MISS:          0
cpu0_ITLB PREFETCH  ACCESS:          0  HIT:          0  MISS:          0
cpu0_ITLB WRITEBACK ACCESS:          0  HIT:          0  MISS:          0
cpu0_L1I TOTAL     ACCESS:      10970  HIT:      10849  MISS:        121
cpu0_L1I LOAD      ACCESS:      10970  HIT:      10849  MISS:        121
cpu0_L1I RFO       ACCESS:          0  HIT:          0  MISS:          0
cpu0_L1I PREFETCH  ACCESS:          0  HIT:          0  MISS:          0
cpu0_L1I WRITEBACK ACCESS:          0  HIT:          0  MISS:          0
cpu0_STLB TOTAL     ACCESS:       6458  HIT:       3017  MISS:       3441
cpu0_STLB LOAD      ACCESS:       4668  HIT:       2575  MISS:       2093
cpu0_STLB RFO       ACCESS:       1790  HIT:        442  MISS:       1348
cpu0_STLB PREFETCH  ACCESS:          0  HIT:          0  MISS:          0
cpu0_STLB WRITEBACK ACCESS:          0  HIT:          0  MISS:          0
cpu0_L1D TOTAL     ACCESS:    7355525  HIT:    6950467  MISS:     405058
cpu0_L1D LOAD      ACCESS:    5275386  HIT:    4983532  MISS:     291854
cpu0_L1D RFO       ACCESS:    2076700  HIT:    1963665  MISS:     113035
cpu0_L1D PREFETCH  ACCESS:          0  HIT:          0  MISS:          0
cpu0_L1D WRITEBACK ACCESS:          0  HIT:          0  MISS:          0
cpu0_L2C TOTAL     ACCESS:     594257  HIT:     194269  MISS:     399988
cpu0_L2C LOAD      ACCESS:     291970  HIT:       6583  MISS:     285387
cpu0_L2C RFO       ACCESS:     113035  HIT:       1541  MISS:     111494
cpu0_L2C PREFETCH  ACCESS:          0  HIT:          0  MISS:          0
cpu0_L2C WRITEBACK ACCESS:     189083  HIT:     186087  MISS:       2996
LLC TOTAL     ACCESS:     583020  HIT:     252760  MISS:     330260
LLC LOAD      ACCESS:     285387  HIT:      41970  MISS:     243417
LLC RFO       ACCESS:     111494  HIT:      25105  MISS:      86389
LLC PREFETCH  ACCESS:          0  HIT:          0  MISS:          0
LLC WRITEBACK ACCESS:     186028  HIT:     185596  MISS:        432
Heartbeat CPU 0 instructions: 106000003 cycles: 48482888 heartbeat IPC: 1.98274 cumulative IPC: 1.62391 (Simulation time: 1 hr 23 min 23 sec) 

Region of Interest Statistics
cpu0_DTLB TOTAL     ACCESS:    9837823  HIT:    9831174  MISS:       6649
cpu0_DTLB LOAD      ACCESS:    8107233  HIT:    8102433  MISS:       4800
cpu0_DTLB RFO       ACCESS:    1730590  HIT:    1728741  MISS:       1849
cpu0_DTLB PREFETCH  ACCESS:          0  HIT:          0  MISS:          0
cpu0_DTLB WRITEBACK ACCESS:          0  HIT:          0  MISS:          0
cpu0_ITLB TOTAL     ACCESS:    1198033  HIT:    1198030  MISS:          3
cpu0_ITLB LOAD      ACCESS:    1198033  HIT:    1198030  MISS:          3
cpu0_ITLB RFO       ACCESS:          0  HIT:          0  MISS:          0
cpu0_ITLB PREFETCH  ACCESS:          0  HIT:          0  MISS:          0
cpu0_ITLB WRITEBACK ACCESS:          0  HIT:          0  MISS:          0
cpu0_L1I TOTAL     ACCESS:      42967  HIT:      42846  MISS:        121
cpu0_L1I LOAD      ACCESS:      42967  HIT:      42846  MISS:        121
cpu0_L1I RFO       ACCESS:          0  HIT:          0  MISS:          0
cpu0_L1I PREFETCH  ACCESS:          0  HIT:          0  MISS:          0
cpu0_L1I WRITEBACK ACCESS:          0  HIT:          0  MISS:          0
cpu0_STLB TOTAL     ACCESS:       6652  HIT:       3061  MISS:       3591
cpu0_STLB LOAD      ACCESS:       4803  HIT:       2617  MISS:       2186
cpu0_STLB RFO       ACCESS:       1849  HIT:        444  MISS:       1405
cpu0_STLB PREFETCH  ACCESS:          0  HIT:          0  MISS:          0
cpu0_STLB WRITEBACK ACCESS:          0  HIT:          0  MISS:          0
cpu0_L1D TOTAL     ACCESS:    7683831  HIT:    7254351  MISS:     429480
cpu0_L1D LOAD      ACCESS:    5543922  HIT:    5232719  MISS:     311203
cpu0_L1D RFO       ACCESS:    2136322  HIT:    2018239  MISS:     118083
cpu0_L1D PREFETCH  ACCESS:          0  HIT:          0  MISS:          0
cpu0_L1D WRITEBACK ACCESS:          0  HIT:          0  MISS:          0
cpu0_L2C TOTAL     ACCESS:     626324  HIT:     208927  MISS:     417397
cpu0_L2C LOAD      ACCESS:     311319  HIT:      12249  MISS:     299070
cpu0_L2C RFO       ACCESS:     118083  HIT:       2929  MISS:     115154
cpu0_L2C PREFETCH  ACCESS:          0  HIT:          0  MISS:          0
cpu0_L2C WRITEBACK ACCESS:     196728  HIT:     193674  MISS:       3054
[...]
cpu0_DTLB RFO       ACCESS:   93164407  HIT:   92700157  MISS:     464250
cpu0_DTLB PREFETCH  ACCESS:          0  HIT:          0  MISS:          0
cpu0_DTLB WRITEBACK ACCESS:          0  HIT:          0  MISS:          0
cpu0_DTLB TRANSLATION ACCESS:          0  HIT:          0  MISS:          0
cpu0_DTLB PREFETCH  REQUESTED:          0  ISSUED:          0  USEFUL:          0  USELESS:          0
cpu0_DTLB AVERAGE MISS LATENCY: 11.6039 cycles
cpu0_ITLB TOTAL     ACCESS:   58278025  HIT:   58277982  MISS:         43
cpu0_ITLB LOAD      ACCESS:   58278025  HIT:   58277982  MISS:         43
cpu0_ITLB RFO       ACCESS:          0  HIT:          0  MISS:          0
cpu0_ITLB PREFETCH  ACCESS:          0  HIT:          0  MISS:          0
cpu0_ITLB WRITEBACK ACCESS:          0  HIT:          0  MISS:          0
cpu0_ITLB TRANSLATION ACCESS:          0  HIT:          0  MISS:          0
cpu0_ITLB PREFETCH  REQUESTED:          0  ISSUED:          0  USEFUL:          0  USELESS:          0
cpu0_ITLB AVERAGE MISS LATENCY: 235.651 cycles
cpu0_L1I TOTAL     ACCESS:  127151282  HIT:  126085353  MISS:    1065929
cpu0_L1I LOAD      ACCESS:  127151282  HIT:  126085353  MISS:    1065929
cpu0_L1I RFO       ACCESS:          0  HIT:          0  MISS:          0
cpu0_L1I PREFETCH  ACCESS:          0  HIT:          0  MISS:          0
cpu0_L1I WRITEBACK ACCESS:          0  HIT:          0  MISS:          0
cpu0_L1I TRANSLATION ACCESS:          0  HIT:          0  MISS:          0
cpu0_L1I PREFETCH  REQUESTED:          0  ISSUED:          0  USEFUL:          0  USELESS:          0
cpu0_L1I AVERAGE MISS LATENCY: 12.3644 cycles
cpu0_STLB TOTAL     ACCESS:    1367656  HIT:    1332477  MISS:      35179
cpu0_STLB LOAD      ACCESS:     903406  HIT:     877611  MISS:      25795
cpu0_STLB RFO       ACCESS:     464250  HIT:     454866  MISS:       9384
cpu0_STLB PREFETCH  ACCESS:          0  HIT:          0  MISS:          0
cpu0_STLB WRITEBACK ACCESS:          0  HIT:          0  MISS:          0
cpu0_STLB TRANSLATION ACCESS:          0  HIT:          0  MISS:          0
cpu0_STLB PREFETCH  REQUESTED:          0  ISSUED:          0  USEFUL:          0  USELESS:          0
cpu0_STLB AVERAGE MISS LATENCY: 99.4271 cycles
cpu0_L1D TOTAL     ACCESS:  405112283  HIT:  399230172  MISS:    5882111
cpu0_L1D LOAD      ACCESS:  233258974  HIT:  228760959  MISS:    4498015
cpu0_L1D RFO       ACCESS:  171818217  HIT:  170438115  MISS:    1380102
cpu0_L1D PREFETCH  ACCESS:          0  HIT:          0  MISS:          0
cpu0_L1D WRITEBACK ACCESS:          0  HIT:          0  MISS:          0
cpu0_L1D TRANSLATION ACCESS:      35092  HIT:      31098  MISS:       3994
cpu0_L1D PREFETCH  REQUESTED:          0  ISSUED:          0  USEFUL:          0  USELESS:          0
cpu0_L1D AVERAGE MISS LATENCY: 133.978 cycles
cpu0_L2C TOTAL     ACCESS:    9030237  HIT:    5419216  MISS:    3611021
cpu0_L2C LOAD      ACCESS:    5563912  HIT:    2718705  MISS:    2845207
cpu0_L2C RFO       ACCESS:    1379611  HIT:     666440  MISS:     713171
cpu0_L2C PREFETCH  ACCESS:          0  HIT:          0  MISS:          0
cpu0_L2C WRITEBACK ACCESS:    2082720  HIT:    2032031  MISS:      50689
cpu0_L2C TRANSLATION ACCESS:       3994  HIT:       2040  MISS:       1954
cpu0_L2C PREFETCH  REQUESTED:          0  ISSUED:          0  USEFUL:          0  USELESS:          0
cpu0_L2C AVERAGE MISS LATENCY: 200.68 cycles
LLC TOTAL     ACCESS:    5043237  HIT:    2295377  MISS:    2747860
LLC LOAD      ACCESS:    2845203  HIT:     694442  MISS:    2150761
LLC RFO       ACCESS:     713157  HIT:     118913  MISS:     594244
LLC PREFETCH  ACCESS:          0  HIT:          0  MISS:          0
LLC WRITEBACK ACCESS:    1482923  HIT:    1480207  MISS:       2716
LLC TRANSLATION ACCESS:       1954  HIT:       1815  MISS:        139
LLC PREFETCH  REQUESTED:          0  ISSUED:          0  USEFUL:          0  USELESS:          0
LLC AVERAGE MISS LATENCY: 236.508 cycles
~~~~~~~~~~Reuse Distance Profiler output~~~~~~~~~~
0	65335536	9237088
1	19623136	8866960
2	21672080	12545216
3	22152704	14193824
4	17484752	13289232
5	16633968	12644304
6	13754688	11849632
7	11680528	9205984
8	12846448	10206592
9	7514128	6159056
10	6027184	4890208
11	4791984	4267008
12	5930320	4437360
13	3772624	3203664
14	4281632	4037600
15	3899888	3404448
16	3872784	3478016
17	2106048	1844096
18	2747872	2477952
19	3695552	3422800
20	1960112	1746224
21	2357712	1674544
22	3500976	2385648
23	2428912	1940704
24	2746480	1890800
25	2201440	1413920
26	2740672	1291760
27	2260112	1248032
28	2085680	973440
29	1907664	805616
30	1925408	1157248
31	1754464	665504
32	3543568	2539104
33	2471136	1289600
34	8762912	2669056
35	2167840	1301904
36	3401584	1998224
37	2048336	1168752
38	1847184	722912
39	2192016	1046032
40	2788816	1025728
41	2674768	1268672
42	2790480	1610576
43	4229360	2226352
44	2791856	1501248
45	2363920	1641504
46	1234000	798576
47	1154256	544624
48	1766848	827232
49	6661968	964064
50	1872592	982096
51	1133040	761312
52	774768	610528
53	668368	559296
54	723472	597552
55	871520	784880
56	630352	562688
57	748944	621216
58	670176	521936
59	731504	544144
60	477344	376224
61	832384	667744
62	550432	382128
63	615648	359040
64	959472	619632
66	1277936	746752
68	2036880	992768
70	2162816	880880
72	1582128	582672
74	1483664	867552
76	4254512	2966480
78	1255520	1044704
80	4893968	4321232
82	1251680	1052160
84	947920	748208
86	3345168	2788064
88	4693072	3798368
90	919376	755312
92	685744	257808
94	306112	244224
96	222656	165248
98	252096	185824
100	390096	326688
102	269968	214752
104	238016	172464
106	324784	265136
108	314224	214080
110	234672	167920
112	397760	255552
114	222768	172048
116	187744	157744
118	207184	164352
120	290272	217232
122	459760	409184
124	283824	254448
126	370144	316688
128	574016	469088
132	360976	316784
136	309584	226960
140	418160	347424
144	360816	288288
148	380800	310896
152	512432	434848
156	858896	458176
160	1487376	660608
164	633408	314400
168	263216	171040
172	341072	252112
176	259248	203792
180	214288	163824
184	209696	169216
188	277488	233040
192	169472	136096
196	157456	133824
200	152720	147952
204	163408	149856
208	114752	112784
212	127408	107040
216	218080	154352
220	134560	62272
224	182528	68688
228	128992	67056
232	334192	115424
236	493616	154976
240	448336	121696
244	704064	132560
248	295968	83616
252	189632	51696
256	111680	63568
264	54608	44400
272	51856	50640
280	56832	56496
288	75376	75120
296	93776	93360
304	70336	69904
312	85904	71680
320	73040	72336
328	40688	40016
336	23360	21696
344	10368	8048
352	8480	7376
360	15360	14928
368	11280	10880
376	4432	2224
384	13760	6032
392	2448	2192
400	18496	17984
408	38128	37952
416	32320	32208
424	11504	11312
432	8816	7520
440	8864	8512
448	12288	11312
456	13808	13312
464	28784	26192
472	29536	23392
480	45536	38880
488	38384	31184
496	37200	35600
504	51824	43072
512	138432	121120
528	183328	172848
544	109568	107744
560	116896	100896
576	153136	79056
592	185888	82224
608	100256	77696
624	91184	75648
640	88752	86928
656	55840	55648
672	32096	31920
688	60880	60640
704	29008	28768
720	35904	34928
736	42176	40320
752	77328	58480
768	74672	68112
784	56464	48880
800	88448	71808
816	76672	62064
832	120960	38016
848	207056	36592
864	64544	35744
880	90144	74688
896	35808	29184
912	56720	51648
928	36992	21552
944	73904	60096
960	77888	69824
976	64768	61024
992	50096	49824
1008	37456	23184
1024	50224	50032
1056	65680	65024
1088	54000	53840
1120	47712	34896
1152	73264	56624
1184	113712	50960
1216	80608	46048
1248	29600	28704
1280	48416	48288
1312	44144	44128
1344	74672	74624
1376	76704	76528
1408	22784	22656
1440	64944	64928
1472	67904	67808
1504	38416	38272
1536	40160	40128
1568	31648	29888
1600	58400	47104
1632	45120	31696
1664	42400	38848
1696	41328	26848
1728	42384	40704
1760	50576	40960
1792	70720	61664
1824	52816	40816
1856	38416	32224
1888	64896	39248
1920	25712	23904
1952	43504	43072
1984	51824	37424
2016	72832	58160
2048	141360	101808
2112	107120	78464
2176	85152	84768
2240	195056	178912
2304	461584	410560
2368	259456	213776
2432	160128	148624
2496	184816	169424
2560	147744	137040
2624	41472	38672
2688	81328	81104
2752	61872	61792
2816	71152	70992
2880	19056	18912
2944	60928	57040
3008	42272	17872
3072	56960	29936
3136	30128	28960
3200	22432	22320
3264	33232	32784
3328	71808	71504
3392	150208	139200
3456	121040	98480
3520	201440	124048
3584	154336	86944
3648	187152	95632
3712	77264	23088
3776	102000	48848
3840	118448	61520
3904	58480	15984
3968	88896	42624
4032	104672	33680
4096	193296	65536
4224	126768	28208
4352	139376	35632
4480	145280	53984
4608	104784	44128
4736	99696	44864
4864	71680	11360
4992	123440	75248
5120	107408	20512
5248	92384	35792
5376	61168	13632
5504	63504	14800
5632	94576	42128
5760	52000	544
5888	77328	15296
6016	45488	720
6144	63488	14912
6272	155440	66848
6400	46528	2096
6528	38688	624
6656	48944	27616
6784	36336	14320
6912	36608	592
7040	26944	608
7168	41280	480
7296	42016	928
7424	42480	13840
7552	23136	944
7680	52800	17472
7808	76928	42400
7936	102592	66640
8064	125088	56464
8192	239072	95488
8448	172432	33568
8704	246960	41760
8960	288752	63680
9216	228848	79584
9472	155184	61392
9728	124144	34304
9984	105120	28032
10240	163392	157712
10496	158320	58160
10752	266976	72560
11008	177904	45168
11264	99408	50224
11520	49056	44496
11776	44912	26512
12032	10128	5856
12288	10576	6480
12544	37312	19408
12800	23088	19328
13056	22912	5296
13312	9344	5392
13568	10336	5952
13824	13136	8096
14080	13696	8352
14336	90496	72608
14592	25216	21440
14848	19344	17616
15104	21056	18944
15360	23392	21232
15616	33312	29008
15872	28640	19632
16128	99952	67552
16384	568944	312096
16896	206944	172752
17408	1321888	86768
17920	588752	79296
18432	564928	58224
18944	727184	66624
19456	145536	60976
19968	3236320	3064832
20480	8448	4656
20992	10880	7184
21504	7968	4400
22016	9456	5584
22528	10976	6560
23040	9184	5040
23552	8336	3504
24064	8336	4208
24576	11616	6320
25088	9680	4864
25600	14960	10176
26112	18400	12128
26624	12768	6336
27136	9888	4928
27648	10432	6080
28160	7664	4128
28672	7888	5264
29184	4464	2592
29696	5408	2928
30208	4336	2688
30720	4224	2448
31232	3504	1728
31744	4272	2672
32256	3888	1888
32768	4528	2944
33792	3040	2576
34816	2192	1744
35840	1136	704
36864	896	464
37888	1504	1088
38912	3744	3248
39936	257968	257488
40960	72304	71824
41984	94496	94000
43008	71440	71008
44032	768	336
45056	640	192
46080	816	400
47104	784	336
48128	624	96
49152	720	240
50176	640	144
51200	800	352
52224	528	128
53248	832	368
54272	864	352
55296	816	416
56320	976	432
57344	167328	166832
58368	528	176
59392	880	464
60416	592	128
61440	688	192
62464	544	96
63488	544	48
64512	544	0
65536	928	32
67584	944	16
69632	944	0
71680	1024	0
73728	992	32
75776	944	80
77824	1088	176
79872	1296	288
81920	1072	160
83968	1056	32
86016	880	0
88064	928	16
90112	1024	80
92160	1024	96
94208	992	96
96256	1200	256
98304	1104	144
100352	1216	336
102400	1200	224
104448	992	32
106496	912	0
108544	912	0
110592	976	0
112640	944	0
114688	880	16
116736	1008	80
118784	1296	320
120832	1120	240
122880	1008	64
124928	896	16
126976	944	0
129024	848	32
131072	2144	304
135168	2160	304
139264	2336	592
143360	2096	208
147456	8944	6976
151552	13088	11056
155648	9744	7712
159744	6096	4144
163840	1776	0
167936	1968	16
172032	2128	208
176128	2224	272
180224	2448	544
184320	1920	144
188416	1968	48
192512	2016	16
196608	2080	112
200704	2416	256
204800	2048	0
208896	1968	32
212992	2176	160
217088	2416	304
221184	2880	368
225280	2208	112
229376	2000	48
233472	1888	0
237568	2224	272
241664	2384	144
245760	2192	0
249856	1968	32
253952	2288	176
258048	2688	352
262144	1952	1936
270336	3392	3392
278528	3904	3904
286720	3792	3792
294912	3920	3920
303104	4112	4112
311296	3328	3328
319488	4512	4512
327680	3136	3136
335872	3536	3536
344064	4000	4000
352256	3424	3424
360448	3760	3760
368640	4176	4176
376832	3936	3936
385024	3488	3488
393216	4160	4160
401408	3200	3200
409600	3376	3376
417792	4512	4512
425984	3184	3184
434176	3520	3520
442368	3968	3968
450560	3200	3200
458752	3504	3504
466944	3856	3856
475136	3744	3744
483328	3760	3760
491520	3248	3248
499712	3008	3008
507904	3648	3648
516096	3824	3824
524288	7008	7008
540672	7040	7024
557056	14192	14176
573440	22624	22624
589824	25584	25584
606208	30448	30448
622592	27744	27744
638976	544	544
655360	1600	1600
671744	976	976
688128	816	816
704512	1392	1376
720896	1136	1136
737280	1072	1072
753664	1152	1152
770048	1056	1056
786432	864	848
802816	992	992
819200	2320	2320
835584	496	496
851968	1136	1136
868352	1584	1584
884736	464	464
901120	1728	1728
917504	1408	1408
933888	624	624
950272	1440	1440
966656	1584	1584
983040	4560	4560
999424	3392	3392
1015808	1616	1616
1032192	1376	1376
1048576	2848	2848
1081344	2656	2640
1114112	3184	3168
1146880	2960	2960
1179648	2944	2944
1212416	7248	2688
1245184	16240	2976
1277952	16064	2976
1310720	15536	2896
1343488	14928	3168
1376256	15008	3200
1409024	14880	3152
1441792	10192	2432
1474560	3008	2768
1507328	5728	3424
1540096	4208	2960
1572864	4352	2592
1605632	4320	2864
1638400	3856	2496
1671168	4656	2832
1703936	4304	3232
1736704	4080	2592
1769472	3904	2736
1802240	4800	3296
1835008	4064	2704
1867776	4176	2752
1900544	4000	2560
1933312	3984	2720
1966080	4800	3040
1998848	4400	3024
2031616	3424	2192
2064384	5232	3536
2097152	8080	5408
2162688	7728	5152
2228224	7552	4496
2293760	7248	4112
2359296	7120	3952
2424832	21648	18816
2490368	7840	4976
2555904	7216	4064
2621440	7232	4304
2686976	6608	3984
2752512	6944	4048
2818048	6784	4080
2883584	7296	4720
2949120	6800	4176
3014656	7728	4624
3080192	6800	3664
3145728	6960	4080
3211264	14176	11232
3276800	18384	15776
3342336	20272	17392
3407872	19776	16528
3473408	19568	16448
3538944	21616	16976
3604480	20416	15120
3670016	21264	16464
3735552	19392	16768
3801088	19200	16192
3866624	16480	13504
3932160	16384	13216
3997696	16592	13568
4063232	17008	15104
4128768	21056	21024
4194304	40848	40848
4325376	36880	36864
4456448	32800	32800
4587520	34272	34016
4718592	32848	32224
4849664	24528	24480
4980736	11376	11376
5111808	11632	11584
5242880	4976	4976
5373952	3888	3888
5505024	3232	3232
5636096	3744	3744
5767168	4112	4112
5898240	4000	4000
6029312	3264	3264
6160384	3680	3680
6291456	3408	3408
6422528	3504	3504
6553600	3264	3264
6684672	4096	4096
6815744	10496	10496
6946816	13424	13424
7077888	2208	2208
7208960	400	400
7340032	640	592
7471104	672	656
7602176	256	256
7733248	656	656
7864320	624	624
7995392	304	304
8126464	512	512
8257536	528	528
8388608	528	528
8650752	896	896
8912896	1696	912
9175040	944	928
9437184	672	672
9699328	1184	736
9961472	1440	624
10223616	848	848
10485760	832	544
10747904	1088	688
11010048	496	496
11272192	656	656
11534336	1024	1024
11796480	976	976
12058624	1264	1264
12320768	7056	704
12582912	28128	592
12845056	34496	832
13107200	15632	608
13369344	1520	896
13631488	336	336
13893632	142336	141232
14155776	93008	91792
14417920	3872	3872
14680064	3808	3808
14942208	4336	4336
15204352	5040	5040
15466496	4416	4400
15728640	4112	3888
15990784	7744	4592
16252928	7728	4288
16515072	7248	3840
16777216	13904	6672
17301504	9616	2368
17825792	6752	2432
18350080	2752	2752
18874368	1536	1536
19398656	1136	1136
19922944	1216	1216
20447232	1280	1280
20971520	1344	1344
21495808	1664	1664
22020096	1280	1280
22544384	1184	1184
23068672	1040	1040
23592960	1184	1184
24117248	1280	1280
24641536	1056	1056
25165824	2000	2000
25690112	1040	1040
26214400	1632	1632
26738688	2112	2112
27262976	1264	1264
27787264	1536	1536
28311552	1584	1584
28835840	1040	1040
29360128	912	912
29884416	1264	1264
30408704	1552	1552
30932992	1952	1952
31457280	1424	1424
31981568	1888	1888
32505856	1520	1520
33030144	1216	1216
33554432	1968	1968
34603008	9984	9984
35651584	54736	54736
36700160	51360	51360
37748736	31776	31776
38797312	176	176
39845888	592	592
40894464	560	560
41943040	704	704
42991616	576	576
44040192	1024	1024
45088768	816	816
46137344	864	864
47185920	752	752
48234496	736	736
49283072	320	320
50331648	496	496
51380224	576	576
52428800	256	256
53477376	480	480
54525952	480	480
55574528	800	800
56623104	464	464
57671680	592	592
58720256	432	432
59768832	592	592
60817408	528	528
61865984	752	752
62914560	448	448
63963136	480	480
65011712	752	752
66060288	640	640
67108864	1184	1184
69206016	1280	1280
71303168	1328	1328
73400320	1040	1040
75497472	1568	1552
77594624	1920	1920
79691776	1760	1760
81788928	1520	1520
83886080	1632	1632
85983232	2032	2016
88080384	1632	1632
90177536	2176	2176
92274688	2336	2320
94371840	2080	2064
96468992	2224	2224
98566144	2512	2512
100663296	2288	2272
102760448	2272	2272
104857600	2144	2144
106954752	2144	2144
109051904	1920	1920
111149056	2448	2432
113246208	2224	2224
115343360	2432	2432
117440512	3056	3056
119537664	2576	2576
121634816	2608	2608
123731968	2800	2784
125829120	2768	2768
127926272	2992	2992
130023424	3200	3168
132120576	2704	2688
134217728	5824	5808
138412032	6304	6304
142606336	5360	5344
146800640	5616	5616
150994944	5648	5632
155189248	6080	6080
159383552	5984	5968
163577856	5600	5584
167772160	5776	5776
171966464	5808	5744
176160768	5616	5616
180355072	6160	6128
184549376	6272	6224
188743680	6880	6880
192937984	5936	5904
197132288	5296	5296
201326592	6240	6240
205520896	6192	6176
209715200	6336	6304
213909504	5664	5648
218103808	6368	6368
222298112	6400	6400
226492416	6656	6608
230686720	6000	6000
234881024	6032	6032
239075328	6288	6272
243269632	5904	5888
247463936	6480	6448
251658240	5344	5328
255852544	5776	5744
260046848	5616	5616
264241152	5888	5872
268435456	11136	11104
276824064	12496	12448
285212672	7792	7760
293601280	8096	8016
301989888	7152	7104
310378496	8112	8112
318767104	7168	7152
327155712	6528	6448
335544320	5968	5952
343932928	6224	6176
352321536	4992	4960
360710144	4992	4992
369098752	2944	2944
377487360	3008	3008
385875968	2272	2272
394264576	1296	1296
402653184	816	816
411041792	368	368
419430400	0	0
427819008	0	0
436207616	0	0
444596224	0	0
452984832	0	0
461373440	0	0
469762048	0	0
478150656	0	0
486539264	0	0
494927872	0	0
503316480	0	0
511705088	0	0
520093696	0	0
528482304	0	0
536870912	0	0
553648128	0	0
570425344	0	0
587202560	0	0
603979776	0	0
620756992	0	0
637534208	0	0
654311424	0	0
671088640	0	0
687865856	0	0
704643072	0	0
721420288	0	0
738197504	0	0
754974720	0	0
771751936	0	0
788529152	0	0
805306368	0	0
822083584	0	0
838860800	0	0
855638016	0	0
872415232	0	0
889192448	0	0
905969664	0	0
922746880	0	0
939524096	0	0
956301312	0	0
973078528	0	0
989855744	0	0
1006632960	0	0
1023410176	0	0
1040187392	0	0
1056964608	0	0
1073741824	0	0
1107296256	0	0
1140850688	0	0
1174405120	0	0
1207959552	0	0
1241513984	0	0
1275068416	0	0
1308622848	0	0
1342177280	0	0
1375731712	0	0
1409286144	0	0
1442840576	0	0
1476395008	0	0
1509949440	0	0
1543503872	0	0
1577058304	0	0
1610612736	0	0
1644167168	0	0
1677721600	0	0
1711276032	0	0
1744830464	0	0
1778384896	0	0
1811939328	0	0
1845493760	0	0
1879048192	0	0
1912602624	0	0
1946157056	0	0
1979711488	0	0
2013265920	0	0
2046820352	0	0
2080374784	0	0
2113929216	0	0
2147483648	0	0
2214592512	0	0
2281701376	0	0
2348810240	0	0
2415919104	0	0
2483027968	0	0
2550136832	0	0
2617245696	0	0
2684354560	0	0
2751463424	0	0
2818572288	0	0
2885681152	0	0
2952790016	0	0
3019898880	0	0
3087007744	0	0
3154116608	0	0
3221225472	0	0
3288334336	0	0
3355443200	0	0
3422552064	0	0
3489660928	0	0
3556769792	0	0
3623878656	0	0
3690987520	0	0
3758096384	0	0
3825205248	0	0
3892314112	0	0
3959422976	0	0
4026531840	0	0
4093640704	0	0
4160749568	0	0
4227858432	0	0
~~~~~~~~~~Reuse Distance Profiler output end~~~~~~~~~~

Sampler size:67298

DRAM Statistics
 CHANNEL 0
 RQ ROW_BUFFER_HIT:     236820  ROW_BUFFER_MISS:    2507559
 DBUS AVG_CONGESTED_CYCLE:    3.91992
 WQ ROW_BUFFER_HIT:     186042  ROW_BUFFER_MISS:     938309  FULL:          0


CPU 0 Branch Prediction Accuracy: 97.8067% MPKI: 2.49518 Average ROB Occupancy at Mispredict: 90.416
Branch type MPKI
BRANCH_DIRECT_JUMP: 4.53333e-05
BRANCH_INDIRECT: 0
BRANCH_CONDITIONAL: 2.49481
BRANCH_DIRECT_CALL: 0.000174
BRANCH_INDIRECT_CALL: 0
BRANCH_RETURN: 0.000149333

