
*** ChampSim Multicore Out-of-Order Simulator ***

Warmup Instructions: 50000000
Simulation Instructions: 1500000000
Number of CPUs: 1
Off-chip DRAM Size: 4 GiB Channels: 1 Width: 64-bit Data Rate: 3200 MT/s

VirtualMemory physical capacity: 8588881920 num_ppages: 2096895
VirtualMemory page size: 4096 log2_page_size: 12

CPU 0 runs /s/traces/champsim_traces/602.gcc_s-2375B.champsimtrace.xz
CPU 0 Bimodal branch predictor
Basic BTB sets: 1024 ways: 8 indirect buffer size: 4096 RAS size: 64
Initializing LRU.
Initializing LRU.
Initializing LRU.
Initializing LRU.
Initializing rdLRU.
Initializing LRU.
Initializing LRU.
Heartbeat CPU 0 instructions: 2000002 cycles: 500413 heartbeat IPC: 3.9967 cumulative IPC: 3.9967 (Simulation time: 0 hr 0 min 53 sec) 
Heartbeat CPU 0 instructions: 4000001 cycles: 1006989 heartbeat IPC: 3.94807 cumulative IPC: 3.97224 (Simulation time: 0 hr 1 min 50 sec) 
Heartbeat CPU 0 instructions: 6000001 cycles: 1510544 heartbeat IPC: 3.97176 cumulative IPC: 3.97208 (Simulation time: 0 hr 2 min 49 sec) 
Heartbeat CPU 0 instructions: 8000002 cycles: 2012176 heartbeat IPC: 3.98699 cumulative IPC: 3.9758 (Simulation time: 0 hr 3 min 53 sec) 
Heartbeat CPU 0 instructions: 10000003 cycles: 2533531 heartbeat IPC: 3.83616 cumulative IPC: 3.94706 (Simulation time: 0 hr 5 min 3 sec) 
Heartbeat CPU 0 instructions: 12000002 cycles: 3042955 heartbeat IPC: 3.926 cumulative IPC: 3.94354 (Simulation time: 0 hr 6 min 6 sec) 
Heartbeat CPU 0 instructions: 14000001 cycles: 3555837 heartbeat IPC: 3.89953 cumulative IPC: 3.93719 (Simulation time: 0 hr 7 min 9 sec) 
Heartbeat CPU 0 instructions: 16000001 cycles: 4080724 heartbeat IPC: 3.81034 cumulative IPC: 3.92087 (Simulation time: 0 hr 8 min 16 sec) 
Heartbeat CPU 0 instructions: 18000002 cycles: 4589457 heartbeat IPC: 3.93134 cumulative IPC: 3.92203 (Simulation time: 0 hr 9 min 18 sec) 
Heartbeat CPU 0 instructions: 20000001 cycles: 5089713 heartbeat IPC: 3.99795 cumulative IPC: 3.92949 (Simulation time: 0 hr 10 min 19 sec) 
Heartbeat CPU 0 instructions: 22000000 cycles: 5589989 heartbeat IPC: 3.99779 cumulative IPC: 3.93561 (Simulation time: 0 hr 11 min 19 sec) 
Heartbeat CPU 0 instructions: 24000003 cycles: 6090869 heartbeat IPC: 3.99298 cumulative IPC: 3.94033 (Simulation time: 0 hr 12 min 20 sec) 
Heartbeat CPU 0 instructions: 26000003 cycles: 6591634 heartbeat IPC: 3.99389 cumulative IPC: 3.94439 (Simulation time: 0 hr 13 min 21 sec) 
Heartbeat CPU 0 instructions: 28000003 cycles: 7093053 heartbeat IPC: 3.98868 cumulative IPC: 3.94752 (Simulation time: 0 hr 14 min 21 sec) 
Heartbeat CPU 0 instructions: 30000002 cycles: 7607496 heartbeat IPC: 3.8877 cumulative IPC: 3.94348 (Simulation time: 0 hr 15 min 29 sec) 
Heartbeat CPU 0 instructions: 32000002 cycles: 8125676 heartbeat IPC: 3.85966 cumulative IPC: 3.93813 (Simulation time: 0 hr 16 min 36 sec) 
Heartbeat CPU 0 instructions: 34000002 cycles: 8642224 heartbeat IPC: 3.87186 cumulative IPC: 3.93417 (Simulation time: 0 hr 17 min 35 sec) 
Heartbeat CPU 0 instructions: 36000001 cycles: 9150669 heartbeat IPC: 3.93356 cumulative IPC: 3.93414 (Simulation time: 0 hr 18 min 37 sec) 
Heartbeat CPU 0 instructions: 38000003 cycles: 9658962 heartbeat IPC: 3.93474 cumulative IPC: 3.93417 (Simulation time: 0 hr 19 min 39 sec) 
Heartbeat CPU 0 instructions: 40000003 cycles: 10173863 heartbeat IPC: 3.88424 cumulative IPC: 3.93164 (Simulation time: 0 hr 20 min 45 sec) 
Heartbeat CPU 0 instructions: 42000000 cycles: 10687525 heartbeat IPC: 3.89361 cumulative IPC: 3.92982 (Simulation time: 0 hr 21 min 49 sec) 
Heartbeat CPU 0 instructions: 44000001 cycles: 11199646 heartbeat IPC: 3.90533 cumulative IPC: 3.9287 (Simulation time: 0 hr 22 min 56 sec) 
Heartbeat CPU 0 instructions: 46000002 cycles: 11732735 heartbeat IPC: 3.75172 cumulative IPC: 3.92065 (Simulation time: 0 hr 23 min 54 sec) 
Heartbeat CPU 0 instructions: 48000002 cycles: 12252027 heartbeat IPC: 3.8514 cumulative IPC: 3.91772 (Simulation time: 0 hr 25 min 2 sec) 
Heartbeat CPU 0 instructions: 50000003 cycles: 12789953 heartbeat IPC: 3.71799 cumulative IPC: 3.90932 (Simulation time: 0 hr 26 min 1 sec) 

Warmup complete CPU 0 instructions: 50000003 cycles: 12789953 (Simulation time: 0 hr 26 min 1 sec) 

Heartbeat CPU 0 instructions: 52000002 cycles: 15803513 heartbeat IPC: 0.663667 cumulative IPC: 0.663667 (Simulation time: 0 hr 27 min 12 sec) 

Region of Interest Statistics
cpu0_DTLB TOTAL     ACCESS:     379941  HIT:     367038  MISS:      12903
cpu0_DTLB LOAD      ACCESS:     283638  HIT:     271405  MISS:      12233
cpu0_DTLB RFO       ACCESS:      96303  HIT:      95633  MISS:        670
cpu0_DTLB PREFETCH  ACCESS:          0  HIT:          0  MISS:          0
cpu0_DTLB WRITEBACK ACCESS:          0  HIT:          0  MISS:          0
cpu0_ITLB TOTAL     ACCESS:     224333  HIT:     224320  MISS:         13
cpu0_ITLB LOAD      ACCESS:     224333  HIT:     224320  MISS:         13
cpu0_ITLB RFO       ACCESS:          0  HIT:          0  MISS:          0
cpu0_ITLB PREFETCH  ACCESS:          0  HIT:          0  MISS:          0
cpu0_ITLB WRITEBACK ACCESS:          0  HIT:          0  MISS:          0
cpu0_L1I TOTAL     ACCESS:     163310  HIT:     163100  MISS:        210
cpu0_L1I LOAD      ACCESS:     163310  HIT:     163100  MISS:        210
cpu0_L1I RFO       ACCESS:          0  HIT:          0  MISS:          0
cpu0_L1I PREFETCH  ACCESS:          0  HIT:          0  MISS:          0
cpu0_L1I WRITEBACK ACCESS:          0  HIT:          0  MISS:          0
cpu0_STLB TOTAL     ACCESS:      12916  HIT:      12691  MISS:        225
cpu0_STLB LOAD      ACCESS:      12246  HIT:      12021  MISS:        225
cpu0_STLB RFO       ACCESS:        670  HIT:        670  MISS:          0
cpu0_STLB PREFETCH  ACCESS:          0  HIT:          0  MISS:          0
cpu0_STLB WRITEBACK ACCESS:          0  HIT:          0  MISS:          0
cpu0_L1D TOTAL     ACCESS:     478730  HIT:     460264  MISS:      18466
cpu0_L1D LOAD      ACCESS:     296232  HIT:     279452  MISS:      16780
cpu0_L1D RFO       ACCESS:     182273  HIT:     180726  MISS:       1547
cpu0_L1D PREFETCH  ACCESS:          0  HIT:          0  MISS:          0
cpu0_L1D WRITEBACK ACCESS:          0  HIT:          0  MISS:          0
cpu0_L2C TOTAL     ACCESS:      22432  HIT:       6070  MISS:      16362
cpu0_L2C LOAD      ACCESS:      16990  HIT:       2215  MISS:      14775
cpu0_L2C RFO       ACCESS:       1548  HIT:        209  MISS:       1339
cpu0_L2C PREFETCH  ACCESS:          0  HIT:          0  MISS:          0
cpu0_L2C WRITEBACK ACCESS:       3755  HIT:       3603  MISS:        152
LLC TOTAL     ACCESS:      18795  HIT:      18261  MISS:        534
LLC LOAD      ACCESS:      14775  HIT:      14298  MISS:        477
LLC RFO       ACCESS:       1339  HIT:       1282  MISS:         57
LLC PREFETCH  ACCESS:          0  HIT:          0  MISS:          0
LLC WRITEBACK ACCESS:       2585  HIT:       2585  MISS:          0
Heartbeat CPU 0 instructions: 54000003 cycles: 17903440 heartbeat IPC: 0.952415 cumulative IPC: 0.782245 (Simulation time: 0 hr 28 min 29 sec) 

Region of Interest Statistics
cpu0_DTLB TOTAL     ACCESS:     720840  HIT:     705478  MISS:      15362
cpu0_DTLB LOAD      ACCESS:     539055  HIT:     524830  MISS:      14225
cpu0_DTLB RFO       ACCESS:     181785  HIT:     180648  MISS:       1137
cpu0_DTLB PREFETCH  ACCESS:          0  HIT:          0  MISS:          0
cpu0_DTLB WRITEBACK ACCESS:          0  HIT:          0  MISS:          0
cpu0_ITLB TOTAL     ACCESS:     416289  HIT:     416272  MISS:         17
cpu0_ITLB LOAD      ACCESS:     416289  HIT:     416272  MISS:         17
cpu0_ITLB RFO       ACCESS:          0  HIT:          0  MISS:          0
cpu0_ITLB PREFETCH  ACCESS:          0  HIT:          0  MISS:          0
cpu0_ITLB WRITEBACK ACCESS:          0  HIT:          0  MISS:          0
cpu0_L1I TOTAL     ACCESS:     251162  HIT:     250801  MISS:        361
cpu0_L1I LOAD      ACCESS:     251162  HIT:     250801  MISS:        361
cpu0_L1I RFO       ACCESS:          0  HIT:          0  MISS:          0
cpu0_L1I PREFETCH  ACCESS:          0  HIT:          0  MISS:          0
cpu0_L1I WRITEBACK ACCESS:          0  HIT:          0  MISS:          0
cpu0_STLB TOTAL     ACCESS:      15379  HIT:      15033  MISS:        346
cpu0_STLB LOAD      ACCESS:      14242  HIT:      13995  MISS:        247
cpu0_STLB RFO       ACCESS:       1137  HIT:       1038  MISS:         99
cpu0_STLB PREFETCH  ACCESS:          0  HIT:          0  MISS:          0
cpu0_STLB WRITEBACK ACCESS:          0  HIT:          0  MISS:          0
cpu0_L1D TOTAL     ACCESS:     924679  HIT:     863654  MISS:      61025
cpu0_L1D LOAD      ACCESS:     593817  HIT:     538326  MISS:      55491
cpu0_L1D RFO       ACCESS:     330516  HIT:     325182  MISS:       5334
cpu0_L1D PREFETCH  ACCESS:          0  HIT:          0  MISS:          0
cpu0_L1D WRITEBACK ACCESS:          0  HIT:          0  MISS:          0
cpu0_L2C TOTAL     ACCESS:      74936  HIT:      35233  MISS:      39703
cpu0_L2C LOAD      ACCESS:      55852  HIT:      21187  MISS:      34665
cpu0_L2C RFO       ACCESS:       5334  HIT:        920  MISS:       4414
cpu0_L2C PREFETCH  ACCESS:          0  HIT:          0  MISS:          0
cpu0_L2C WRITEBACK ACCESS:      13550  HIT:      13075  MISS:        475
LLC TOTAL     ACCESS:      49569  HIT:      47350  MISS:       2219
LLC LOAD      ACCESS:      34665  HIT:      33917  MISS:        748
LLC RFO       ACCESS:       4413  HIT:       2945  MISS:       1468
LLC PREFETCH  ACCESS:          0  HIT:          0  MISS:          0
LLC WRITEBACK ACCESS:      10342  HIT:      10341  MISS:          1
Heartbeat CPU 0 instructions: 56000003 cycles: 20385078 heartbeat IPC: 0.805919 cumulative IPC: 0.78998 (Simulation time: 0 hr 29 min 37 sec) 

Region of Interest Statistics
cpu0_DTLB TOTAL     ACCESS:    1103435  HIT:    1082471  MISS:      20964
cpu0_DTLB LOAD      ACCESS:     864963  HIT:     845247  MISS:      19716
cpu0_DTLB RFO       ACCESS:     238472  HIT:     237224  MISS:       1248
cpu0_DTLB PREFETCH  ACCESS:          0  HIT:          0  MISS:          0
cpu0_DTLB WRITEBACK ACCESS:          0  HIT:          0  MISS:          0
cpu0_ITLB TOTAL     ACCESS:     603696  HIT:     603657  MISS:         39
cpu0_ITLB LOAD      ACCESS:     603696  HIT:     603657  MISS:         39
cpu0_ITLB RFO       ACCESS:          0  HIT:          0  MISS:          0
cpu0_ITLB PREFETCH  ACCESS:          0  HIT:          0  MISS:          0
cpu0_ITLB WRITEBACK ACCESS:          0  HIT:          0  MISS:          0
cpu0_L1I TOTAL     ACCESS:     386079  HIT:     385306  MISS:        773
cpu0_L1I LOAD      ACCESS:     386079  HIT:     385306  MISS:        773
cpu0_L1I RFO       ACCESS:          0  HIT:          0  MISS:          0
cpu0_L1I PREFETCH  ACCESS:          0  HIT:          0  MISS:          0
cpu0_L1I WRITEBACK ACCESS:          0  HIT:          0  MISS:          0
cpu0_STLB TOTAL     ACCESS:      21003  HIT:      20607  MISS:        396
cpu0_STLB LOAD      ACCESS:      19755  HIT:      19468  MISS:        287
cpu0_STLB RFO       ACCESS:       1248  HIT:       1139  MISS:        109
cpu0_STLB PREFETCH  ACCESS:          0  HIT:          0  MISS:          0
cpu0_STLB WRITEBACK ACCESS:          0  HIT:          0  MISS:          0
cpu0_L1D TOTAL     ACCESS:    1402077  HIT:    1323683  MISS:      78394
cpu0_L1D LOAD      ACCESS:     964908  HIT:     892781  MISS:      72127
cpu0_L1D RFO       ACCESS:     436774  HIT:     430728  MISS:       6046
cpu0_L1D PREFETCH  ACCESS:          0  HIT:          0  MISS:          0
cpu0_L1D WRITEBACK ACCESS:          0  HIT:          0  MISS:          0
cpu0_L2C TOTAL     ACCESS:      96279  HIT:      44984  MISS:      51295
cpu0_L2C LOAD      ACCESS:      72900  HIT:      27465  MISS:      45435
cpu0_L2C RFO       ACCESS:       6046  HIT:       1002  MISS:       5044
cpu0_L2C PREFETCH  ACCESS:          0  HIT:          0  MISS:          0
cpu0_L2C WRITEBACK ACCESS:      17112  HIT:      16464  MISS:        648
LLC TOTAL     ACCESS:      63944  HIT:      61063  MISS:       2881
LLC LOAD      ACCESS:      45435  HIT:      44308  MISS:       1127
LLC RFO       ACCESS:       5043  HIT:       3293  MISS:       1750
LLC PREFETCH  ACCESS:          0  HIT:          0  MISS:          0
LLC WRITEBACK ACCESS:      13298  HIT:      13297  MISS:          1
Heartbeat CPU 0 instructions: 58000001 cycles: 22773768 heartbeat IPC: 0.837278 cumulative IPC: 0.801297 (Simulation time: 0 hr 30 min 47 sec) 

Region of Interest Statistics
cpu0_DTLB TOTAL     ACCESS:    1497413  HIT:    1469422  MISS:      27991
cpu0_DTLB LOAD      ACCESS:    1196714  HIT:    1170058  MISS:      26656
cpu0_DTLB RFO       ACCESS:     300699  HIT:     299364  MISS:       1335
cpu0_DTLB PREFETCH  ACCESS:          0  HIT:          0  MISS:          0
cpu0_DTLB WRITEBACK ACCESS:          0  HIT:          0  MISS:          0
cpu0_ITLB TOTAL     ACCESS:     774487  HIT:     774445  MISS:         42
cpu0_ITLB LOAD      ACCESS:     774487  HIT:     774445  MISS:         42
cpu0_ITLB RFO       ACCESS:          0  HIT:          0  MISS:          0
cpu0_ITLB PREFETCH  ACCESS:          0  HIT:          0  MISS:          0
cpu0_ITLB WRITEBACK ACCESS:          0  HIT:          0  MISS:          0
cpu0_L1I TOTAL     ACCESS:     549997  HIT:     549222  MISS:        775
cpu0_L1I LOAD      ACCESS:     549997  HIT:     549222  MISS:        775
cpu0_L1I RFO       ACCESS:          0  HIT:          0  MISS:          0
cpu0_L1I PREFETCH  ACCESS:          0  HIT:          0  MISS:          0
cpu0_L1I WRITEBACK ACCESS:          0  HIT:          0  MISS:          0
cpu0_STLB TOTAL     ACCESS:      28033  HIT:      27634  MISS:        399
cpu0_STLB LOAD      ACCESS:      26698  HIT:      26408  MISS:        290
cpu0_STLB RFO       ACCESS:       1335  HIT:       1226  MISS:        109
cpu0_STLB PREFETCH  ACCESS:          0  HIT:          0  MISS:          0
cpu0_STLB WRITEBACK ACCESS:          0  HIT:          0  MISS:          0
cpu0_L1D TOTAL     ACCESS:    1899408  HIT:    1818239  MISS:      81169
cpu0_L1D LOAD      ACCESS:    1343477  HIT:    1268716  MISS:      74761
cpu0_L1D RFO       ACCESS:     555533  HIT:     549349  MISS:       6184
cpu0_L1D PREFETCH  ACCESS:          0  HIT:          0  MISS:          0
cpu0_L1D WRITEBACK ACCESS:          0  HIT:          0  MISS:          0
cpu0_L2C TOTAL     ACCESS:      99894  HIT:      46058  MISS:      53836
cpu0_L2C LOAD      ACCESS:      75536  HIT:      27734  MISS:      47802
cpu0_L2C RFO       ACCESS:       6184  HIT:       1026  MISS:       5158
cpu0_L2C PREFETCH  ACCESS:          0  HIT:          0  MISS:          0
cpu0_L2C WRITEBACK ACCESS:      17950  HIT:      17244  MISS:        706
LLC TOTAL     ACCESS:      67119  HIT:      64227  MISS:       2892
LLC LOAD      ACCESS:      47802  HIT:      46671  MISS:       1131
LLC RFO       ACCESS:       5157  HIT:       3400  MISS:       1757
LLC PREFETCH  ACCESS:          0  HIT:          0  MISS:          0
LLC WRITEBACK ACCESS:      13990  HIT:      13989  MISS:          1
Heartbeat CPU 0 instructions: 60000000 cycles: 25228849 heartbeat IPC: 0.814637 cumulative IPC: 0.80393 (Simulation time: 0 hr 31 min 58 sec) 

Region of Interest Statistics
cpu0_DTLB TOTAL     ACCESS:    1930347  HIT:    1892646  MISS:      37701
cpu0_DTLB LOAD      ACCESS:    1554224  HIT:    1518094  MISS:      36130
cpu0_DTLB RFO       ACCESS:     376123  HIT:     374552  MISS:       1571
cpu0_DTLB PREFETCH  ACCESS:          0  HIT:          0  MISS:          0
cpu0_DTLB WRITEBACK ACCESS:          0  HIT:          0  MISS:          0
cpu0_ITLB TOTAL     ACCESS:     943787  HIT:     943736  MISS:         51
cpu0_ITLB LOAD      ACCESS:     943787  HIT:     943736  MISS:         51
cpu0_ITLB RFO       ACCESS:          0  HIT:          0  MISS:          0
cpu0_ITLB PREFETCH  ACCESS:          0  HIT:          0  MISS:          0
cpu0_ITLB WRITEBACK ACCESS:          0  HIT:          0  MISS:          0
cpu0_L1I TOTAL     ACCESS:     715566  HIT:     714746  MISS:        820
cpu0_L1I LOAD      ACCESS:     715566  HIT:     714746  MISS:        820
cpu0_L1I RFO       ACCESS:          0  HIT:          0  MISS:          0
cpu0_L1I PREFETCH  ACCESS:          0  HIT:          0  MISS:          0
cpu0_L1I WRITEBACK ACCESS:          0  HIT:          0  MISS:          0
cpu0_STLB TOTAL     ACCESS:      37752  HIT:      37352  MISS:        400
cpu0_STLB LOAD      ACCESS:      36181  HIT:      35891  MISS:        290
cpu0_STLB RFO       ACCESS:       1571  HIT:       1461  MISS:        110
cpu0_STLB PREFETCH  ACCESS:          0  HIT:          0  MISS:          0
cpu0_STLB WRITEBACK ACCESS:          0  HIT:          0  MISS:          0
cpu0_L1D TOTAL     ACCESS:    2442752  HIT:    2356498  MISS:      86254
cpu0_L1D LOAD      ACCESS:    1740508  HIT:    1660837  MISS:      79671
cpu0_L1D RFO       ACCESS:     701845  HIT:     695487  MISS:       6358
cpu0_L1D PREFETCH  ACCESS:          0  HIT:          0  MISS:          0
cpu0_L1D WRITEBACK ACCESS:          0  HIT:          0  MISS:          0
cpu0_L2C TOTAL     ACCESS:     106299  HIT:      47753  MISS:      58546
cpu0_L2C LOAD      ACCESS:      80491  HIT:      28163  MISS:      52328
cpu0_L2C RFO       ACCESS:       6358  HIT:       1087  MISS:       5271
cpu0_L2C PREFETCH  ACCESS:          0  HIT:          0  MISS:          0
cpu0_L2C WRITEBACK ACCESS:      19225  HIT:      18449  MISS:        776
LLC TOTAL     ACCESS:      73197  HIT:      70270  MISS:       2927
LLC LOAD      ACCESS:      52328  HIT:      51168  MISS:       1160
LLC RFO       ACCESS:       5270  HIT:       3507  MISS:       1763
LLC PREFETCH  ACCESS:          0  HIT:          0  MISS:          0
LLC WRITEBACK ACCESS:      15428  HIT:      15427  MISS:          1
Heartbeat CPU 0 instructions: 62000004 cycles: 28093072 heartbeat IPC: 0.698271 cumulative IPC: 0.784154 (Simulation time: 0 hr 33 min 23 sec) 

Region of Interest Statistics
cpu0_DTLB TOTAL     ACCESS:    2338293  HIT:    2283801  MISS:      54492
cpu0_DTLB LOAD      ACCESS:    1831442  HIT:    1780000  MISS:      51442
cpu0_DTLB RFO       ACCESS:     506851  HIT:     503801  MISS:       3050
cpu0_DTLB PREFETCH  ACCESS:          0  HIT:          0  MISS:          0
cpu0_DTLB WRITEBACK ACCESS:          0  HIT:          0  MISS:          0
cpu0_ITLB TOTAL     ACCESS:    1123608  HIT:    1123335  MISS:        273
cpu0_ITLB LOAD      ACCESS:    1123608  HIT:    1123335  MISS:        273
cpu0_ITLB RFO       ACCESS:          0  HIT:          0  MISS:          0
cpu0_ITLB PREFETCH  ACCESS:          0  HIT:          0  MISS:          0
cpu0_ITLB WRITEBACK ACCESS:          0  HIT:          0  MISS:          0
cpu0_L1I TOTAL     ACCESS:     879717  HIT:     877408  MISS:       2309
cpu0_L1I LOAD      ACCESS:     879717  HIT:     877408  MISS:       2309
cpu0_L1I RFO       ACCESS:          0  HIT:          0  MISS:          0
cpu0_L1I PREFETCH  ACCESS:          0  HIT:          0  MISS:          0
cpu0_L1I WRITEBACK ACCESS:          0  HIT:          0  MISS:          0
cpu0_STLB TOTAL     ACCESS:      54765  HIT:      53962  MISS:        803
cpu0_STLB LOAD      ACCESS:      51715  HIT:      51130  MISS:        585
cpu0_STLB RFO       ACCESS:       3050  HIT:       2832  MISS:        218
cpu0_STLB PREFETCH  ACCESS:          0  HIT:          0  MISS:          0
cpu0_STLB WRITEBACK ACCESS:          0  HIT:          0  MISS:          0
cpu0_L1D TOTAL     ACCESS:    3034225  HIT:    2920316  MISS:     113909
cpu0_L1D LOAD      ACCESS:    2029825  HIT:    1925298  MISS:     104527
cpu0_L1D RFO       ACCESS:    1003603  HIT:     994611  MISS:       8992
cpu0_L1D PREFETCH  ACCESS:          0  HIT:          0  MISS:          0
cpu0_L1D WRITEBACK ACCESS:          0  HIT:          0  MISS:          0
cpu0_L2C TOTAL     ACCESS:     142943  HIT:      59985  MISS:      82958
cpu0_L2C LOAD      ACCESS:     106836  HIT:      32888  MISS:      73948
cpu0_L2C RFO       ACCESS:       8992  HIT:       1340  MISS:       7652
cpu0_L2C PREFETCH  ACCESS:          0  HIT:          0  MISS:          0
cpu0_L2C WRITEBACK ACCESS:      26725  HIT:      25664  MISS:       1061
LLC TOTAL     ACCESS:     104008  HIT:      98529  MISS:       5479
LLC LOAD      ACCESS:      73947  HIT:      71257  MISS:       2690
LLC RFO       ACCESS:       7651  HIT:       4870  MISS:       2781
LLC PREFETCH  ACCESS:          0  HIT:          0  MISS:          0
LLC WRITEBACK ACCESS:      22113  HIT:      22112  MISS:          1
Heartbeat CPU 0 instructions: 64000002 cycles: 30875967 heartbeat IPC: 0.718675 cumulative IPC: 0.774079 (Simulation time: 0 hr 35 min 0 sec) 

Region of Interest Statistics
cpu0_DTLB TOTAL     ACCESS:    2782191  HIT:    2720201  MISS:      61990
cpu0_DTLB LOAD      ACCESS:    2122480  HIT:    2064644  MISS:      57836
cpu0_DTLB RFO       ACCESS:     659711  HIT:     655557  MISS:       4154
cpu0_DTLB PREFETCH  ACCESS:          0  HIT:          0  MISS:          0
cpu0_DTLB WRITEBACK ACCESS:          0  HIT:          0  MISS:          0
cpu0_ITLB TOTAL     ACCESS:    1271966  HIT:    1271471  MISS:        495
cpu0_ITLB LOAD      ACCESS:    1271966  HIT:    1271471  MISS:        495
cpu0_ITLB RFO       ACCESS:          0  HIT:          0  MISS:          0
cpu0_ITLB PREFETCH  ACCESS:          0  HIT:          0  MISS:          0
cpu0_ITLB WRITEBACK ACCESS:          0  HIT:          0  MISS:          0
cpu0_L1I TOTAL     ACCESS:    1069850  HIT:    1065814  MISS:       4036
cpu0_L1I LOAD      ACCESS:    1069850  HIT:    1065814  MISS:       4036
cpu0_L1I RFO       ACCESS:          0  HIT:          0  MISS:          0
cpu0_L1I PREFETCH  ACCESS:          0  HIT:          0  MISS:          0
cpu0_L1I WRITEBACK ACCESS:          0  HIT:          0  MISS:          0
cpu0_STLB TOTAL     ACCESS:      62485  HIT:      61322  MISS:       1163
cpu0_STLB LOAD      ACCESS:      58331  HIT:      57427  MISS:        904
cpu0_STLB RFO       ACCESS:       4154  HIT:       3895  MISS:        259
cpu0_STLB PREFETCH  ACCESS:          0  HIT:          0  MISS:          0
cpu0_STLB WRITEBACK ACCESS:          0  HIT:          0  MISS:          0
cpu0_L1D TOTAL     ACCESS:    3676581  HIT:    3517489  MISS:     159092
cpu0_L1D LOAD      ACCESS:    2359533  HIT:    2218230  MISS:     141303
cpu0_L1D RFO       ACCESS:    1315891  HIT:    1298644  MISS:      17247
cpu0_L1D PREFETCH  ACCESS:          0  HIT:          0  MISS:          0
cpu0_L1D WRITEBACK ACCESS:          0  HIT:          0  MISS:          0
cpu0_L2C TOTAL     ACCESS:     208961  HIT:      89267  MISS:     119694
cpu0_L2C LOAD      ACCESS:     145339  HIT:      43133  MISS:     102206
cpu0_L2C RFO       ACCESS:      17247  HIT:       1923  MISS:      15324
cpu0_L2C PREFETCH  ACCESS:          0  HIT:          0  MISS:          0
cpu0_L2C WRITEBACK ACCESS:      45833  HIT:      44083  MISS:       1750
LLC TOTAL     ACCESS:     156264  HIT:     147887  MISS:       8377
LLC LOAD      ACCESS:     102205  HIT:      98541  MISS:       3664
LLC RFO       ACCESS:      15323  HIT:      10622  MISS:       4701
LLC PREFETCH  ACCESS:          0  HIT:          0  MISS:          0
LLC WRITEBACK ACCESS:      38322  HIT:      38321  MISS:          1
Heartbeat CPU 0 instructions: 66000000 cycles: 34321824 heartbeat IPC: 0.580407 cumulative IPC: 0.743084 (Simulation time: 0 hr 36 min 25 sec) 

Region of Interest Statistics
cpu0_DTLB TOTAL     ACCESS:    3234184  HIT:    3157021  MISS:      77163
cpu0_DTLB LOAD      ACCESS:    2454919  HIT:    2382744  MISS:      72175
cpu0_DTLB RFO       ACCESS:     779265  HIT:     774277  MISS:       4988
cpu0_DTLB PREFETCH  ACCESS:          0  HIT:          0  MISS:          0
cpu0_DTLB WRITEBACK ACCESS:          0  HIT:          0  MISS:          0
cpu0_ITLB TOTAL     ACCESS:    1429730  HIT:    1429195  MISS:        535
cpu0_ITLB LOAD      ACCESS:    1429730  HIT:    1429195  MISS:        535
cpu0_ITLB RFO       ACCESS:          0  HIT:          0  MISS:          0
cpu0_ITLB PREFETCH  ACCESS:          0  HIT:          0  MISS:          0
cpu0_ITLB WRITEBACK ACCESS:          0  HIT:          0  MISS:          0
cpu0_L1I TOTAL     ACCESS:    1302072  HIT:    1297541  MISS:       4531
cpu0_L1I LOAD      ACCESS:    1302072  HIT:    1297541  MISS:       4531
cpu0_L1I RFO       ACCESS:          0  HIT:          0  MISS:          0
cpu0_L1I PREFETCH  ACCESS:          0  HIT:          0  MISS:          0
cpu0_L1I WRITEBACK ACCESS:          0  HIT:          0  MISS:          0
cpu0_STLB TOTAL     ACCESS:      77698  HIT:      75936  MISS:       1762
cpu0_STLB LOAD      ACCESS:      72710  HIT:      71243  MISS:       1467
cpu0_STLB RFO       ACCESS:       4988  HIT:       4693  MISS:        295
cpu0_STLB PREFETCH  ACCESS:          0  HIT:          0  MISS:          0
cpu0_STLB WRITEBACK ACCESS:          0  HIT:          0  MISS:          0
cpu0_L1D TOTAL     ACCESS:    4253206  HIT:    4045582  MISS:     207624
cpu0_L1D LOAD      ACCESS:    2697812  HIT:    2511563  MISS:     186249
cpu0_L1D RFO       ACCESS:    1553639  HIT:    1533071  MISS:      20568
cpu0_L1D PREFETCH  ACCESS:          0  HIT:          0  MISS:          0
cpu0_L1D WRITEBACK ACCESS:          0  HIT:          0  MISS:          0
cpu0_L2C TOTAL     ACCESS:     268968  HIT:     111331  MISS:     157637
cpu0_L2C LOAD      ACCESS:     190778  HIT:      53677  MISS:     137101
cpu0_L2C RFO       ACCESS:      20568  HIT:       2637  MISS:      17931
cpu0_L2C PREFETCH  ACCESS:          0  HIT:          0  MISS:          0
cpu0_L2C WRITEBACK ACCESS:      56815  HIT:      54807  MISS:       2008
LLC TOTAL     ACCESS:     203303  HIT:     191552  MISS:      11751
LLC LOAD      ACCESS:     137100  HIT:     130908  MISS:       6192
LLC RFO       ACCESS:      17930  HIT:      12398  MISS:       5532
LLC PREFETCH  ACCESS:          0  HIT:          0  MISS:          0
LLC WRITEBACK ACCESS:      47676  HIT:      47675  MISS:          1
Heartbeat CPU 0 instructions: 68000003 cycles: 37067054 heartbeat IPC: 0.728537 cumulative IPC: 0.741439 (Simulation time: 0 hr 37 min 44 sec) 

Region of Interest Statistics
cpu0_DTLB TOTAL     ACCESS:    3540240  HIT:    3454376  MISS:      85864
cpu0_DTLB LOAD      ACCESS:    2654790  HIT:    2574391  MISS:      80399
cpu0_DTLB RFO       ACCESS:     885450  HIT:     879985  MISS:       5465
cpu0_DTLB PREFETCH  ACCESS:          0  HIT:          0  MISS:          0
cpu0_DTLB WRITEBACK ACCESS:          0  HIT:          0  MISS:          0
cpu0_ITLB TOTAL     ACCESS:    1626428  HIT:    1625876  MISS:        552
cpu0_ITLB LOAD      ACCESS:    1626428  HIT:    1625876  MISS:        552
cpu0_ITLB RFO       ACCESS:          0  HIT:          0  MISS:          0
cpu0_ITLB PREFETCH  ACCESS:          0  HIT:          0  MISS:          0
cpu0_ITLB WRITEBACK ACCESS:          0  HIT:          0  MISS:          0
cpu0_L1I TOTAL     ACCESS:    1442647  HIT:    1437924  MISS:       4723
cpu0_L1I LOAD      ACCESS:    1442647  HIT:    1437924  MISS:       4723
cpu0_L1I RFO       ACCESS:          0  HIT:          0  MISS:          0
cpu0_L1I PREFETCH  ACCESS:          0  HIT:          0  MISS:          0
cpu0_L1I WRITEBACK ACCESS:          0  HIT:          0  MISS:          0
cpu0_STLB TOTAL     ACCESS:      86416  HIT:      83803  MISS:       2613
cpu0_STLB LOAD      ACCESS:      80951  HIT:      78705  MISS:       2246
cpu0_STLB RFO       ACCESS:       5465  HIT:       5098  MISS:        367
cpu0_STLB PREFETCH  ACCESS:          0  HIT:          0  MISS:          0
cpu0_STLB WRITEBACK ACCESS:          0  HIT:          0  MISS:          0
cpu0_L1D TOTAL     ACCESS:    4661619  HIT:    4426734  MISS:     234885
cpu0_L1D LOAD      ACCESS:    2911699  HIT:    2702494  MISS:     209205
cpu0_L1D RFO       ACCESS:    1747316  HIT:    1722753  MISS:      24563
cpu0_L1D PREFETCH  ACCESS:          0  HIT:          0  MISS:          0
cpu0_L1D WRITEBACK ACCESS:          0  HIT:          0  MISS:          0
cpu0_L2C TOTAL     ACCESS:     300962  HIT:     117751  MISS:     183211
cpu0_L2C LOAD      ACCESS:     213926  HIT:      55464  MISS:     158462
cpu0_L2C RFO       ACCESS:      24563  HIT:       2755  MISS:      21808
cpu0_L2C PREFETCH  ACCESS:          0  HIT:          0  MISS:          0
cpu0_L2C WRITEBACK ACCESS:      61356  HIT:      59218  MISS:       2138
LLC TOTAL     ACCESS:     233062  HIT:     216077  MISS:      16985
LLC LOAD      ACCESS:     158461  HIT:     150539  MISS:       7922
LLC RFO       ACCESS:      21807  HIT:      12773  MISS:       9034
LLC PREFETCH  ACCESS:          0  HIT:          0  MISS:          0
LLC WRITEBACK ACCESS:      51991  HIT:      51990  MISS:          1
Heartbeat CPU 0 instructions: 70000004 cycles: 39899284 heartbeat IPC: 0.706158 cumulative IPC: 0.737753 (Simulation time: 0 hr 39 min 29 sec) 

Region of Interest Statistics
cpu0_DTLB TOTAL     ACCESS:    4015010  HIT:    3924745  MISS:      90265
cpu0_DTLB LOAD      ACCESS:    3010737  HIT:    2926250  MISS:      84487
cpu0_DTLB RFO       ACCESS:    1004273  HIT:     998495  MISS:       5778
cpu0_DTLB PREFETCH  ACCESS:          0  HIT:          0  MISS:          0
cpu0_DTLB WRITEBACK ACCESS:          0  HIT:          0  MISS:          0
cpu0_ITLB TOTAL     ACCESS:    1801186  HIT:    1800613  MISS:        573
cpu0_ITLB LOAD      ACCESS:    1801186  HIT:    1800613  MISS:        573
cpu0_ITLB RFO       ACCESS:          0  HIT:          0  MISS:          0
cpu0_ITLB PREFETCH  ACCESS:          0  HIT:          0  MISS:          0
cpu0_ITLB WRITEBACK ACCESS:          0  HIT:          0  MISS:          0
cpu0_L1I TOTAL     ACCESS:    1619710  HIT:    1614734  MISS:       4976
cpu0_L1I LOAD      ACCESS:    1619710  HIT:    1614734  MISS:       4976
cpu0_L1I RFO       ACCESS:          0  HIT:          0  MISS:          0
cpu0_L1I PREFETCH  ACCESS:          0  HIT:          0  MISS:          0
cpu0_L1I WRITEBACK ACCESS:          0  HIT:          0  MISS:          0
cpu0_STLB TOTAL     ACCESS:      90838  HIT:      87893  MISS:       2945
cpu0_STLB LOAD      ACCESS:      85060  HIT:      82553  MISS:       2507
cpu0_STLB RFO       ACCESS:       5778  HIT:       5340  MISS:        438
cpu0_STLB PREFETCH  ACCESS:          0  HIT:          0  MISS:          0
cpu0_STLB WRITEBACK ACCESS:          0  HIT:          0  MISS:          0
cpu0_L1D TOTAL     ACCESS:    5296835  HIT:    5045078  MISS:     251757
cpu0_L1D LOAD      ACCESS:    3316678  HIT:    3094387  MISS:     222291
cpu0_L1D RFO       ACCESS:    1977222  HIT:    1948994  MISS:      28228
cpu0_L1D PREFETCH  ACCESS:          0  HIT:          0  MISS:          0
cpu0_L1D WRITEBACK ACCESS:          0  HIT:          0  MISS:          0
cpu0_L2C TOTAL     ACCESS:     322684  HIT:     125143  MISS:     197541
cpu0_L2C LOAD      ACCESS:     227265  HIT:      58216  MISS:     169049
cpu0_L2C RFO       ACCESS:      28227  HIT:       3044  MISS:      25183
cpu0_L2C PREFETCH  ACCESS:          0  HIT:          0  MISS:          0
cpu0_L2C WRITEBACK ACCESS:      65954  HIT:      63529  MISS:       2425
LLC TOTAL     ACCESS:     251362  HIT:     229865  MISS:      21497
LLC LOAD      ACCESS:     169048  HIT:     159811  MISS:       9237
LLC RFO       ACCESS:      25182  HIT:      12953  MISS:      12229
LLC PREFETCH  ACCESS:          0  HIT:          0  MISS:          0
LLC WRITEBACK ACCESS:      56248  HIT:      56246  MISS:          2
Heartbeat CPU 0 instructions: 72000002 cycles: 42685879 heartbeat IPC: 0.717721 cumulative IPC: 0.735886 (Simulation time: 0 hr 40 min 51 sec) 

Region of Interest Statistics
cpu0_DTLB TOTAL     ACCESS:    4443643  HIT:    4344656  MISS:      98987
cpu0_DTLB LOAD      ACCESS:    3315566  HIT:    3223271  MISS:      92295
cpu0_DTLB RFO       ACCESS:    1128077  HIT:    1121385  MISS:       6692
cpu0_DTLB PREFETCH  ACCESS:          0  HIT:          0  MISS:          0
cpu0_DTLB WRITEBACK ACCESS:          0  HIT:          0  MISS:          0
cpu0_ITLB TOTAL     ACCESS:    1970926  HIT:    1969896  MISS:       1030
cpu0_ITLB LOAD      ACCESS:    1970926  HIT:    1969896  MISS:       1030
cpu0_ITLB RFO       ACCESS:          0  HIT:          0  MISS:          0
cpu0_ITLB PREFETCH  ACCESS:          0  HIT:          0  MISS:          0
cpu0_ITLB WRITEBACK ACCESS:          0  HIT:          0  MISS:          0
cpu0_L1I TOTAL     ACCESS:    1868355  HIT:    1856073  MISS:      12282
cpu0_L1I LOAD      ACCESS:    1868355  HIT:    1856073  MISS:      12282
cpu0_L1I RFO       ACCESS:          0  HIT:          0  MISS:          0
cpu0_L1I PREFETCH  ACCESS:          0  HIT:          0  MISS:          0
cpu0_L1I WRITEBACK ACCESS:          0  HIT:          0  MISS:          0
cpu0_STLB TOTAL     ACCESS:     100017  HIT:      96731  MISS:       3286
cpu0_STLB LOAD      ACCESS:      93325  HIT:      90486  MISS:       2839
cpu0_STLB RFO       ACCESS:       6692  HIT:       6245  MISS:        447
cpu0_STLB PREFETCH  ACCESS:          0  HIT:          0  MISS:          0
cpu0_STLB WRITEBACK ACCESS:          0  HIT:          0  MISS:          0
cpu0_L1D TOTAL     ACCESS:    5908805  HIT:    5638874  MISS:     269931
cpu0_L1D LOAD      ACCESS:    3657593  HIT:    3418808  MISS:     238785
cpu0_L1D RFO       ACCESS:    2247937  HIT:    2218148  MISS:      29789
cpu0_L1D PREFETCH  ACCESS:          0  HIT:          0  MISS:          0
cpu0_L1D WRITEBACK ACCESS:          0  HIT:          0  MISS:          0
cpu0_L2C TOTAL     ACCESS:     352582  HIT:     137494  MISS:     215088
cpu0_L2C LOAD      ACCESS:     251065  HIT:      65990  MISS:     185075
cpu0_L2C RFO       ACCESS:      29788  HIT:       3374  MISS:      26414
cpu0_L2C PREFETCH  ACCESS:          0  HIT:          0  MISS:          0
cpu0_L2C WRITEBACK ACCESS:      70372  HIT:      67753  MISS:       2619
LLC TOTAL     ACCESS:     272896  HIT:     249050  MISS:      23846
LLC LOAD      ACCESS:     185074  HIT:     173937  MISS:      11137
LLC RFO       ACCESS:      26413  HIT:      13738  MISS:      12675
LLC PREFETCH  ACCESS:          0  HIT:          0  MISS:          0
LLC WRITEBACK ACCESS:      60429  HIT:      60427  MISS:          2
Heartbeat CPU 0 instructions: 74000001 cycles: 45005275 heartbeat IPC: 0.862293 cumulative IPC: 0.744987 (Simulation time: 0 hr 41 min 54 sec) 

Region of Interest Statistics
cpu0_DTLB TOTAL     ACCESS:    4849935  HIT:    4743515  MISS:     106420
cpu0_DTLB LOAD      ACCESS:    3595570  HIT:    3496517  MISS:      99053
cpu0_DTLB RFO       ACCESS:    1254365  HIT:    1246998  MISS:       7367
cpu0_DTLB PREFETCH  ACCESS:          0  HIT:          0  MISS:          0
cpu0_DTLB WRITEBACK ACCESS:          0  HIT:          0  MISS:          0
cpu0_ITLB TOTAL     ACCESS:    2161238  HIT:    2159154  MISS:       2084
cpu0_ITLB LOAD      ACCESS:    2161238  HIT:    2159154  MISS:       2084
cpu0_ITLB RFO       ACCESS:          0  HIT:          0  MISS:          0
cpu0_ITLB PREFETCH  ACCESS:          0  HIT:          0  MISS:          0
cpu0_ITLB WRITEBACK ACCESS:          0  HIT:          0  MISS:          0
cpu0_L1I TOTAL     ACCESS:    2126698  HIT:    2099961  MISS:      26737
cpu0_L1I LOAD      ACCESS:    2126698  HIT:    2099961  MISS:      26737
cpu0_L1I RFO       ACCESS:          0  HIT:          0  MISS:          0
cpu0_L1I PREFETCH  ACCESS:          0  HIT:          0  MISS:          0
cpu0_L1I WRITEBACK ACCESS:          0  HIT:          0  MISS:          0
cpu0_STLB TOTAL     ACCESS:     108504  HIT:     105184  MISS:       3320
cpu0_STLB LOAD      ACCESS:     101137  HIT:      98278  MISS:       2859
cpu0_STLB RFO       ACCESS:       7367  HIT:       6906  MISS:        461
cpu0_STLB PREFETCH  ACCESS:          0  HIT:          0  MISS:          0
cpu0_STLB WRITEBACK ACCESS:          0  HIT:          0  MISS:          0
cpu0_L1D TOTAL     ACCESS:    6481000  HIT:    6205934  MISS:     275066
cpu0_L1D LOAD      ACCESS:    3962871  HIT:    3719858  MISS:     243013
cpu0_L1D RFO       ACCESS:    2514820  HIT:    2484134  MISS:      30686
cpu0_L1D PREFETCH  ACCESS:          0  HIT:          0  MISS:          0
cpu0_L1D WRITEBACK ACCESS:          0  HIT:          0  MISS:          0
cpu0_L2C TOTAL     ACCESS:     374593  HIT:     153673  MISS:     220920
cpu0_L2C LOAD      ACCESS:     269748  HIT:      79943  MISS:     189805
cpu0_L2C RFO       ACCESS:      30685  HIT:       3437  MISS:      27248
cpu0_L2C PREFETCH  ACCESS:          0  HIT:          0  MISS:          0
cpu0_L2C WRITEBACK ACCESS:      72793  HIT:      69916  MISS:       2877
LLC TOTAL     ACCESS:     280864  HIT:     256107  MISS:      24757
LLC LOAD      ACCESS:     189804  HIT:     178446  MISS:      11358
LLC RFO       ACCESS:      27247  HIT:      13882  MISS:      13365
LLC PREFETCH  ACCESS:          0  HIT:          0  MISS:          0
LLC WRITEBACK ACCESS:      62823  HIT:      62821  MISS:          2
Heartbeat CPU 0 instructions: 76000001 cycles: 46892952 heartbeat IPC: 1.0595 cumulative IPC: 0.762396 (Simulation time: 0 hr 42 min 42 sec) 

Region of Interest Statistics
cpu0_DTLB TOTAL     ACCESS:    5045040  HIT:    4936688  MISS:     108352
cpu0_DTLB LOAD      ACCESS:    3728454  HIT:    3627531  MISS:     100923
cpu0_DTLB RFO       ACCESS:    1316586  HIT:    1309157  MISS:       7429
cpu0_DTLB PREFETCH  ACCESS:          0  HIT:          0  MISS:          0
cpu0_DTLB WRITEBACK ACCESS:          0  HIT:          0  MISS:          0
cpu0_ITLB TOTAL     ACCESS:    2356040  HIT:    2353951  MISS:       2089
cpu0_ITLB LOAD      ACCESS:    2356040  HIT:    2353951  MISS:       2089
cpu0_ITLB RFO       ACCESS:          0  HIT:          0  MISS:          0
cpu0_ITLB PREFETCH  ACCESS:          0  HIT:          0  MISS:          0
cpu0_ITLB WRITEBACK ACCESS:          0  HIT:          0  MISS:          0
cpu0_L1I TOTAL     ACCESS:    2229925  HIT:    2203128  MISS:      26797
cpu0_L1I LOAD      ACCESS:    2229925  HIT:    2203128  MISS:      26797
cpu0_L1I RFO       ACCESS:          0  HIT:          0  MISS:          0
cpu0_L1I PREFETCH  ACCESS:          0  HIT:          0  MISS:          0
cpu0_L1I WRITEBACK ACCESS:          0  HIT:          0  MISS:          0
cpu0_STLB TOTAL     ACCESS:     110441  HIT:     107106  MISS:       3335
cpu0_STLB LOAD      ACCESS:     103012  HIT:     100138  MISS:       2874
cpu0_STLB RFO       ACCESS:       7429  HIT:       6968  MISS:        461
cpu0_STLB PREFETCH  ACCESS:          0  HIT:          0  MISS:          0
cpu0_STLB WRITEBACK ACCESS:          0  HIT:          0  MISS:          0
cpu0_L1D TOTAL     ACCESS:    6751759  HIT:    6470864  MISS:     280895
cpu0_L1D LOAD      ACCESS:    4099266  HIT:    3850639  MISS:     248627
cpu0_L1D RFO       ACCESS:    2649170  HIT:    2618274  MISS:      30896
cpu0_L1D PREFETCH  ACCESS:          0  HIT:          0  MISS:          0
cpu0_L1D WRITEBACK ACCESS:          0  HIT:          0  MISS:          0
cpu0_L2C TOTAL     ACCESS:     382127  HIT:     155383  MISS:     226744
cpu0_L2C LOAD      ACCESS:     275422  HIT:      80110  MISS:     195312
cpu0_L2C RFO       ACCESS:      30895  HIT:       3441  MISS:      27454
cpu0_L2C PREFETCH  ACCESS:          0  HIT:          0  MISS:          0
cpu0_L2C WRITEBACK ACCESS:      74438  HIT:      71454  MISS:       2984
LLC TOTAL     ACCESS:     288381  HIT:     263499  MISS:      24882
LLC LOAD      ACCESS:     195311  HIT:     183828  MISS:      11483
LLC RFO       ACCESS:      27453  HIT:      14088  MISS:      13365
LLC PREFETCH  ACCESS:          0  HIT:          0  MISS:          0
LLC WRITEBACK ACCESS:      64623  HIT:      64621  MISS:          2
Heartbeat CPU 0 instructions: 78000002 cycles: 49255502 heartbeat IPC: 0.846543 cumulative IPC: 0.767848 (Simulation time: 0 hr 43 min 44 sec) 

Region of Interest Statistics
cpu0_DTLB TOTAL     ACCESS:    5319926  HIT:    5205231  MISS:     114695
cpu0_DTLB LOAD      ACCESS:    3933543  HIT:    3826791  MISS:     106752
cpu0_DTLB RFO       ACCESS:    1386383  HIT:    1378440  MISS:       7943
cpu0_DTLB PREFETCH  ACCESS:          0  HIT:          0  MISS:          0
cpu0_DTLB WRITEBACK ACCESS:          0  HIT:          0  MISS:          0
cpu0_ITLB TOTAL     ACCESS:    2550659  HIT:    2548030  MISS:       2629
cpu0_ITLB LOAD      ACCESS:    2550659  HIT:    2548030  MISS:       2629
cpu0_ITLB RFO       ACCESS:          0  HIT:          0  MISS:          0
cpu0_ITLB PREFETCH  ACCESS:          0  HIT:          0  MISS:          0
cpu0_ITLB WRITEBACK ACCESS:          0  HIT:          0  MISS:          0
cpu0_L1I TOTAL     ACCESS:    2373619  HIT:    2341209  MISS:      32410
cpu0_L1I LOAD      ACCESS:    2373619  HIT:    2341209  MISS:      32410
cpu0_L1I RFO       ACCESS:          0  HIT:          0  MISS:          0
cpu0_L1I PREFETCH  ACCESS:          0  HIT:          0  MISS:          0
cpu0_L1I WRITEBACK ACCESS:          0  HIT:          0  MISS:          0
cpu0_STLB TOTAL     ACCESS:     117324  HIT:     113918  MISS:       3406
cpu0_STLB LOAD      ACCESS:     109381  HIT:     106438  MISS:       2943
cpu0_STLB RFO       ACCESS:       7943  HIT:       7480  MISS:        463
cpu0_STLB PREFETCH  ACCESS:          0  HIT:          0  MISS:          0
cpu0_STLB WRITEBACK ACCESS:          0  HIT:          0  MISS:          0
cpu0_L1D TOTAL     ACCESS:    7124890  HIT:    6831526  MISS:     293364
cpu0_L1D LOAD      ACCESS:    4325419  HIT:    4065161  MISS:     260258
cpu0_L1D RFO       ACCESS:    2796078  HIT:    2764368  MISS:      31710
cpu0_L1D PREFETCH  ACCESS:          0  HIT:          0  MISS:          0
cpu0_L1D WRITEBACK ACCESS:          0  HIT:          0  MISS:          0
cpu0_L2C TOTAL     ACCESS:     402104  HIT:     163662  MISS:     238442
cpu0_L2C LOAD      ACCESS:     292666  HIT:      86603  MISS:     206063
cpu0_L2C RFO       ACCESS:      31709  HIT:       3497  MISS:      28212
cpu0_L2C PREFETCH  ACCESS:          0  HIT:          0  MISS:          0
cpu0_L2C WRITEBACK ACCESS:      76333  HIT:      73181  MISS:       3152
LLC TOTAL     ACCESS:     301473  HIT:     276284  MISS:      25189
LLC LOAD      ACCESS:     206062  HIT:     194384  MISS:      11678
LLC RFO       ACCESS:      28211  HIT:      14734  MISS:      13477
LLC PREFETCH  ACCESS:          0  HIT:          0  MISS:          0
LLC WRITEBACK ACCESS:      66185  HIT:      66183  MISS:          2
Heartbeat CPU 0 instructions: 80000004 cycles: 51586177 heartbeat IPC: 0.858121 cumulative IPC: 0.773271 (Simulation time: 0 hr 44 min 46 sec) 

Region of Interest Statistics
cpu0_DTLB TOTAL     ACCESS:    5735698  HIT:    5612771  MISS:     122927
cpu0_DTLB LOAD      ACCESS:    4221426  HIT:    4107150  MISS:     114276
cpu0_DTLB RFO       ACCESS:    1514272  HIT:    1505621  MISS:       8651
cpu0_DTLB PREFETCH  ACCESS:          0  HIT:          0  MISS:          0
cpu0_DTLB WRITEBACK ACCESS:          0  HIT:          0  MISS:          0
cpu0_ITLB TOTAL     ACCESS:    2740891  HIT:    2737379  MISS:       3512
cpu0_ITLB LOAD      ACCESS:    2740891  HIT:    2737379  MISS:       3512
cpu0_ITLB RFO       ACCESS:          0  HIT:          0  MISS:          0
cpu0_ITLB PREFETCH  ACCESS:          0  HIT:          0  MISS:          0
cpu0_ITLB WRITEBACK ACCESS:          0  HIT:          0  MISS:          0
cpu0_L1I TOTAL     ACCESS:    2636402  HIT:    2589491  MISS:      46911
cpu0_L1I LOAD      ACCESS:    2636402  HIT:    2589491  MISS:      46911
cpu0_L1I RFO       ACCESS:          0  HIT:          0  MISS:          0
cpu0_L1I PREFETCH  ACCESS:          0  HIT:          0  MISS:          0
cpu0_L1I WRITEBACK ACCESS:          0  HIT:          0  MISS:          0
cpu0_STLB TOTAL     ACCESS:     126439  HIT:     123032  MISS:       3407
cpu0_STLB LOAD      ACCESS:     117788  HIT:     114845  MISS:       2943
cpu0_STLB RFO       ACCESS:       8651  HIT:       8187  MISS:        464
cpu0_STLB PREFETCH  ACCESS:          0  HIT:          0  MISS:          0
cpu0_STLB WRITEBACK ACCESS:          0  HIT:          0  MISS:          0
cpu0_L1D TOTAL     ACCESS:    7709558  HIT:    7411009  MISS:     298549
cpu0_L1D LOAD      ACCESS:    4639530  HIT:    4375005  MISS:     264525
cpu0_L1D RFO       ACCESS:    3066634  HIT:    3034007  MISS:      32627
cpu0_L1D PREFETCH  ACCESS:          0  HIT:          0  MISS:          0
cpu0_L1D WRITEBACK ACCESS:          0  HIT:          0  MISS:          0
cpu0_L2C TOTAL     ACCESS:     424238  HIT:     180044  MISS:     244194
cpu0_L2C LOAD      ACCESS:     311434  HIT:     100715  MISS:     210719
cpu0_L2C RFO       ACCESS:      32626  HIT:       3566  MISS:      29060
cpu0_L2C PREFETCH  ACCESS:          0  HIT:          0  MISS:          0
cpu0_L2C WRITEBACK ACCESS:      78781  HIT:      75382  MISS:       3399
LLC TOTAL     ACCESS:     309289  HIT:     284017  MISS:      25272
LLC LOAD      ACCESS:     210718  HIT:     199037  MISS:      11681
LLC RFO       ACCESS:      29059  HIT:      15502  MISS:      13557
LLC PREFETCH  ACCESS:          0  HIT:          0  MISS:          0
LLC WRITEBACK ACCESS:      68496  HIT:      68494  MISS:          2
Heartbeat CPU 0 instructions: 82000000 cycles: 53537222 heartbeat IPC: 1.02509 cumulative IPC: 0.785329 (Simulation time: 0 hr 45 min 38 sec) 

Region of Interest Statistics
cpu0_DTLB TOTAL     ACCESS:    5985745  HIT:    5860076  MISS:     125669
cpu0_DTLB LOAD      ACCESS:    4389927  HIT:    4273068  MISS:     116859
cpu0_DTLB RFO       ACCESS:    1595818  HIT:    1587008  MISS:       8810
cpu0_DTLB PREFETCH  ACCESS:          0  HIT:          0  MISS:          0
cpu0_DTLB WRITEBACK ACCESS:          0  HIT:          0  MISS:          0
cpu0_ITLB TOTAL     ACCESS:    2933334  HIT:    2929574  MISS:       3760
cpu0_ITLB LOAD      ACCESS:    2933334  HIT:    2929574  MISS:       3760
cpu0_ITLB RFO       ACCESS:          0  HIT:          0  MISS:          0
cpu0_ITLB PREFETCH  ACCESS:          0  HIT:          0  MISS:          0
cpu0_ITLB WRITEBACK ACCESS:          0  HIT:          0  MISS:          0
cpu0_L1I TOTAL     ACCESS:    2781584  HIT:    2732491  MISS:      49093
cpu0_L1I LOAD      ACCESS:    2781584  HIT:    2732491  MISS:      49093
cpu0_L1I RFO       ACCESS:          0  HIT:          0  MISS:          0
cpu0_L1I PREFETCH  ACCESS:          0  HIT:          0  MISS:          0
cpu0_L1I WRITEBACK ACCESS:          0  HIT:          0  MISS:          0
cpu0_STLB TOTAL     ACCESS:     129429  HIT:     126017  MISS:       3412
cpu0_STLB LOAD      ACCESS:     120619  HIT:     117674  MISS:       2945
cpu0_STLB RFO       ACCESS:       8810  HIT:       8343  MISS:        467
cpu0_STLB PREFETCH  ACCESS:          0  HIT:          0  MISS:          0
cpu0_STLB WRITEBACK ACCESS:          0  HIT:          0  MISS:          0
cpu0_L1D TOTAL     ACCESS:    8059476  HIT:    7755955  MISS:     303521
cpu0_L1D LOAD      ACCESS:    4812630  HIT:    4543502  MISS:     269128
cpu0_L1D RFO       ACCESS:    3243447  HIT:    3210453  MISS:      32994
cpu0_L1D PREFETCH  ACCESS:          0  HIT:          0  MISS:          0
cpu0_L1D WRITEBACK ACCESS:          0  HIT:          0  MISS:          0
cpu0_L2C TOTAL     ACCESS:     433144  HIT:     183730  MISS:     249414
cpu0_L2C LOAD      ACCESS:     318219  HIT:     102753  MISS:     215466
cpu0_L2C RFO       ACCESS:      32993  HIT:       3576  MISS:      29417
cpu0_L2C PREFETCH  ACCESS:          0  HIT:          0  MISS:          0
cpu0_L2C WRITEBACK ACCESS:      80533  HIT:      77019  MISS:       3514
LLC TOTAL     ACCESS:     316138  HIT:     290777  MISS:      25361
LLC LOAD      ACCESS:     215465  HIT:     203766  MISS:      11699
LLC RFO       ACCESS:      29416  HIT:      15788  MISS:      13628
LLC PREFETCH  ACCESS:          0  HIT:          0  MISS:          0
LLC WRITEBACK ACCESS:      70240  HIT:      70238  MISS:          2
Heartbeat CPU 0 instructions: 84000004 cycles: 55676038 heartbeat IPC: 0.935099 cumulative IPC: 0.792798 (Simulation time: 0 hr 46 min 33 sec) 

Region of Interest Statistics
cpu0_DTLB TOTAL     ACCESS:    6184690  HIT:    6055939  MISS:     128751
cpu0_DTLB LOAD      ACCESS:    4540027  HIT:    4420358  MISS:     119669
cpu0_DTLB RFO       ACCESS:    1644663  HIT:    1635581  MISS:       9082
cpu0_DTLB PREFETCH  ACCESS:          0  HIT:          0  MISS:          0
cpu0_DTLB WRITEBACK ACCESS:          0  HIT:          0  MISS:          0
cpu0_ITLB TOTAL     ACCESS:    3133843  HIT:    3129757  MISS:       4086
cpu0_ITLB LOAD      ACCESS:    3133843  HIT:    3129757  MISS:       4086
cpu0_ITLB RFO       ACCESS:          0  HIT:          0  MISS:          0
cpu0_ITLB PREFETCH  ACCESS:          0  HIT:          0  MISS:          0
cpu0_ITLB WRITEBACK ACCESS:          0  HIT:          0  MISS:          0
cpu0_L1I TOTAL     ACCESS:    2877245  HIT:    2824018  MISS:      53227
cpu0_L1I LOAD      ACCESS:    2877245  HIT:    2824018  MISS:      53227
cpu0_L1I RFO       ACCESS:          0  HIT:          0  MISS:          0
cpu0_L1I PREFETCH  ACCESS:          0  HIT:          0  MISS:          0
cpu0_L1I WRITEBACK ACCESS:          0  HIT:          0  MISS:          0
cpu0_STLB TOTAL     ACCESS:     132837  HIT:     129424  MISS:       3413
cpu0_STLB LOAD      ACCESS:     123755  HIT:     120810  MISS:       2945
cpu0_STLB RFO       ACCESS:       9082  HIT:       8614  MISS:        468
cpu0_STLB PREFETCH  ACCESS:          0  HIT:          0  MISS:          0
cpu0_STLB WRITEBACK ACCESS:          0  HIT:          0  MISS:          0
cpu0_L1D TOTAL     ACCESS:    8321986  HIT:    8009799  MISS:     312187
cpu0_L1D LOAD      ACCESS:    4975549  HIT:    4698298  MISS:     277251
cpu0_L1D RFO       ACCESS:    3343037  HIT:    3309501  MISS:      33536
cpu0_L1D PREFETCH  ACCESS:          0  HIT:          0  MISS:          0
cpu0_L1D WRITEBACK ACCESS:          0  HIT:          0  MISS:          0
cpu0_L2C TOTAL     ACCESS:     447403  HIT:     188776  MISS:     258627
cpu0_L2C LOAD      ACCESS:     330476  HIT:     106421  MISS:     224055
cpu0_L2C RFO       ACCESS:      33535  HIT:       3595  MISS:      29940
cpu0_L2C PREFETCH  ACCESS:          0  HIT:          0  MISS:          0
cpu0_L2C WRITEBACK ACCESS:      81992  HIT:      78378  MISS:       3614
LLC TOTAL     ACCESS:     326716  HIT:     301288  MISS:      25428
LLC LOAD      ACCESS:     224054  HIT:     212341  MISS:      11713
LLC RFO       ACCESS:      29939  HIT:      16258  MISS:      13681
LLC PREFETCH  ACCESS:          0  HIT:          0  MISS:          0
LLC WRITEBACK ACCESS:      71705  HIT:      71703  MISS:          2
Heartbeat CPU 0 instructions: 86000001 cycles: 58015326 heartbeat IPC: 0.85496 cumulative IPC: 0.796013 (Simulation time: 0 hr 47 min 36 sec) 

Region of Interest Statistics
cpu0_DTLB TOTAL     ACCESS:    6600475  HIT:    6463189  MISS:     137286
cpu0_DTLB LOAD      ACCESS:    4828160  HIT:    4700682  MISS:     127478
cpu0_DTLB RFO       ACCESS:    1772315  HIT:    1762507  MISS:       9808
cpu0_DTLB PREFETCH  ACCESS:          0  HIT:          0  MISS:          0
cpu0_DTLB WRITEBACK ACCESS:          0  HIT:          0  MISS:          0
cpu0_ITLB TOTAL     ACCESS:    3324228  HIT:    3319457  MISS:       4771
cpu0_ITLB LOAD      ACCESS:    3324228  HIT:    3319457  MISS:       4771
cpu0_ITLB RFO       ACCESS:          0  HIT:          0  MISS:          0
cpu0_ITLB PREFETCH  ACCESS:          0  HIT:          0  MISS:          0
cpu0_ITLB WRITEBACK ACCESS:          0  HIT:          0  MISS:          0
cpu0_L1I TOTAL     ACCESS:    3140034  HIT:    3073470  MISS:      66564
cpu0_L1I LOAD      ACCESS:    3140034  HIT:    3073470  MISS:      66564
cpu0_L1I RFO       ACCESS:          0  HIT:          0  MISS:          0
cpu0_L1I PREFETCH  ACCESS:          0  HIT:          0  MISS:          0
cpu0_L1I WRITEBACK ACCESS:          0  HIT:          0  MISS:          0
cpu0_STLB TOTAL     ACCESS:     142057  HIT:     138644  MISS:       3413
cpu0_STLB LOAD      ACCESS:     132249  HIT:     129304  MISS:       2945
cpu0_STLB RFO       ACCESS:       9808  HIT:       9340  MISS:        468
cpu0_STLB PREFETCH  ACCESS:          0  HIT:          0  MISS:          0
cpu0_STLB WRITEBACK ACCESS:          0  HIT:          0  MISS:          0
cpu0_L1D TOTAL     ACCESS:    8906995  HIT:    8589448  MISS:     317547
cpu0_L1D LOAD      ACCESS:    5290630  HIT:    5008978  MISS:     281652
cpu0_L1D RFO       ACCESS:    3612965  HIT:    3578470  MISS:      34495
cpu0_L1D PREFETCH  ACCESS:          0  HIT:          0  MISS:          0
cpu0_L1D WRITEBACK ACCESS:          0  HIT:          0  MISS:          0
cpu0_L2C TOTAL     ACCESS:     468654  HIT:     204013  MISS:     264641
cpu0_L2C LOAD      ACCESS:     348214  HIT:     119299  MISS:     228915
cpu0_L2C RFO       ACCESS:      34494  HIT:       3667  MISS:      30827
cpu0_L2C PREFETCH  ACCESS:          0  HIT:          0  MISS:          0
cpu0_L2C WRITEBACK ACCESS:      84546  HIT:      80665  MISS:       3881
LLC TOTAL     ACCESS:     334799  HIT:     309323  MISS:      25476
LLC LOAD      ACCESS:     228914  HIT:     217201  MISS:      11713
LLC RFO       ACCESS:      30826  HIT:      17097  MISS:      13729
LLC PREFETCH  ACCESS:          0  HIT:          0  MISS:          0
LLC WRITEBACK ACCESS:      74041  HIT:      74039  MISS:          2
Heartbeat CPU 0 instructions: 88000001 cycles: 60016365 heartbeat IPC: 0.999481 cumulative IPC: 0.804634 (Simulation time: 0 hr 48 min 30 sec) 

Region of Interest Statistics
cpu0_DTLB TOTAL     ACCESS:    6875748  HIT:    6735165  MISS:     140583
cpu0_DTLB LOAD      ACCESS:    5014939  HIT:    4884377  MISS:     130562
cpu0_DTLB RFO       ACCESS:    1860809  HIT:    1850788  MISS:      10021
cpu0_DTLB PREFETCH  ACCESS:          0  HIT:          0  MISS:          0
cpu0_DTLB WRITEBACK ACCESS:          0  HIT:          0  MISS:          0
cpu0_ITLB TOTAL     ACCESS:    3516775  HIT:    3511537  MISS:       5238
cpu0_ITLB LOAD      ACCESS:    3516775  HIT:    3511537  MISS:       5238
cpu0_ITLB RFO       ACCESS:          0  HIT:          0  MISS:          0
cpu0_ITLB PREFETCH  ACCESS:          0  HIT:          0  MISS:          0
cpu0_ITLB WRITEBACK ACCESS:          0  HIT:          0  MISS:          0
cpu0_L1I TOTAL     ACCESS:    3302800  HIT:    3231532  MISS:      71268
cpu0_L1I LOAD      ACCESS:    3302800  HIT:    3231532  MISS:      71268
cpu0_L1I RFO       ACCESS:          0  HIT:          0  MISS:          0
cpu0_L1I PREFETCH  ACCESS:          0  HIT:          0  MISS:          0
cpu0_L1I WRITEBACK ACCESS:          0  HIT:          0  MISS:          0
cpu0_STLB TOTAL     ACCESS:     145821  HIT:     142407  MISS:       3414
cpu0_STLB LOAD      ACCESS:     135800  HIT:     132855  MISS:       2945
cpu0_STLB RFO       ACCESS:      10021  HIT:       9552  MISS:        469
cpu0_STLB PREFETCH  ACCESS:          0  HIT:          0  MISS:          0
cpu0_STLB WRITEBACK ACCESS:          0  HIT:          0  MISS:          0
cpu0_L1D TOTAL     ACCESS:    9291028  HIT:    8968820  MISS:     322208
cpu0_L1D LOAD      ACCESS:    5484474  HIT:    5198491  MISS:     285983
cpu0_L1D RFO       ACCESS:    3803153  HIT:    3768329  MISS:      34824
cpu0_L1D PREFETCH  ACCESS:          0  HIT:          0  MISS:          0
cpu0_L1D WRITEBACK ACCESS:          0  HIT:          0  MISS:          0
cpu0_L2C TOTAL     ACCESS:     479752  HIT:     210105  MISS:     269647
cpu0_L2C LOAD      ACCESS:     357249  HIT:     123809  MISS:     233440
cpu0_L2C RFO       ACCESS:      34823  HIT:       3677  MISS:      31146
cpu0_L2C PREFETCH  ACCESS:          0  HIT:          0  MISS:          0
cpu0_L2C WRITEBACK ACCESS:      86279  HIT:      82237  MISS:       4042
LLC TOTAL     ACCESS:     341453  HIT:     315898  MISS:      25555
LLC LOAD      ACCESS:     233439  HIT:     221719  MISS:      11720
LLC RFO       ACCESS:      31145  HIT:      17344  MISS:      13801
LLC PREFETCH  ACCESS:          0  HIT:          0  MISS:          0
LLC WRITEBACK ACCESS:      75850  HIT:      75848  MISS:          2
Heartbeat CPU 0 instructions: 90000000 cycles: 62171527 heartbeat IPC: 0.928004 cumulative IPC: 0.810019 (Simulation time: 0 hr 49 min 28 sec) 

Region of Interest Statistics
cpu0_DTLB TOTAL     ACCESS:    7028051  HIT:    6885165  MISS:     142886
cpu0_DTLB LOAD      ACCESS:    5130133  HIT:    4997416  MISS:     132717
cpu0_DTLB RFO       ACCESS:    1897918  HIT:    1887749  MISS:      10169
cpu0_DTLB PREFETCH  ACCESS:          0  HIT:          0  MISS:          0
cpu0_DTLB WRITEBACK ACCESS:          0  HIT:          0  MISS:          0
cpu0_ITLB TOTAL     ACCESS:    3718518  HIT:    3712869  MISS:       5649
cpu0_ITLB LOAD      ACCESS:    3718518  HIT:    3712869  MISS:       5649
cpu0_ITLB RFO       ACCESS:          0  HIT:          0  MISS:          0
cpu0_ITLB PREFETCH  ACCESS:          0  HIT:          0  MISS:          0
cpu0_ITLB WRITEBACK ACCESS:          0  HIT:          0  MISS:          0
cpu0_L1I TOTAL     ACCESS:    3369933  HIT:    3294714  MISS:      75219
cpu0_L1I LOAD      ACCESS:    3369933  HIT:    3294714  MISS:      75219
cpu0_L1I RFO       ACCESS:          0  HIT:          0  MISS:          0
cpu0_L1I PREFETCH  ACCESS:          0  HIT:          0  MISS:          0
cpu0_L1I WRITEBACK ACCESS:          0  HIT:          0  MISS:          0
cpu0_STLB TOTAL     ACCESS:     148535  HIT:     145051  MISS:       3484
cpu0_STLB LOAD      ACCESS:     138366  HIT:     135355  MISS:       3011
cpu0_STLB RFO       ACCESS:      10169  HIT:       9696  MISS:        473
cpu0_STLB PREFETCH  ACCESS:          0  HIT:          0  MISS:          0
cpu0_STLB WRITEBACK ACCESS:          0  HIT:          0  MISS:          0
cpu0_L1D TOTAL     ACCESS:    9493244  HIT:    9161857  MISS:     331387
cpu0_L1D LOAD      ACCESS:    5607548  HIT:    5312927  MISS:     294621
cpu0_L1D RFO       ACCESS:    3882225  HIT:    3846882  MISS:      35343
cpu0_L1D PREFETCH  ACCESS:          0  HIT:          0  MISS:          0
cpu0_L1D WRITEBACK ACCESS:          0  HIT:          0  MISS:          0
cpu0_L2C TOTAL     ACCESS:     494510  HIT:     215389  MISS:     279121
cpu0_L2C LOAD      ACCESS:     369838  HIT:     127588  MISS:     242250
cpu0_L2C RFO       ACCESS:      35342  HIT:       3682  MISS:      31660
cpu0_L2C PREFETCH  ACCESS:          0  HIT:          0  MISS:          0
cpu0_L2C WRITEBACK ACCESS:      87907  HIT:      83735  MISS:       4172
LLC TOTAL     ACCESS:     352527  HIT:     326127  MISS:      26400
LLC LOAD      ACCESS:     242249  HIT:     229943  MISS:      12306
LLC RFO       ACCESS:      31659  HIT:      17599  MISS:      14060
LLC PREFETCH  ACCESS:          0  HIT:          0  MISS:          0
LLC WRITEBACK ACCESS:      77580  HIT:      77578  MISS:          2
Heartbeat CPU 0 instructions: 92000003 cycles: 64529574 heartbeat IPC: 0.848161 cumulative IPC: 0.811757 (Simulation time: 0 hr 50 min 29 sec) 

Region of Interest Statistics
cpu0_DTLB TOTAL     ACCESS:    7355860  HIT:    7204257  MISS:     151603
cpu0_DTLB LOAD      ACCESS:    5349138  HIT:    5208230  MISS:     140908
cpu0_DTLB RFO       ACCESS:    2006722  HIT:    1996027  MISS:      10695
cpu0_DTLB PREFETCH  ACCESS:          0  HIT:          0  MISS:          0
cpu0_DTLB WRITEBACK ACCESS:          0  HIT:          0  MISS:          0
cpu0_ITLB TOTAL     ACCESS:    3913003  HIT:    3903910  MISS:       9093
cpu0_ITLB LOAD      ACCESS:    3913003  HIT:    3903910  MISS:       9093
cpu0_ITLB RFO       ACCESS:          0  HIT:          0  MISS:          0
cpu0_ITLB PREFETCH  ACCESS:          0  HIT:          0  MISS:          0
cpu0_ITLB WRITEBACK ACCESS:          0  HIT:          0  MISS:          0
cpu0_L1I TOTAL     ACCESS:    3596098  HIT:    3474745  MISS:     121353
cpu0_L1I LOAD      ACCESS:    3596098  HIT:    3474745  MISS:     121353
cpu0_L1I RFO       ACCESS:          0  HIT:          0  MISS:          0
cpu0_L1I PREFETCH  ACCESS:          0  HIT:          0  MISS:          0
cpu0_L1I WRITEBACK ACCESS:          0  HIT:          0  MISS:          0
cpu0_STLB TOTAL     ACCESS:     160696  HIT:     157208  MISS:       3488
cpu0_STLB LOAD      ACCESS:     150001  HIT:     146989  MISS:       3012
cpu0_STLB RFO       ACCESS:      10695  HIT:      10219  MISS:        476
cpu0_STLB PREFETCH  ACCESS:          0  HIT:          0  MISS:          0
cpu0_STLB WRITEBACK ACCESS:          0  HIT:          0  MISS:          0
cpu0_L1D TOTAL     ACCESS:    9991055  HIT:    9655495  MISS:     335560
cpu0_L1D LOAD      ACCESS:    5847565  HIT:    5548990  MISS:     298575
cpu0_L1D RFO       ACCESS:    4140015  HIT:    4104455  MISS:      35560
cpu0_L1D PREFETCH  ACCESS:          0  HIT:          0  MISS:          0
cpu0_L1D WRITEBACK ACCESS:          0  HIT:          0  MISS:          0
cpu0_L2C TOTAL     ACCESS:     545464  HIT:     261583  MISS:     283881
cpu0_L2C LOAD      ACCESS:     419926  HIT:     173287  MISS:     246639
cpu0_L2C RFO       ACCESS:      35558  HIT:       3744  MISS:      31814
cpu0_L2C PREFETCH  ACCESS:          0  HIT:          0  MISS:          0
cpu0_L2C WRITEBACK ACCESS:      88555  HIT:      84168  MISS:       4387
LLC TOTAL     ACCESS:     357783  HIT:     331141  MISS:      26642
LLC LOAD      ACCESS:     246638  HIT:     234204  MISS:      12434
LLC RFO       ACCESS:      31813  HIT:      17639  MISS:      14174
LLC PREFETCH  ACCESS:          0  HIT:          0  MISS:          0
LLC WRITEBACK ACCESS:      78291  HIT:      78289  MISS:          2
Heartbeat CPU 0 instructions: 94000000 cycles: 66811908 heartbeat IPC: 0.876295 cumulative IPC: 0.814484 (Simulation time: 0 hr 51 min 30 sec) 

Region of Interest Statistics
cpu0_DTLB TOTAL     ACCESS:    7676971  HIT:    7516555  MISS:     160416
cpu0_DTLB LOAD      ACCESS:    5564893  HIT:    5415799  MISS:     149094
cpu0_DTLB RFO       ACCESS:    2112078  HIT:    2100756  MISS:      11322
cpu0_DTLB PREFETCH  ACCESS:          0  HIT:          0  MISS:          0
cpu0_DTLB WRITEBACK ACCESS:          0  HIT:          0  MISS:          0
cpu0_ITLB TOTAL     ACCESS:    4106896  HIT:    4094159  MISS:      12737
cpu0_ITLB LOAD      ACCESS:    4106896  HIT:    4094159  MISS:      12737
cpu0_ITLB RFO       ACCESS:          0  HIT:          0  MISS:          0
cpu0_ITLB PREFETCH  ACCESS:          0  HIT:          0  MISS:          0
cpu0_ITLB WRITEBACK ACCESS:          0  HIT:          0  MISS:          0
cpu0_L1I TOTAL     ACCESS:    3818911  HIT:    3652942  MISS:     165969
cpu0_L1I LOAD      ACCESS:    3818911  HIT:    3652942  MISS:     165969
cpu0_L1I RFO       ACCESS:          0  HIT:          0  MISS:          0
cpu0_L1I PREFETCH  ACCESS:          0  HIT:          0  MISS:          0
cpu0_L1I WRITEBACK ACCESS:          0  HIT:          0  MISS:          0
cpu0_STLB TOTAL     ACCESS:     173153  HIT:     169662  MISS:       3491
cpu0_STLB LOAD      ACCESS:     161831  HIT:     158818  MISS:       3013
cpu0_STLB RFO       ACCESS:      11322  HIT:      10844  MISS:        478
cpu0_STLB PREFETCH  ACCESS:          0  HIT:          0  MISS:          0
cpu0_STLB WRITEBACK ACCESS:          0  HIT:          0  MISS:          0
cpu0_L1D TOTAL     ACCESS:   10478829  HIT:   10139237  MISS:     339592
cpu0_L1D LOAD      ACCESS:    6084081  HIT:    5781739  MISS:     302342
cpu0_L1D RFO       ACCESS:    4391270  HIT:    4355448  MISS:      35822
cpu0_L1D PREFETCH  ACCESS:          0  HIT:          0  MISS:          0
cpu0_L1D WRITEBACK ACCESS:          0  HIT:          0  MISS:          0
cpu0_L2C TOTAL     ACCESS:     594791  HIT:     306132  MISS:     288659
cpu0_L2C LOAD      ACCESS:     468309  HIT:     217266  MISS:     251043
cpu0_L2C RFO       ACCESS:      35820  HIT:       3845  MISS:      31975
cpu0_L2C PREFETCH  ACCESS:          0  HIT:          0  MISS:          0
cpu0_L2C WRITEBACK ACCESS:      89234  HIT:      84637  MISS:       4597
LLC TOTAL     ACCESS:     362949  HIT:     336169  MISS:      26780
LLC LOAD      ACCESS:     251042  HIT:     238591  MISS:      12451
LLC RFO       ACCESS:      31974  HIT:      17679  MISS:      14295
LLC PREFETCH  ACCESS:          0  HIT:          0  MISS:          0
LLC WRITEBACK ACCESS:      78889  HIT:      78887  MISS:          2
Heartbeat CPU 0 instructions: 96000002 cycles: 69905555 heartbeat IPC: 0.646487 cumulative IPC: 0.805384 (Simulation time: 0 hr 52 min 59 sec) 

Region of Interest Statistics
cpu0_DTLB TOTAL     ACCESS:    8100471  HIT:    7930221  MISS:     170250
cpu0_DTLB LOAD      ACCESS:    5857474  HIT:    5699538  MISS:     157936
cpu0_DTLB RFO       ACCESS:    2242997  HIT:    2230683  MISS:      12314
cpu0_DTLB PREFETCH  ACCESS:          0  HIT:          0  MISS:          0
cpu0_DTLB WRITEBACK ACCESS:          0  HIT:          0  MISS:          0
cpu0_ITLB TOTAL     ACCESS:    4296934  HIT:    4283544  MISS:      13390
cpu0_ITLB LOAD      ACCESS:    4296934  HIT:    4283544  MISS:      13390
cpu0_ITLB RFO       ACCESS:          0  HIT:          0  MISS:          0
cpu0_ITLB PREFETCH  ACCESS:          0  HIT:          0  MISS:          0
cpu0_ITLB WRITEBACK ACCESS:          0  HIT:          0  MISS:          0
cpu0_L1I TOTAL     ACCESS:    4023966  HIT:    3850644  MISS:     173322
cpu0_L1I LOAD      ACCESS:    4023966  HIT:    3850644  MISS:     173322
cpu0_L1I RFO       ACCESS:          0  HIT:          0  MISS:          0
cpu0_L1I PREFETCH  ACCESS:          0  HIT:          0  MISS:          0
cpu0_L1I WRITEBACK ACCESS:          0  HIT:          0  MISS:          0
cpu0_STLB TOTAL     ACCESS:     183640  HIT:     179733  MISS:       3907
cpu0_STLB LOAD      ACCESS:     171326  HIT:     167914  MISS:       3412
cpu0_STLB RFO       ACCESS:      12314  HIT:      11819  MISS:        495
cpu0_STLB PREFETCH  ACCESS:          0  HIT:          0  MISS:          0
cpu0_STLB WRITEBACK ACCESS:          0  HIT:          0  MISS:          0
cpu0_L1D TOTAL     ACCESS:   11087295  HIT:   10716860  MISS:     370435
cpu0_L1D LOAD      ACCESS:    6403812  HIT:    6072421  MISS:     331391
cpu0_L1D RFO       ACCESS:    4679591  HIT:    4642130  MISS:      37461
cpu0_L1D PREFETCH  ACCESS:          0  HIT:          0  MISS:          0
cpu0_L1D WRITEBACK ACCESS:          0  HIT:          0  MISS:          0
cpu0_L2C TOTAL     ACCESS:     644133  HIT:     329749  MISS:     314384
cpu0_L2C LOAD      ACCESS:     504706  HIT:     230016  MISS:     274690
cpu0_L2C RFO       ACCESS:      37459  HIT:       3973  MISS:      33486
cpu0_L2C PREFETCH  ACCESS:          0  HIT:          0  MISS:          0
cpu0_L2C WRITEBACK ACCESS:     100385  HIT:      95348  MISS:       5037
LLC TOTAL     ACCESS:     398311  HIT:     367829  MISS:      30482
LLC LOAD      ACCESS:     274688  HIT:     259091  MISS:      15597
LLC RFO       ACCESS:      33485  HIT:      18637  MISS:      14848
LLC PREFETCH  ACCESS:          0  HIT:          0  MISS:          0
LLC WRITEBACK ACCESS:      88967  HIT:      88965  MISS:          2
Heartbeat CPU 0 instructions: 98000001 cycles: 72084188 heartbeat IPC: 0.918006 cumulative IPC: 0.809522 (Simulation time: 0 hr 54 min 54 sec) 

Region of Interest Statistics
cpu0_DTLB TOTAL     ACCESS:    8526171  HIT:    8347106  MISS:     179065
cpu0_DTLB LOAD      ACCESS:    6110437  HIT:    5945506  MISS:     164931
cpu0_DTLB RFO       ACCESS:    2415734  HIT:    2401600  MISS:      14134
cpu0_DTLB PREFETCH  ACCESS:          0  HIT:          0  MISS:          0
cpu0_DTLB WRITEBACK ACCESS:          0  HIT:          0  MISS:          0
cpu0_ITLB TOTAL     ACCESS:    4408962  HIT:    4395567  MISS:      13395
cpu0_ITLB LOAD      ACCESS:    4408962  HIT:    4395567  MISS:      13395
cpu0_ITLB RFO       ACCESS:          0  HIT:          0  MISS:          0
cpu0_ITLB PREFETCH  ACCESS:          0  HIT:          0  MISS:          0
cpu0_ITLB WRITEBACK ACCESS:          0  HIT:          0  MISS:          0
cpu0_L1I TOTAL     ACCESS:    4244009  HIT:    4070467  MISS:     173542
cpu0_L1I LOAD      ACCESS:    4244009  HIT:    4070467  MISS:     173542
cpu0_L1I RFO       ACCESS:          0  HIT:          0  MISS:          0
cpu0_L1I PREFETCH  ACCESS:          0  HIT:          0  MISS:          0
cpu0_L1I WRITEBACK ACCESS:          0  HIT:          0  MISS:          0
cpu0_STLB TOTAL     ACCESS:     192460  HIT:     186926  MISS:       5534
cpu0_STLB LOAD      ACCESS:     178326  HIT:     173609  MISS:       4717
cpu0_STLB RFO       ACCESS:      14134  HIT:      13317  MISS:        817
cpu0_STLB PREFETCH  ACCESS:          0  HIT:          0  MISS:          0
cpu0_STLB WRITEBACK ACCESS:          0  HIT:          0  MISS:          0
cpu0_L1D TOTAL     ACCESS:   11758689  HIT:   11368361  MISS:     390328
cpu0_L1D LOAD      ACCESS:    6689066  HIT:    6342978  MISS:     346088
cpu0_L1D RFO       ACCESS:    5064108  HIT:    5021917  MISS:      42191
cpu0_L1D PREFETCH  ACCESS:          0  HIT:          0  MISS:          0
cpu0_L1D WRITEBACK ACCESS:          0  HIT:          0  MISS:          0
cpu0_L2C TOTAL     ACCESS:     674227  HIT:     341673  MISS:     332554
cpu0_L2C LOAD      ACCESS:     519622  HIT:     231978  MISS:     287644
cpu0_L2C RFO       ACCESS:      42189  HIT:       4263  MISS:      37926
cpu0_L2C PREFETCH  ACCESS:          0  HIT:          0  MISS:          0
cpu0_L2C WRITEBACK ACCESS:     110367  HIT:     104851  MISS:       5516
LLC TOTAL     ACCESS:     424008  HIT:     388077  MISS:      35931
LLC LOAD      ACCESS:     287641  HIT:     268376  MISS:      19265
LLC RFO       ACCESS:      37925  HIT:      21308  MISS:      16617
LLC PREFETCH  ACCESS:          0  HIT:          0  MISS:          0
LLC WRITEBACK ACCESS:      96974  HIT:      96972  MISS:          2
Heartbeat CPU 0 instructions: 100000003 cycles: 74670403 heartbeat IPC: 0.773332 cumulative IPC: 0.80801 (Simulation time: 0 hr 56 min 36 sec) 

Region of Interest Statistics
cpu0_DTLB TOTAL     ACCESS:    8951708  HIT:    8761053  MISS:     190655
cpu0_DTLB LOAD      ACCESS:    6391338  HIT:    6215912  MISS:     175426
cpu0_DTLB RFO       ACCESS:    2560370  HIT:    2545141  MISS:      15229
cpu0_DTLB PREFETCH  ACCESS:          0  HIT:          0  MISS:          0
cpu0_DTLB WRITEBACK ACCESS:          0  HIT:          0  MISS:          0
cpu0_ITLB TOTAL     ACCESS:    4530719  HIT:    4517314  MISS:      13405
cpu0_ITLB LOAD      ACCESS:    4530719  HIT:    4517314  MISS:      13405
cpu0_ITLB RFO       ACCESS:          0  HIT:          0  MISS:          0
cpu0_ITLB PREFETCH  ACCESS:          0  HIT:          0  MISS:          0
cpu0_ITLB WRITEBACK ACCESS:          0  HIT:          0  MISS:          0
cpu0_L1I TOTAL     ACCESS:    4476474  HIT:    4302703  MISS:     173771
cpu0_L1I LOAD      ACCESS:    4476474  HIT:    4302703  MISS:     173771
cpu0_L1I RFO       ACCESS:          0  HIT:          0  MISS:          0
cpu0_L1I PREFETCH  ACCESS:          0  HIT:          0  MISS:          0
cpu0_L1I WRITEBACK ACCESS:          0  HIT:          0  MISS:          0
cpu0_STLB TOTAL     ACCESS:     204060  HIT:     196994  MISS:       7066
cpu0_STLB LOAD      ACCESS:     188831  HIT:     182832  MISS:       5999
cpu0_STLB RFO       ACCESS:      15229  HIT:      14162  MISS:       1067
cpu0_STLB PREFETCH  ACCESS:          0  HIT:          0  MISS:          0
cpu0_STLB WRITEBACK ACCESS:          0  HIT:          0  MISS:          0
cpu0_L1D TOTAL     ACCESS:   12396476  HIT:   11970953  MISS:     425523
cpu0_L1D LOAD      ACCESS:    6989965  HIT:    6613781  MISS:     376184
cpu0_L1D RFO       ACCESS:    5399465  HIT:    5352735  MISS:      46730
cpu0_L1D PREFETCH  ACCESS:          0  HIT:          0  MISS:          0
cpu0_L1D WRITEBACK ACCESS:          0  HIT:          0  MISS:          0
cpu0_L2C TOTAL     ACCESS:     719607  HIT:     356317  MISS:     363290
cpu0_L2C LOAD      ACCESS:     549947  HIT:     236301  MISS:     313646
cpu0_L2C RFO       ACCESS:      46728  HIT:       4636  MISS:      42092
cpu0_L2C PREFETCH  ACCESS:          0  HIT:          0  MISS:          0
cpu0_L2C WRITEBACK ACCESS:     120323  HIT:     114559  MISS:       5764
LLC TOTAL     ACCESS:     463637  HIT:     423354  MISS:      40283
LLC LOAD      ACCESS:     313643  HIT:     291827  MISS:      21816
LLC RFO       ACCESS:      42091  HIT:      23673  MISS:      18418
LLC PREFETCH  ACCESS:          0  HIT:          0  MISS:          0
LLC WRITEBACK ACCESS:     106115  HIT:     106113  MISS:          2
Heartbeat CPU 0 instructions: 102000000 cycles: 77148261 heartbeat IPC: 0.807148 cumulative IPC: 0.807976 (Simulation time: 0 hr 57 min 49 sec) 

Region of Interest Statistics
cpu0_DTLB TOTAL     ACCESS:    9349868  HIT:    9150646  MISS:     199222
cpu0_DTLB LOAD      ACCESS:    6677795  HIT:    6494439  MISS:     183356
cpu0_DTLB RFO       ACCESS:    2672073  HIT:    2656207  MISS:      15866
cpu0_DTLB PREFETCH  ACCESS:          0  HIT:          0  MISS:          0
cpu0_DTLB WRITEBACK ACCESS:          0  HIT:          0  MISS:          0
cpu0_ITLB TOTAL     ACCESS:    4704146  HIT:    4689938  MISS:      14208
cpu0_ITLB LOAD      ACCESS:    4704146  HIT:    4689938  MISS:      14208
cpu0_ITLB RFO       ACCESS:          0  HIT:          0  MISS:          0
cpu0_ITLB PREFETCH  ACCESS:          0  HIT:          0  MISS:          0
cpu0_ITLB WRITEBACK ACCESS:          0  HIT:          0  MISS:          0
cpu0_L1I TOTAL     ACCESS:    4702509  HIT:    4525517  MISS:     176992
cpu0_L1I LOAD      ACCESS:    4702509  HIT:    4525517  MISS:     176992
cpu0_L1I RFO       ACCESS:          0  HIT:          0  MISS:          0
cpu0_L1I PREFETCH  ACCESS:          0  HIT:          0  MISS:          0
cpu0_L1I WRITEBACK ACCESS:          0  HIT:          0  MISS:          0
cpu0_STLB TOTAL     ACCESS:     213430  HIT:     206052  MISS:       7378
cpu0_STLB LOAD      ACCESS:     197564  HIT:     191283  MISS:       6281
cpu0_STLB RFO       ACCESS:      15866  HIT:      14769  MISS:       1097
cpu0_STLB PREFETCH  ACCESS:          0  HIT:          0  MISS:          0
cpu0_STLB WRITEBACK ACCESS:          0  HIT:          0  MISS:          0
cpu0_L1D TOTAL     ACCESS:   12941630  HIT:   12501338  MISS:     440292
cpu0_L1D LOAD      ACCESS:    7269550  HIT:    6880297  MISS:     389253
cpu0_L1D RFO       ACCESS:    5664731  HIT:    5616352  MISS:      48379
cpu0_L1D PREFETCH  ACCESS:          0  HIT:          0  MISS:          0
cpu0_L1D WRITEBACK ACCESS:          0  HIT:          0  MISS:          0
cpu0_L2C TOTAL     ACCESS:     740451  HIT:     363354  MISS:     377097
cpu0_L2C LOAD      ACCESS:     566237  HIT:     240547  MISS:     325690
cpu0_L2C RFO       ACCESS:      48377  HIT:       4681  MISS:      43696
cpu0_L2C PREFETCH  ACCESS:          0  HIT:          0  MISS:          0
cpu0_L2C WRITEBACK ACCESS:     123177  HIT:     117299  MISS:       5878
LLC TOTAL     ACCESS:     479869  HIT:     437545  MISS:      42324
LLC LOAD      ACCESS:     325687  HIT:     302701  MISS:      22986
LLC RFO       ACCESS:      43695  HIT:      24407  MISS:      19288
LLC PREFETCH  ACCESS:          0  HIT:          0  MISS:          0
LLC WRITEBACK ACCESS:     108654  HIT:     108652  MISS:          2
Heartbeat CPU 0 instructions: 104000000 cycles: 79210404 heartbeat IPC: 0.969865 cumulative IPC: 0.813003 (Simulation time: 0 hr 58 min 47 sec) 

Region of Interest Statistics
cpu0_DTLB TOTAL     ACCESS:    9740515  HIT:    9533167  MISS:     207348
cpu0_DTLB LOAD      ACCESS:    6952434  HIT:    6761558  MISS:     190876
cpu0_DTLB RFO       ACCESS:    2788081  HIT:    2771609  MISS:      16472
cpu0_DTLB PREFETCH  ACCESS:          0  HIT:          0  MISS:          0
cpu0_DTLB WRITEBACK ACCESS:          0  HIT:          0  MISS:          0
cpu0_ITLB TOTAL     ACCESS:    4885831  HIT:    4870676  MISS:      15155
cpu0_ITLB LOAD      ACCESS:    4885831  HIT:    4870676  MISS:      15155
cpu0_ITLB RFO       ACCESS:          0  HIT:          0  MISS:          0
cpu0_ITLB PREFETCH  ACCESS:          0  HIT:          0  MISS:          0
cpu0_ITLB WRITEBACK ACCESS:          0  HIT:          0  MISS:          0
cpu0_L1I TOTAL     ACCESS:    4916435  HIT:    4736036  MISS:     180399
cpu0_L1I LOAD      ACCESS:    4916435  HIT:    4736036  MISS:     180399
cpu0_L1I RFO       ACCESS:          0  HIT:          0  MISS:          0
cpu0_L1I PREFETCH  ACCESS:          0  HIT:          0  MISS:          0
cpu0_L1I WRITEBACK ACCESS:          0  HIT:          0  MISS:          0
cpu0_STLB TOTAL     ACCESS:     222503  HIT:     215047  MISS:       7456
cpu0_STLB LOAD      ACCESS:     206031  HIT:     199690  MISS:       6341
cpu0_STLB RFO       ACCESS:      16472  HIT:      15357  MISS:       1115
cpu0_STLB PREFETCH  ACCESS:          0  HIT:          0  MISS:          0
cpu0_STLB WRITEBACK ACCESS:          0  HIT:          0  MISS:          0
cpu0_L1D TOTAL     ACCESS:   13492487  HIT:   13048495  MISS:     443992
cpu0_L1D LOAD      ACCESS:    7539179  HIT:    7147294  MISS:     391885
cpu0_L1D RFO       ACCESS:    5945882  HIT:    5896459  MISS:      49423
cpu0_L1D PREFETCH  ACCESS:          0  HIT:          0  MISS:          0
cpu0_L1D WRITEBACK ACCESS:          0  HIT:          0  MISS:          0
cpu0_L2C TOTAL     ACCESS:     748712  HIT:     367603  MISS:     381109
cpu0_L2C LOAD      ACCESS:     572276  HIT:     243706  MISS:     328570
cpu0_L2C RFO       ACCESS:      49421  HIT:       4717  MISS:      44704
cpu0_L2C PREFETCH  ACCESS:          0  HIT:          0  MISS:          0
cpu0_L2C WRITEBACK ACCESS:     124331  HIT:     118350  MISS:       5981
LLC TOTAL     ACCESS:     484918  HIT:     441652  MISS:      43266
LLC LOAD      ACCESS:     328567  HIT:     305361  MISS:      23206
LLC RFO       ACCESS:      44703  HIT:      24693  MISS:      20010
LLC PREFETCH  ACCESS:          0  HIT:          0  MISS:          0
LLC WRITEBACK ACCESS:     109794  HIT:     109792  MISS:          2
Heartbeat CPU 0 instructions: 106000002 cycles: 81406747 heartbeat IPC: 0.910605 cumulative IPC: 0.816127 (Simulation time: 0 hr 59 min 54 sec) 

Region of Interest Statistics
cpu0_DTLB TOTAL     ACCESS:   10130342  HIT:    9916985  MISS:     213357
cpu0_DTLB LOAD      ACCESS:    7228934  HIT:    7032585  MISS:     196349
cpu0_DTLB RFO       ACCESS:    2901408  HIT:    2884400  MISS:      17008
cpu0_DTLB PREFETCH  ACCESS:          0  HIT:          0  MISS:          0
cpu0_DTLB WRITEBACK ACCESS:          0  HIT:          0  MISS:          0
cpu0_ITLB TOTAL     ACCESS:    5057450  HIT:    5041788  MISS:      15662
cpu0_ITLB LOAD      ACCESS:    5057450  HIT:    5041788  MISS:      15662
cpu0_ITLB RFO       ACCESS:          0  HIT:          0  MISS:          0
cpu0_ITLB PREFETCH  ACCESS:          0  HIT:          0  MISS:          0
cpu0_ITLB WRITEBACK ACCESS:          0  HIT:          0  MISS:          0
cpu0_L1I TOTAL     ACCESS:    5137341  HIT:    4955193  MISS:     182148
cpu0_L1I LOAD      ACCESS:    5137341  HIT:    4955193  MISS:     182148
cpu0_L1I RFO       ACCESS:          0  HIT:          0  MISS:          0
cpu0_L1I PREFETCH  ACCESS:          0  HIT:          0  MISS:          0
cpu0_L1I WRITEBACK ACCESS:          0  HIT:          0  MISS:          0
cpu0_STLB TOTAL     ACCESS:     229019  HIT:     221532  MISS:       7487
cpu0_STLB LOAD      ACCESS:     212011  HIT:     205651  MISS:       6360
cpu0_STLB RFO       ACCESS:      17008  HIT:      15881  MISS:       1127
cpu0_STLB PREFETCH  ACCESS:          0  HIT:          0  MISS:          0
cpu0_STLB WRITEBACK ACCESS:          0  HIT:          0  MISS:          0
cpu0_L1D TOTAL     ACCESS:   14039564  HIT:   13582967  MISS:     456597
cpu0_L1D LOAD      ACCESS:    7809079  HIT:    7405849  MISS:     403230
cpu0_L1D RFO       ACCESS:    6223029  HIT:    6172356  MISS:      50673
cpu0_L1D PREFETCH  ACCESS:          0  HIT:          0  MISS:          0
cpu0_L1D WRITEBACK ACCESS:          0  HIT:          0  MISS:          0
cpu0_L2C TOTAL     ACCESS:     765190  HIT:     371573  MISS:     393617
cpu0_L2C LOAD      ACCESS:     585369  HIT:     245659  MISS:     339710
cpu0_L2C RFO       ACCESS:      50671  HIT:       4772  MISS:      45899
cpu0_L2C PREFETCH  ACCESS:          0  HIT:          0  MISS:          0
[...]
cpu0_ITLB RFO       ACCESS:          0  HIT:          0  MISS:          0
cpu0_ITLB PREFETCH  ACCESS:          0  HIT:          0  MISS:          0
cpu0_ITLB WRITEBACK ACCESS:          0  HIT:          0  MISS:          0
cpu0_ITLB TRANSLATION ACCESS:          0  HIT:          0  MISS:          0
cpu0_ITLB PREFETCH  REQUESTED:          0  ISSUED:          0  USEFUL:          0  USELESS:          0
cpu0_ITLB AVERAGE MISS LATENCY: 9.70083 cycles
cpu0_L1I TOTAL     ACCESS:  170996891  HIT:  164314854  MISS:    6682037
cpu0_L1I LOAD      ACCESS:  170996891  HIT:  164314854  MISS:    6682037
cpu0_L1I RFO       ACCESS:          0  HIT:          0  MISS:          0
cpu0_L1I PREFETCH  ACCESS:          0  HIT:          0  MISS:          0
cpu0_L1I WRITEBACK ACCESS:          0  HIT:          0  MISS:          0
cpu0_L1I TRANSLATION ACCESS:          0  HIT:          0  MISS:          0
cpu0_L1I PREFETCH  REQUESTED:          0  ISSUED:          0  USEFUL:          0  USELESS:          0
cpu0_L1I AVERAGE MISS LATENCY: 27.2497 cycles
cpu0_STLB TOTAL     ACCESS:    7121369  HIT:    6893070  MISS:     228299
cpu0_STLB LOAD      ACCESS:    6619820  HIT:    6432147  MISS:     187673
cpu0_STLB RFO       ACCESS:     501549  HIT:     460923  MISS:      40626
cpu0_STLB PREFETCH  ACCESS:          0  HIT:          0  MISS:          0
cpu0_STLB WRITEBACK ACCESS:          0  HIT:          0  MISS:          0
cpu0_STLB TRANSLATION ACCESS:          0  HIT:          0  MISS:          0
cpu0_STLB PREFETCH  REQUESTED:          0  ISSUED:          0  USEFUL:          0  USELESS:          0
cpu0_STLB AVERAGE MISS LATENCY: 41.4863 cycles
cpu0_L1D TOTAL     ACCESS:  420000123  HIT:  408516365  MISS:   11483758
cpu0_L1D LOAD      ACCESS:  220097799  HIT:  210240688  MISS:    9857111
cpu0_L1D RFO       ACCESS:  199675939  HIT:  198119953  MISS:    1555986
cpu0_L1D PREFETCH  ACCESS:          0  HIT:          0  MISS:          0
cpu0_L1D WRITEBACK ACCESS:          0  HIT:          0  MISS:          0
cpu0_L1D TRANSLATION ACCESS:     226385  HIT:     155724  MISS:      70661
cpu0_L1D PREFETCH  REQUESTED:          0  ISSUED:          0  USEFUL:          0  USELESS:          0
cpu0_L1D AVERAGE MISS LATENCY: 34.4362 cycles
cpu0_L2C TOTAL     ACCESS:   21320266  HIT:   10577232  MISS:   10743034
cpu0_L2C LOAD      ACCESS:   16538851  HIT:    7604076  MISS:    8934775
cpu0_L2C RFO       ACCESS:    1555960  HIT:     287193  MISS:    1268767
cpu0_L2C PREFETCH  ACCESS:          0  HIT:          0  MISS:          0
cpu0_L2C WRITEBACK ACCESS:    3154794  HIT:    2671165  MISS:     483629
cpu0_L2C TRANSLATION ACCESS:      70661  HIT:      14798  MISS:      55863
cpu0_L2C PREFETCH  REQUESTED:          0  ISSUED:          0  USEFUL:          0  USELESS:          0
cpu0_L2C AVERAGE MISS LATENCY: 35.1016 cycles
LLC TOTAL     ACCESS:   12756784  HIT:   11895894  MISS:     860890
LLC LOAD      ACCESS:    8934710  HIT:    8336445  MISS:     598265
LLC RFO       ACCESS:    1268740  HIT:    1006985  MISS:     261755
LLC PREFETCH  ACCESS:          0  HIT:          0  MISS:          0
LLC WRITEBACK ACCESS:    2497471  HIT:    2497379  MISS:         92
LLC TRANSLATION ACCESS:      55863  HIT:      55085  MISS:        778
LLC PREFETCH  REQUESTED:          0  ISSUED:          0  USEFUL:          0  USELESS:          0
LLC AVERAGE MISS LATENCY: 187.769 cycles
~~~~~~~~~~Reuse Distance Profiler output~~~~~~~~~~
0	123543296	13213936
1	28586816	11093552
2	20602288	10497712
3	15088960	8688240
4	13673920	8452528
5	10993328	6588896
6	9906480	6088112
7	8660208	5288016
8	8035712	5254624
9	7588016	5002976
10	6693680	4395232
11	5788176	3847056
12	5153088	3508096
13	4737040	3233776
14	4411856	3057936
15	4101696	2919120
16	3565376	2434032
17	3529936	2484048
18	3105024	2176080
19	3343344	2516256
20	3049920	2277136
21	2628256	1910688
22	2566080	1898240
23	2201392	1607664
24	2354704	1831792
25	2117024	1631792
26	2082784	1639760
27	1970816	1555216
28	1746032	1357440
29	1741616	1384688
30	1738048	1398176
31	1568912	1233056
32	1386960	1073376
33	1342560	1041216
34	1195632	944096
35	1179664	935936
36	1112848	878016
37	1064272	837792
38	1051024	828128
39	1167792	922160
40	979648	764096
41	922688	711200
42	876512	669088
43	814320	632064
44	781904	609920
45	749968	585408
46	781824	619376
47	751728	589888
48	842160	677360
49	863408	717392
50	790752	650960
51	705376	569744
52	698192	561584
53	735360	615648
54	810128	685328
55	797584	652560
56	796544	634000
57	705168	566064
58	762496	639376
59	744080	618544
60	630256	507936
61	595600	457008
62	600672	454096
63	580208	437344
64	1166816	898560
66	1166720	840272
68	1262704	821408
70	1120384	745696
72	1032128	742592
74	916192	715552
76	919760	748928
78	1164752	961904
80	1323776	1106192
82	822416	678304
84	756000	629360
86	711120	586160
88	654144	533056
90	620976	510256
92	619616	520352
94	641648	536176
96	621328	517440
98	571216	475808
100	550256	461520
102	514576	432768
104	510576	434304
106	508640	436288
108	505632	438400
110	464512	398624
112	493680	423984
114	475200	409312
116	476336	412208
118	439520	373568
120	397792	336464
122	389248	327840
124	382416	320928
126	384240	325584
128	759248	650064
132	693280	593312
136	635632	539488
140	602480	513216
144	591680	504672
148	565600	478928
152	557184	470448
156	548992	468416
160	522224	443024
164	491632	412896
168	483296	407632
172	475680	397392
176	497824	420960
180	456080	383584
184	451200	377616
188	434672	364864
192	430224	358992
196	417488	351616
200	399376	338160
204	369824	315536
208	364528	306512
212	356080	301440
216	348304	297200
220	339040	290416
224	332768	283920
228	326704	279712
232	326544	279472
236	312864	266880
240	300480	254560
244	311040	259312
248	295504	244032
252	284144	237376
256	534256	461280
264	491568	424544
272	475888	403680
280	448928	383152
288	444720	381488
296	429840	369440
304	431136	369168
312	418720	355568
320	411680	353200
328	395200	338208
336	399376	336704
344	371584	318352
352	370176	318048
360	369872	317552
368	359376	308160
376	380064	322496
384	358304	305408
392	344320	293680
400	335504	286592
408	339968	292704
416	324976	281808
424	304848	261728
432	294448	252560
440	294880	257344
448	311584	273968
456	280880	245296
464	280208	243040
472	290848	251664
480	280896	241264
488	269008	231504
496	263808	224992
504	253440	214496
512	496800	426240
528	468208	405840
544	439120	377584
560	416720	359184
576	389936	334704
592	382576	325808
608	364672	307568
624	344528	290544
640	326288	278992
656	312128	266272
672	303264	258720
688	319520	270656
704	309584	267664
720	304208	262944
736	276624	238992
752	274560	234720
768	260064	224528
784	256176	220288
800	247936	210416
816	231168	195840
832	227664	189120
848	223456	187184
864	219024	184720
880	210048	177632
896	213232	179984
912	217216	182608
928	210192	176288
944	198576	165840
960	205504	171040
976	210720	175952
992	202048	169968
1008	195776	164112
1024	373088	306736
1056	365936	293888
1088	340768	280992
1120	329504	270256
1152	343408	281472
1184	321984	261984
1216	302960	246704
1248	300256	253504
1280	285840	242688
1312	268400	230400
1344	257232	218800
1376	232768	196416
1408	231488	197312
1440	220560	185680
1472	203936	170560
1504	211600	173888
1536	212576	176560
1568	207584	169616
1600	213536	172720
1632	205552	167328
1664	209136	169904
1696	179728	147072
1728	164336	134896
1760	174224	142208
1792	169952	136656
1824	160816	132512
1856	152528	124528
1888	141024	117824
1920	140832	117024
1952	136400	114464
1984	128832	107760
2016	128192	107680
2048	262496	218720
2112	242080	201024
2176	230544	193968
2240	226208	190272
2304	221280	191280
2368	204672	173504
2432	195984	168720
2496	192832	165872
2560	180224	155392
2624	175904	151296
2688	169664	146448
2752	165440	142912
2816	151632	131264
2880	148000	128160
2944	152880	132816
3008	146560	126336
3072	141024	120752
3136	141744	122880
3200	132256	114688
3264	132016	114608
3328	130400	113504
3392	129616	114208
3456	122880	105360
3520	121680	105104
3584	126832	111168
3648	119760	107648
3712	117088	104208
3776	108720	96512
3840	109424	95424
3904	104672	91344
3968	99328	88560
4032	95840	86384
4096	182224	161728
4224	178320	160112
4352	168576	151280
4480	161920	144704
4608	152672	137264
4736	149552	135264
4864	143472	129232
4992	139120	126240
5120	138096	125632
5248	129728	118320
5376	128096	116464
5504	125136	113792
5632	122464	111584
5760	120816	109936
5888	118272	109776
6016	117264	107968
6144	120592	107840
6272	120288	108864
6400	118912	109584
6528	106208	97728
6656	102016	94128
6784	100976	92016
6912	95744	87600
7040	92864	84224
7168	90832	82272
7296	86608	79488
7424	109616	102880
7552	100784	93888
7680	95504	87952
7808	103712	97024
7936	158192	148144
8064	194832	181728
8192	209360	188976
8448	148448	134256
8704	155296	139632
8960	142848	130752
9216	148320	132176
9472	148704	134192
9728	140448	127808
9984	122176	112576
10240	117504	108304
10496	116816	107632
10752	118800	108240
11008	111840	101104
11264	104176	95808
11520	100304	92432
11776	96016	88416
12032	94128	87568
12288	93248	85968
12544	88736	82224
12800	83824	78032
13056	85264	78560
13312	83536	77392
13568	86544	80144
13824	87504	82016
14080	86640	81200
14336	81536	75280
14592	78256	72560
14848	83248	77808
15104	77984	73072
15360	73008	68160
15616	70400	65472
15872	68336	63488
16128	67344	62720
16384	139920	130480
16896	131728	122688
17408	127680	117968
17920	126624	118352
18432	119552	111088
18944	118000	109040
19456	115712	105968
19968	113696	105168
20480	109680	100736
20992	103136	95936
21504	98400	91248
22016	97536	91520
22528	95216	89200
23040	93264	86288
23552	88480	81888
24064	87296	81600
24576	81056	74800
25088	78960	73392
25600	79952	74656
26112	77504	71904
26624	75872	69632
27136	72112	66384
27648	67152	62144
28160	62512	58032
28672	65536	60816
29184	67856	62608
29696	70960	66352
30208	64480	59776
30720	62240	57776
31232	62560	58176
31744	66192	61808
32256	59744	55424
32768	121616	112704
33792	117408	107728
34816	120032	112528
35840	107520	101440
36864	92912	86768
37888	88208	82016
38912	85344	78416
39936	81712	75776
40960	87120	81056
41984	85040	78928
43008	74368	69072
44032	72672	67888
45056	74144	68688
46080	70624	65216
47104	68512	63600
48128	64128	58976
49152	61360	57040
50176	61632	57424
51200	59168	55248
52224	59712	55280
53248	54512	51056
54272	57184	53408
55296	53920	50064
56320	53744	49744
57344	53792	50240
58368	55584	52016
59392	51328	47920
60416	50928	47392
61440	50880	47344
62464	49808	46288
63488	51696	48720
64512	51488	48832
65536	93808	87280
67584	98480	91392
69632	85984	78640
71680	80320	73456
73728	81296	74928
75776	73232	67584
77824	66000	61296
79872	65856	61376
81920	66688	61872
83968	64800	59040
86016	62960	57968
88064	58448	53216
90112	57072	52464
92160	54048	49280
94208	53488	49392
96256	54160	49744
98304	53440	48144
100352	49440	45120
102400	50112	45488
104448	46256	40976
106496	47136	41824
108544	44832	40336
110592	49232	40656
112640	49264	41184
114688	43248	35152
116736	44048	36336
118784	42128	35088
120832	39552	35312
122880	39744	34640
124928	38528	34032
126976	39216	34656
129024	39152	34448
131072	78832	66480
135168	72752	61952
139264	65168	56800
143360	60176	54048
147456	59120	52288
151552	58016	48272
155648	58208	47664
159744	52336	44176
163840	51280	42256
167936	50960	43296
172032	49296	43824
176128	49392	43520
180224	50256	43680
184320	42208	36304
188416	47136	37968
192512	43904	38256
196608	39264	34576
200704	40640	33872
204800	40640	34256
208896	34592	30592
212992	36608	32640
217088	36272	27776
221184	30992	26464
225280	30432	26736
229376	29632	26096
233472	29888	25520
237568	26128	22352
241664	23232	19584
245760	25632	22352
249856	23040	19408
253952	25488	21888
258048	26800	22432
262144	42656	37168
270336	41552	36480
278528	41264	35984
286720	40848	35360
294912	35488	29760
303104	38720	33568
311296	38144	32720
319488	32736	28224
327680	32048	28048
335872	29984	25824
344064	38160	32672
352256	31856	26480
360448	27216	23488
368640	30720	26352
376832	28896	25392
385024	29424	23280
393216	29888	26320
401408	29616	25264
409600	25232	21824
417792	25728	20912
425984	22704	18816
434176	21056	17264
442368	19840	16848
450560	20336	16896
458752	21232	17920
466944	19200	16800
475136	21824	18864
483328	19216	16064
491520	19872	16688
499712	20112	16944
507904	17184	14400
516096	19248	16448
524288	33472	28560
540672	29424	23904
557056	34688	29024
573440	26400	19744
589824	21584	17104
606208	17504	14000
622592	19456	15280
638976	19264	14800
655360	21168	17072
671744	19536	14960
688128	20608	16112
704512	17504	13632
720896	19408	16016
737280	18544	14816
753664	16784	13616
770048	15040	11632
786432	14608	12304
802816	14272	11584
819200	13984	10592
835584	13760	10112
851968	14464	11328
868352	15600	11504
884736	11520	8592
901120	12592	9664
917504	14592	11040
933888	13600	10528
950272	14048	11504
966656	9632	6880
983040	11824	8848
999424	9072	6816
1015808	9744	6848
1032192	9168	6560
1048576	16176	11104
1081344	17216	12176
1114112	22688	17088
1146880	20448	15872
1179648	20800	14208
1212416	16448	11024
1245184	16048	11680
1277952	15328	12272
1310720	19056	13584
1343488	14720	10864
1376256	13392	10048
1409024	13520	10272
1441792	11936	8016
1474560	12640	9152
1507328	8992	5472
1540096	10048	6960
1572864	9568	6096
1605632	11008	7008
1638400	11024	5920
1671168	9488	6432
1703936	9696	6304
1736704	7296	4416
1769472	8688	5808
1802240	7504	4560
1835008	6864	4672
1867776	8256	4976
1900544	13952	6784
1933312	11808	5776
1966080	9536	4176
1998848	16128	5248
2031616	15520	11584
2064384	10288	6992
2097152	23712	16928
2162688	23552	15920
2228224	17792	8256
2293760	16384	10208
2359296	18912	12640
2424832	14304	8208
2490368	11536	5520
2555904	12032	6544
2621440	11760	6416
2686976	14192	7152
2752512	17216	6816
2818048	13328	6720
2883584	14480	12112
2949120	11968	9184
3014656	9568	6960
3080192	7984	4944
3145728	5952	3728
3211264	5968	2944
3276800	6080	3264
3342336	6432	3568
3407872	6224	3424
3473408	6448	3664
3538944	5344	2368
3604480	11424	2720
3670016	7088	4672
3735552	9056	6192
3801088	18240	15024
3866624	7776	3472
3932160	8912	4208
3997696	8368	4400
4063232	8576	5744
4128768	13136	11120
4194304	8272	4592
4325376	8768	6096
4456448	11760	7280
4587520	15472	5648
4718592	10688	5776
4849664	14464	11200
4980736	6048	3088
5111808	6912	4448
5242880	5648	1664
5373952	4480	2304
5505024	4448	2000
5636096	5456	2064
5767168	5184	2384
5898240	6272	2416
6029312	8016	3344
6160384	7776	5168
6291456	4672	2032
6422528	5904	3904
6553600	9808	5392
6684672	6592	5248
6815744	5488	3984
6946816	2640	1200
7077888	1872	992
7208960	3296	992
7340032	3216	1216
7471104	2848	976
7602176	2944	1328
7733248	2736	1152
7864320	3552	1664
7995392	3712	2640
8126464	2720	1040
8257536	2576	1360
8388608	5440	2000
8650752	3888	1344
8912896	8896	2480
9175040	5280	2736
9437184	6016	3440
9699328	4624	2608
9961472	3568	1744
10223616	2608	1472
10485760	2832	384
10747904	1936	768
11010048	2016	736
11272192	2432	624
11534336	3040	1552
11796480	1888	432
12058624	1680	640
12320768	3104	736
12582912	1520	640
12845056	1872	896
13107200	1744	608
13369344	1184	480
13631488	1552	192
13893632	1888	256
14155776	1296	400
14417920	2016	624
14680064	1216	544
14942208	800	352
15204352	1024	448
15466496	1136	432
15728640	1440	480
15990784	736	240
16252928	1456	304
16515072	2240	624
16777216	2752	752
17301504	1792	848
17825792	2560	640
18350080	3728	1296
18874368	2496	448
19398656	1904	640
19922944	1696	720
20447232	1728	704
20971520	1360	352
21495808	2400	320
22020096	1856	368
22544384	2240	304
23068672	1600	416
23592960	1600	928
24117248	1088	544
24641536	1456	912
25165824	1504	512
25690112	1584	528
26214400	2800	1216
26738688	1680	832
27262976	1536	1072
27787264	1824	624
28311552	1376	832
28835840	1648	672
29360128	1792	720
29884416	1184	624
30408704	1632	928
30932992	3136	1344
31457280	2336	544
31981568	2704	608
32505856	960	400
33030144	1440	464
33554432	3632	1040
34603008	3840	2112
35651584	1920	832
36700160	2048	1088
37748736	1264	496
38797312	1808	1392
39845888	448	112
40894464	1664	464
41943040	560	272
42991616	384	32
44040192	208	160
45088768	416	176
46137344	400	176
47185920	688	224
48234496	448	128
49283072	256	112
50331648	432	160
51380224	544	144
52428800	672	176
53477376	608	96
54525952	640	128
55574528	656	48
56623104	288	48
57671680	224	16
58720256	432	144
59768832	2016	944
60817408	1312	288
61865984	416	80
62914560	496	144
63963136	464	176
65011712	1072	336
66060288	192	96
67108864	1024	368
69206016	1584	720
71303168	640	160
73400320	688	272
75497472	400	96
77594624	256	96
79691776	1280	640
81788928	544	96
83886080	512	304
85983232	448	96
88080384	192	112
90177536	160	128
92274688	256	144
94371840	608	224
96468992	816	176
98566144	496	336
100663296	336	240
102760448	288	208
104857600	256	256
106954752	1056	560
109051904	336	160
111149056	160	64
113246208	144	96
115343360	112	112
117440512	80	64
119537664	144	144
121634816	176	144
123731968	96	80
125829120	112	80
127926272	96	64
130023424	80	80
132120576	400	112
134217728	320	112
138412032	384	368
142606336	464	272
146800640	224	144
150994944	128	80
155189248	624	464
159383552	192	128
163577856	496	320
167772160	320	288
171966464	560	176
176160768	1152	128
180355072	368	144
184549376	528	96
188743680	1904	368
192937984	192	144
197132288	128	128
201326592	1952	1936
205520896	4400	4336
209715200	256	256
213909504	368	368
218103808	320	320
222298112	560	544
226492416	2640	2624
230686720	2048	2048
234881024	304	304
239075328	2240	2240
243269632	2528	2528
247463936	336	336
251658240	2176	2176
255852544	4624	4624
260046848	320	320
264241152	128	128
268435456	1024	1024
276824064	6608	6608
285212672	6288	6288
293601280	3104	3104
301989888	288	256
310378496	256	256
318767104	0	0
327155712	0	0
335544320	16	16
343932928	16	0
352321536	0	0
360710144	0	0
369098752	0	0
377487360	0	0
385875968	0	0
394264576	0	0
402653184	0	0
411041792	0	0
419430400	0	0
427819008	0	0
436207616	0	0
444596224	0	0
452984832	0	0
461373440	0	0
469762048	0	0
478150656	0	0
486539264	0	0
494927872	0	0
503316480	0	0
511705088	0	0
520093696	0	0
528482304	0	0
536870912	0	0
553648128	0	0
570425344	0	0
587202560	0	0
603979776	0	0
620756992	0	0
637534208	0	0
654311424	0	0
671088640	0	0
687865856	0	0
704643072	0	0
721420288	0	0
738197504	0	0
754974720	0	0
771751936	0	0
788529152	0	0
805306368	0	0
822083584	0	0
838860800	0	0
855638016	0	0
872415232	0	0
889192448	0	0
905969664	0	0
922746880	0	0
939524096	0	0
956301312	0	0
973078528	0	0
989855744	0	0
1006632960	0	0
1023410176	0	0
1040187392	0	0
1056964608	0	0
1073741824	0	0
1107296256	0	0
1140850688	0	0
1174405120	0	0
1207959552	0	0
1241513984	0	0
1275068416	0	0
1308622848	0	0
1342177280	0	0
1375731712	0	0
1409286144	0	0
1442840576	0	0
1476395008	0	0
1509949440	0	0
1543503872	0	0
1577058304	0	0
1610612736	0	0
1644167168	0	0
1677721600	0	0
1711276032	0	0
1744830464	0	0
1778384896	0	0
1811939328	0	0
1845493760	0	0
1879048192	0	0
1912602624	0	0
1946157056	0	0
1979711488	0	0
2013265920	0	0
2046820352	0	0
2080374784	0	0
2113929216	0	0
2147483648	0	0
2214592512	0	0
2281701376	0	0
2348810240	0	0
2415919104	0	0
2483027968	0	0
2550136832	0	0
2617245696	0	0
2684354560	0	0
2751463424	0	0
2818572288	0	0
2885681152	0	0
2952790016	0	0
3019898880	0	0
3087007744	0	0
3154116608	0	0
3221225472	0	0
3288334336	0	0
3355443200	0	0
3422552064	0	0
3489660928	0	0
3556769792	0	0
3623878656	0	0
3690987520	0	0
3758096384	0	0
3825205248	0	0
3892314112	0	0
3959422976	0	0
4026531840	0	0
4093640704	0	0
4160749568	0	0
4227858432	0	0
~~~~~~~~~~Reuse Distance Profiler output end~~~~~~~~~~

Sampler size:17398

DRAM Statistics
 CHANNEL 0
 RQ ROW_BUFFER_HIT:     101048  ROW_BUFFER_MISS:     759525
 DBUS AVG_CONGESTED_CYCLE:    3.93123
 WQ ROW_BUFFER_HIT:     105500  ROW_BUFFER_MISS:     288970  FULL:          0


CPU 0 Branch Prediction Accuracy: 91.1145% MPKI: 19.3274 Average ROB Occupancy at Mispredict: 20.8299
Branch type MPKI
BRANCH_DIRECT_JUMP: 0.179073
BRANCH_INDIRECT: 0.754947
BRANCH_CONDITIONAL: 17.8551
BRANCH_DIRECT_CALL: 0.347153
BRANCH_INDIRECT_CALL: 0.0867813
BRANCH_RETURN: 0.10431

