
*** ChampSim Multicore Out-of-Order Simulator ***

Warmup Instructions: 50000000
Simulation Instructions: 1500000000
Number of CPUs: 1
Off-chip DRAM Size: 4 GiB Channels: 1 Width: 64-bit Data Rate: 3200 MT/s

VirtualMemory physical capacity: 8588881920 num_ppages: 2096895
VirtualMemory page size: 4096 log2_page_size: 12

CPU 0 runs /s/traces/champsim_traces/619.lbm_s-2677B.champsimtrace.xz
CPU 0 Bimodal branch predictor
Basic BTB sets: 1024 ways: 8 indirect buffer size: 4096 RAS size: 64
Initializing LRU.
Initializing LRU.
Initializing LRU.
Initializing LRU.
Initializing rdLRU.
Initializing LRU.
Initializing LRU.
Heartbeat CPU 0 instructions: 2000003 cycles: 531779 heartbeat IPC: 3.76097 cumulative IPC: 3.76097 (Simulation time: 0 hr 1 min 22 sec) 
Heartbeat CPU 0 instructions: 4000004 cycles: 1059033 heartbeat IPC: 3.79324 cumulative IPC: 3.77703 (Simulation time: 0 hr 2 min 39 sec) 
Heartbeat CPU 0 instructions: 6000003 cycles: 1594755 heartbeat IPC: 3.73328 cumulative IPC: 3.76234 (Simulation time: 0 hr 4 min 0 sec) 
Heartbeat CPU 0 instructions: 8000003 cycles: 2138156 heartbeat IPC: 3.68052 cumulative IPC: 3.74154 (Simulation time: 0 hr 5 min 23 sec) 
Heartbeat CPU 0 instructions: 10000001 cycles: 2673272 heartbeat IPC: 3.7375 cumulative IPC: 3.74073 (Simulation time: 0 hr 6 min 39 sec) 
Heartbeat CPU 0 instructions: 12000001 cycles: 3197299 heartbeat IPC: 3.8166 cumulative IPC: 3.75317 (Simulation time: 0 hr 7 min 53 sec) 
Heartbeat CPU 0 instructions: 14000000 cycles: 3732056 heartbeat IPC: 3.74001 cumulative IPC: 3.75128 (Simulation time: 0 hr 9 min 14 sec) 
Heartbeat CPU 0 instructions: 16000003 cycles: 4270889 heartbeat IPC: 3.71173 cumulative IPC: 3.74629 (Simulation time: 0 hr 10 min 34 sec) 
Heartbeat CPU 0 instructions: 18000001 cycles: 4805948 heartbeat IPC: 3.7379 cumulative IPC: 3.74536 (Simulation time: 0 hr 11 min 53 sec) 
Heartbeat CPU 0 instructions: 20000001 cycles: 5337414 heartbeat IPC: 3.76318 cumulative IPC: 3.74713 (Simulation time: 0 hr 13 min 10 sec) 
Heartbeat CPU 0 instructions: 22000003 cycles: 5868097 heartbeat IPC: 3.76873 cumulative IPC: 3.74909 (Simulation time: 0 hr 14 min 29 sec) 
Heartbeat CPU 0 instructions: 24000003 cycles: 6403803 heartbeat IPC: 3.73339 cumulative IPC: 3.74777 (Simulation time: 0 hr 15 min 49 sec) 
Heartbeat CPU 0 instructions: 26000000 cycles: 6943229 heartbeat IPC: 3.70764 cumulative IPC: 3.74466 (Simulation time: 0 hr 17 min 8 sec) 
Heartbeat CPU 0 instructions: 28000000 cycles: 7476206 heartbeat IPC: 3.75251 cumulative IPC: 3.74522 (Simulation time: 0 hr 18 min 28 sec) 
Heartbeat CPU 0 instructions: 30000001 cycles: 8011815 heartbeat IPC: 3.73407 cumulative IPC: 3.74447 (Simulation time: 0 hr 19 min 47 sec) 
Heartbeat CPU 0 instructions: 32000002 cycles: 8536245 heartbeat IPC: 3.81367 cumulative IPC: 3.74872 (Simulation time: 0 hr 21 min 3 sec) 
Heartbeat CPU 0 instructions: 34000000 cycles: 9074625 heartbeat IPC: 3.71484 cumulative IPC: 3.74671 (Simulation time: 0 hr 22 min 35 sec) 
Heartbeat CPU 0 instructions: 36000000 cycles: 9613382 heartbeat IPC: 3.71225 cumulative IPC: 3.74478 (Simulation time: 0 hr 23 min 48 sec) 
Heartbeat CPU 0 instructions: 38000000 cycles: 10145492 heartbeat IPC: 3.75862 cumulative IPC: 3.74551 (Simulation time: 0 hr 24 min 51 sec) 
Heartbeat CPU 0 instructions: 40000000 cycles: 10675684 heartbeat IPC: 3.77222 cumulative IPC: 3.74683 (Simulation time: 0 hr 26 min 7 sec) 
Heartbeat CPU 0 instructions: 42000001 cycles: 11209350 heartbeat IPC: 3.74766 cumulative IPC: 3.74687 (Simulation time: 0 hr 27 min 27 sec) 
Heartbeat CPU 0 instructions: 44000002 cycles: 11750209 heartbeat IPC: 3.69782 cumulative IPC: 3.74461 (Simulation time: 0 hr 28 min 48 sec) 
Heartbeat CPU 0 instructions: 46000001 cycles: 12280920 heartbeat IPC: 3.76853 cumulative IPC: 3.74565 (Simulation time: 0 hr 29 min 58 sec) 
Heartbeat CPU 0 instructions: 48000000 cycles: 12815772 heartbeat IPC: 3.73935 cumulative IPC: 3.74538 (Simulation time: 0 hr 31 min 12 sec) 
Heartbeat CPU 0 instructions: 50000002 cycles: 13348265 heartbeat IPC: 3.75592 cumulative IPC: 3.74581 (Simulation time: 0 hr 32 min 36 sec) 

Warmup complete CPU 0 instructions: 50000002 cycles: 13348265 (Simulation time: 0 hr 32 min 36 sec) 

Heartbeat CPU 0 instructions: 52000001 cycles: 22958243 heartbeat IPC: 0.208117 cumulative IPC: 0.208117 (Simulation time: 0 hr 41 min 36 sec) 

Region of Interest Statistics
cpu0_DTLB TOTAL     ACCESS:     361389  HIT:     358551  MISS:       2838
cpu0_DTLB LOAD      ACCESS:     158719  HIT:     158334  MISS:        385
cpu0_DTLB RFO       ACCESS:     202670  HIT:     200217  MISS:       2453
cpu0_DTLB PREFETCH  ACCESS:          0  HIT:          0  MISS:          0
cpu0_DTLB WRITEBACK ACCESS:          0  HIT:          0  MISS:          0
cpu0_ITLB TOTAL     ACCESS:      39851  HIT:      39851  MISS:          0
cpu0_ITLB LOAD      ACCESS:      39851  HIT:      39851  MISS:          0
cpu0_ITLB RFO       ACCESS:          0  HIT:          0  MISS:          0
cpu0_ITLB PREFETCH  ACCESS:          0  HIT:          0  MISS:          0
cpu0_ITLB WRITEBACK ACCESS:          0  HIT:          0  MISS:          0
cpu0_L1I TOTAL     ACCESS:      44826  HIT:      44826  MISS:          0
cpu0_L1I LOAD      ACCESS:      44826  HIT:      44826  MISS:          0
cpu0_L1I RFO       ACCESS:          0  HIT:          0  MISS:          0
cpu0_L1I PREFETCH  ACCESS:          0  HIT:          0  MISS:          0
cpu0_L1I WRITEBACK ACCESS:          0  HIT:          0  MISS:          0
cpu0_STLB TOTAL     ACCESS:       2838  HIT:       1299  MISS:       1539
cpu0_STLB LOAD      ACCESS:        385  HIT:          0  MISS:        385
cpu0_STLB RFO       ACCESS:       2453  HIT:       1299  MISS:       1154
cpu0_STLB PREFETCH  ACCESS:          0  HIT:          0  MISS:          0
cpu0_STLB WRITEBACK ACCESS:          0  HIT:          0  MISS:          0
cpu0_L1D TOTAL     ACCESS:     477021  HIT:     314570  MISS:     162451
cpu0_L1D LOAD      ACCESS:     112327  HIT:      87714  MISS:      24613
cpu0_L1D RFO       ACCESS:     363155  HIT:     225317  MISS:     137838
cpu0_L1D PREFETCH  ACCESS:          0  HIT:          0  MISS:          0
cpu0_L1D WRITEBACK ACCESS:          0  HIT:          0  MISS:          0
cpu0_L2C TOTAL     ACCESS:     300286  HIT:     138062  MISS:     162224
cpu0_L2C LOAD      ACCESS:      24613  HIT:          0  MISS:      24613
cpu0_L2C RFO       ACCESS:     137838  HIT:       1957  MISS:     135881
cpu0_L2C PREFETCH  ACCESS:          0  HIT:          0  MISS:          0
cpu0_L2C WRITEBACK ACCESS:     137835  HIT:     136105  MISS:       1730
LLC TOTAL     ACCESS:     296452  HIT:     198000  MISS:      98452
LLC LOAD      ACCESS:      24613  HIT:          1  MISS:      24612
LLC RFO       ACCESS:     135872  HIT:      62034  MISS:      73838
LLC PREFETCH  ACCESS:          0  HIT:          0  MISS:          0
LLC WRITEBACK ACCESS:     135967  HIT:     135965  MISS:          2
Heartbeat CPU 0 instructions: 54000001 cycles: 31313313 heartbeat IPC: 0.239376 cumulative IPC: 0.222655 (Simulation time: 0 hr 49 min 15 sec) 

Region of Interest Statistics
cpu0_DTLB TOTAL     ACCESS:     701707  HIT:     696443  MISS:       5264
cpu0_DTLB LOAD      ACCESS:     314784  HIT:     314069  MISS:        715
cpu0_DTLB RFO       ACCESS:     386923  HIT:     382374  MISS:       4549
cpu0_DTLB PREFETCH  ACCESS:          0  HIT:          0  MISS:          0
cpu0_DTLB WRITEBACK ACCESS:          0  HIT:          0  MISS:          0
cpu0_ITLB TOTAL     ACCESS:      71522  HIT:      71522  MISS:          0
cpu0_ITLB LOAD      ACCESS:      71522  HIT:      71522  MISS:          0
cpu0_ITLB RFO       ACCESS:          0  HIT:          0  MISS:          0
cpu0_ITLB PREFETCH  ACCESS:          0  HIT:          0  MISS:          0
cpu0_ITLB WRITEBACK ACCESS:          0  HIT:          0  MISS:          0
cpu0_L1I TOTAL     ACCESS:      87978  HIT:      87978  MISS:          0
cpu0_L1I LOAD      ACCESS:      87978  HIT:      87978  MISS:          0
cpu0_L1I RFO       ACCESS:          0  HIT:          0  MISS:          0
cpu0_L1I PREFETCH  ACCESS:          0  HIT:          0  MISS:          0
cpu0_L1I WRITEBACK ACCESS:          0  HIT:          0  MISS:          0
cpu0_STLB TOTAL     ACCESS:       5264  HIT:       2407  MISS:       2857
cpu0_STLB LOAD      ACCESS:        715  HIT:          0  MISS:        715
cpu0_STLB RFO       ACCESS:       4549  HIT:       2407  MISS:       2142
cpu0_STLB PREFETCH  ACCESS:          0  HIT:          0  MISS:          0
cpu0_STLB WRITEBACK ACCESS:          0  HIT:          0  MISS:          0
cpu0_L1D TOTAL     ACCESS:     937903  HIT:     636462  MISS:     301441
cpu0_L1D LOAD      ACCESS:     225296  HIT:     179609  MISS:      45687
cpu0_L1D RFO       ACCESS:     709750  HIT:     453998  MISS:     255752
cpu0_L1D PREFETCH  ACCESS:          0  HIT:          0  MISS:          0
cpu0_L1D WRITEBACK ACCESS:          0  HIT:          0  MISS:          0
cpu0_L2C TOTAL     ACCESS:     557205  HIT:     256750  MISS:     300455
cpu0_L2C LOAD      ACCESS:      45687  HIT:          0  MISS:      45687
cpu0_L2C RFO       ACCESS:     255752  HIT:       3968  MISS:     251784
cpu0_L2C PREFETCH  ACCESS:          0  HIT:          0  MISS:          0
cpu0_L2C WRITEBACK ACCESS:     255764  HIT:     252782  MISS:       2982
LLC TOTAL     ACCESS:     549290  HIT:     366602  MISS:     182688
LLC LOAD      ACCESS:      45687  HIT:          4  MISS:      45683
LLC RFO       ACCESS:     251759  HIT:     114764  MISS:     136995
LLC PREFETCH  ACCESS:          0  HIT:          0  MISS:          0
LLC WRITEBACK ACCESS:     251842  HIT:     251834  MISS:          8
Heartbeat CPU 0 instructions: 56000002 cycles: 41540464 heartbeat IPC: 0.195558 cumulative IPC: 0.212825 (Simulation time: 0 hr 58 min 50 sec) 

Region of Interest Statistics
cpu0_DTLB TOTAL     ACCESS:    1073191  HIT:    1064897  MISS:       8294
cpu0_DTLB LOAD      ACCESS:     475055  HIT:     473930  MISS:       1125
cpu0_DTLB RFO       ACCESS:     598136  HIT:     590967  MISS:       7169
cpu0_DTLB PREFETCH  ACCESS:          0  HIT:          0  MISS:          0
cpu0_DTLB WRITEBACK ACCESS:          0  HIT:          0  MISS:          0
cpu0_ITLB TOTAL     ACCESS:     115756  HIT:     115756  MISS:          0
cpu0_ITLB LOAD      ACCESS:     115756  HIT:     115756  MISS:          0
cpu0_ITLB RFO       ACCESS:          0  HIT:          0  MISS:          0
cpu0_ITLB PREFETCH  ACCESS:          0  HIT:          0  MISS:          0
cpu0_ITLB WRITEBACK ACCESS:          0  HIT:          0  MISS:          0
cpu0_L1I TOTAL     ACCESS:     132778  HIT:     132778  MISS:          0
cpu0_L1I LOAD      ACCESS:     132778  HIT:     132778  MISS:          0
cpu0_L1I RFO       ACCESS:          0  HIT:          0  MISS:          0
cpu0_L1I PREFETCH  ACCESS:          0  HIT:          0  MISS:          0
cpu0_L1I WRITEBACK ACCESS:          0  HIT:          0  MISS:          0
cpu0_STLB TOTAL     ACCESS:       8294  HIT:       3794  MISS:       4500
cpu0_STLB LOAD      ACCESS:       1125  HIT:          0  MISS:       1125
cpu0_STLB RFO       ACCESS:       7169  HIT:       3794  MISS:       3375
cpu0_STLB PREFETCH  ACCESS:          0  HIT:          0  MISS:          0
cpu0_STLB WRITEBACK ACCESS:          0  HIT:          0  MISS:          0
cpu0_L1D TOTAL     ACCESS:    1422346  HIT:     947359  MISS:     474987
cpu0_L1D LOAD      ACCESS:     337107  HIT:     265130  MISS:      71977
cpu0_L1D RFO       ACCESS:    1080739  HIT:     677731  MISS:     403008
cpu0_L1D PREFETCH  ACCESS:          0  HIT:          0  MISS:          0
cpu0_L1D WRITEBACK ACCESS:          0  HIT:          0  MISS:          0
cpu0_L2C TOTAL     ACCESS:     878001  HIT:     404529  MISS:     473472
cpu0_L2C LOAD      ACCESS:      71977  HIT:          0  MISS:      71977
cpu0_L2C RFO       ACCESS:     403008  HIT:       6582  MISS:     396426
cpu0_L2C PREFETCH  ACCESS:          0  HIT:          0  MISS:          0
cpu0_L2C WRITEBACK ACCESS:     403014  HIT:     397947  MISS:       5067
LLC TOTAL     ACCESS:     864803  HIT:     576940  MISS:     287863
LLC LOAD      ACCESS:      71977  HIT:          5  MISS:      71972
LLC RFO       ACCESS:     396385  HIT:     180505  MISS:     215880
LLC PREFETCH  ACCESS:          0  HIT:          0  MISS:          0
LLC WRITEBACK ACCESS:     396439  HIT:     396430  MISS:          9
Heartbeat CPU 0 instructions: 58000001 cycles: 50720045 heartbeat IPC: 0.217875 cumulative IPC: 0.214065 (Simulation time: 1 hr 7 min 12 sec) 

Region of Interest Statistics
cpu0_DTLB TOTAL     ACCESS:    1427743  HIT:    1416753  MISS:      10990
cpu0_DTLB LOAD      ACCESS:     633192  HIT:     631701  MISS:       1491
cpu0_DTLB RFO       ACCESS:     794551  HIT:     785052  MISS:       9499
cpu0_DTLB PREFETCH  ACCESS:          0  HIT:          0  MISS:          0
cpu0_DTLB WRITEBACK ACCESS:          0  HIT:          0  MISS:          0
cpu0_ITLB TOTAL     ACCESS:     153258  HIT:     153258  MISS:          0
cpu0_ITLB LOAD      ACCESS:     153258  HIT:     153258  MISS:          0
cpu0_ITLB RFO       ACCESS:          0  HIT:          0  MISS:          0
cpu0_ITLB PREFETCH  ACCESS:          0  HIT:          0  MISS:          0
cpu0_ITLB WRITEBACK ACCESS:          0  HIT:          0  MISS:          0
cpu0_L1I TOTAL     ACCESS:     176275  HIT:     176275  MISS:          0
cpu0_L1I LOAD      ACCESS:     176275  HIT:     176275  MISS:          0
cpu0_L1I RFO       ACCESS:          0  HIT:          0  MISS:          0
cpu0_L1I PREFETCH  ACCESS:          0  HIT:          0  MISS:          0
cpu0_L1I WRITEBACK ACCESS:          0  HIT:          0  MISS:          0
cpu0_STLB TOTAL     ACCESS:      10990  HIT:       5028  MISS:       5962
cpu0_STLB LOAD      ACCESS:       1491  HIT:          0  MISS:       1491
cpu0_STLB RFO       ACCESS:       9499  HIT:       5028  MISS:       4471
cpu0_STLB PREFETCH  ACCESS:          0  HIT:          0  MISS:          0
cpu0_STLB WRITEBACK ACCESS:          0  HIT:          0  MISS:          0
cpu0_L1D TOTAL     ACCESS:    1894194  HIT:    1264695  MISS:     629499
cpu0_L1D LOAD      ACCESS:     449733  HIT:     354349  MISS:      95384
cpu0_L1D RFO       ACCESS:    1438499  HIT:     904386  MISS:     534113
cpu0_L1D PREFETCH  ACCESS:          0  HIT:          0  MISS:          0
cpu0_L1D WRITEBACK ACCESS:          0  HIT:          0  MISS:          0
cpu0_L2C TOTAL     ACCESS:    1163613  HIT:     535256  MISS:     628357
cpu0_L2C LOAD      ACCESS:      95384  HIT:          0  MISS:      95384
cpu0_L2C RFO       ACCESS:     534113  HIT:       8347  MISS:     525766
cpu0_L2C PREFETCH  ACCESS:          0  HIT:          0  MISS:          0
cpu0_L2C WRITEBACK ACCESS:     534114  HIT:     526909  MISS:       7205
LLC TOTAL     ACCESS:    1146887  HIT:     765376  MISS:     381511
LLC LOAD      ACCESS:      95384  HIT:          6  MISS:      95378
LLC RFO       ACCESS:     525706  HIT:     239590  MISS:     286116
LLC PREFETCH  ACCESS:          0  HIT:          0  MISS:          0
LLC WRITEBACK ACCESS:     525795  HIT:     525780  MISS:         15
Heartbeat CPU 0 instructions: 60000001 cycles: 60103062 heartbeat IPC: 0.213151 cumulative IPC: 0.213882 (Simulation time: 1 hr 15 min 48 sec) 

Region of Interest Statistics
cpu0_DTLB TOTAL     ACCESS:    1785436  HIT:    1771689  MISS:      13747
cpu0_DTLB LOAD      ACCESS:     791865  HIT:     790000  MISS:       1865
cpu0_DTLB RFO       ACCESS:     993571  HIT:     981689  MISS:      11882
cpu0_DTLB PREFETCH  ACCESS:          0  HIT:          0  MISS:          0
cpu0_DTLB WRITEBACK ACCESS:          0  HIT:          0  MISS:          0
cpu0_ITLB TOTAL     ACCESS:     192391  HIT:     192391  MISS:          0
cpu0_ITLB LOAD      ACCESS:     192391  HIT:     192391  MISS:          0
cpu0_ITLB RFO       ACCESS:          0  HIT:          0  MISS:          0
cpu0_ITLB PREFETCH  ACCESS:          0  HIT:          0  MISS:          0
cpu0_ITLB WRITEBACK ACCESS:          0  HIT:          0  MISS:          0
cpu0_L1I TOTAL     ACCESS:     220002  HIT:     220002  MISS:          0
cpu0_L1I LOAD      ACCESS:     220002  HIT:     220002  MISS:          0
cpu0_L1I RFO       ACCESS:          0  HIT:          0  MISS:          0
cpu0_L1I PREFETCH  ACCESS:          0  HIT:          0  MISS:          0
cpu0_L1I WRITEBACK ACCESS:          0  HIT:          0  MISS:          0
cpu0_STLB TOTAL     ACCESS:      13747  HIT:       6289  MISS:       7458
cpu0_STLB LOAD      ACCESS:       1865  HIT:          0  MISS:       1865
cpu0_STLB RFO       ACCESS:      11882  HIT:       6289  MISS:       5593
cpu0_STLB PREFETCH  ACCESS:          0  HIT:          0  MISS:          0
cpu0_STLB WRITEBACK ACCESS:          0  HIT:          0  MISS:          0
cpu0_L1D TOTAL     ACCESS:    2368142  HIT:    1580732  MISS:     787410
cpu0_L1D LOAD      ACCESS:     562172  HIT:     442862  MISS:     119310
cpu0_L1D RFO       ACCESS:    1798512  HIT:    1130414  MISS:     668098
cpu0_L1D PREFETCH  ACCESS:          0  HIT:          0  MISS:          0
cpu0_L1D WRITEBACK ACCESS:          0  HIT:          0  MISS:          0
cpu0_L2C TOTAL     ACCESS:    1455508  HIT:     670398  MISS:     785110
cpu0_L2C LOAD      ACCESS:     119311  HIT:          0  MISS:     119311
cpu0_L2C RFO       ACCESS:     668098  HIT:      10621  MISS:     657477
cpu0_L2C PREFETCH  ACCESS:          0  HIT:          0  MISS:          0
cpu0_L2C WRITEBACK ACCESS:     668097  HIT:     659777  MISS:       8320
LLC TOTAL     ACCESS:    1434225  HIT:     957009  MISS:     477216
LLC LOAD      ACCESS:     119311  HIT:          6  MISS:     119305
LLC RFO       ACCESS:     657408  HIT:     299518  MISS:     357890
LLC PREFETCH  ACCESS:          0  HIT:          0  MISS:          0
LLC WRITEBACK ACCESS:     657504  HIT:     657485  MISS:         19
Heartbeat CPU 0 instructions: 62000004 cycles: 69148555 heartbeat IPC: 0.221105 cumulative IPC: 0.215053 (Simulation time: 1 hr 24 min 4 sec) 

Region of Interest Statistics
cpu0_DTLB TOTAL     ACCESS:    2136654  HIT:    2120268  MISS:      16386
cpu0_DTLB LOAD      ACCESS:     949142  HIT:     946919  MISS:       2223
cpu0_DTLB RFO       ACCESS:    1187512  HIT:    1173349  MISS:      14163
cpu0_DTLB PREFETCH  ACCESS:          0  HIT:          0  MISS:          0
cpu0_DTLB WRITEBACK ACCESS:          0  HIT:          0  MISS:          0
cpu0_ITLB TOTAL     ACCESS:     229481  HIT:     229481  MISS:          0
cpu0_ITLB LOAD      ACCESS:     229481  HIT:     229481  MISS:          0
cpu0_ITLB RFO       ACCESS:          0  HIT:          0  MISS:          0
cpu0_ITLB PREFETCH  ACCESS:          0  HIT:          0  MISS:          0
cpu0_ITLB WRITEBACK ACCESS:          0  HIT:          0  MISS:          0
cpu0_L1I TOTAL     ACCESS:     262109  HIT:     262109  MISS:          0
cpu0_L1I LOAD      ACCESS:     262109  HIT:     262109  MISS:          0
cpu0_L1I RFO       ACCESS:          0  HIT:          0  MISS:          0
cpu0_L1I PREFETCH  ACCESS:          0  HIT:          0  MISS:          0
cpu0_L1I WRITEBACK ACCESS:          0  HIT:          0  MISS:          0
cpu0_STLB TOTAL     ACCESS:      16386  HIT:       7496  MISS:       8890
cpu0_STLB LOAD      ACCESS:       2223  HIT:          0  MISS:       2223
cpu0_STLB RFO       ACCESS:      14163  HIT:       7496  MISS:       6667
cpu0_STLB PREFETCH  ACCESS:          0  HIT:          0  MISS:          0
cpu0_STLB WRITEBACK ACCESS:          0  HIT:          0  MISS:          0
cpu0_L1D TOTAL     ACCESS:    2836838  HIT:    1898299  MISS:     938539
cpu0_L1D LOAD      ACCESS:     674609  HIT:     532398  MISS:     142211
cpu0_L1D RFO       ACCESS:    2153339  HIT:    1357013  MISS:     796326
cpu0_L1D PREFETCH  ACCESS:          0  HIT:          0  MISS:          0
cpu0_L1D WRITEBACK ACCESS:          0  HIT:          0  MISS:          0
cpu0_L2C TOTAL     ACCESS:    1734864  HIT:     798171  MISS:     936693
cpu0_L2C LOAD      ACCESS:     142211  HIT:          0  MISS:     142211
cpu0_L2C RFO       ACCESS:     796326  HIT:      12117  MISS:     784209
cpu0_L2C PREFETCH  ACCESS:          0  HIT:          0  MISS:          0
cpu0_L2C WRITEBACK ACCESS:     796325  HIT:     786054  MISS:      10271
LLC TOTAL     ACCESS:    1710643  HIT:    1141832  MISS:     568811
LLC LOAD      ACCESS:     142211  HIT:          7  MISS:     142204
LLC RFO       ACCESS:     784140  HIT:     357558  MISS:     426582
LLC PREFETCH  ACCESS:          0  HIT:          0  MISS:          0
LLC WRITEBACK ACCESS:     784290  HIT:     784267  MISS:         23
Heartbeat CPU 0 instructions: 64000003 cycles: 78899386 heartbeat IPC: 0.205111 cumulative IPC: 0.213574 (Simulation time: 1 hr 33 min 11 sec) 

Region of Interest Statistics
cpu0_DTLB TOTAL     ACCESS:    2500521  HIT:    2481264  MISS:      19257
cpu0_DTLB LOAD      ACCESS:    1108719  HIT:    1106106  MISS:       2613
cpu0_DTLB RFO       ACCESS:    1391802  HIT:    1375158  MISS:      16644
cpu0_DTLB PREFETCH  ACCESS:          0  HIT:          0  MISS:          0
cpu0_DTLB WRITEBACK ACCESS:          0  HIT:          0  MISS:          0
cpu0_ITLB TOTAL     ACCESS:     269911  HIT:     269911  MISS:          0
cpu0_ITLB LOAD      ACCESS:     269911  HIT:     269911  MISS:          0
cpu0_ITLB RFO       ACCESS:          0  HIT:          0  MISS:          0
cpu0_ITLB PREFETCH  ACCESS:          0  HIT:          0  MISS:          0
cpu0_ITLB WRITEBACK ACCESS:          0  HIT:          0  MISS:          0
cpu0_L1I TOTAL     ACCESS:     307212  HIT:     307212  MISS:          0
cpu0_L1I LOAD      ACCESS:     307212  HIT:     307212  MISS:          0
cpu0_L1I RFO       ACCESS:          0  HIT:          0  MISS:          0
cpu0_L1I PREFETCH  ACCESS:          0  HIT:          0  MISS:          0
cpu0_L1I WRITEBACK ACCESS:          0  HIT:          0  MISS:          0
cpu0_STLB TOTAL     ACCESS:      19257  HIT:       8807  MISS:      10450
cpu0_STLB LOAD      ACCESS:       2613  HIT:          0  MISS:       2613
cpu0_STLB RFO       ACCESS:      16644  HIT:       8807  MISS:       7837
cpu0_STLB PREFETCH  ACCESS:          0  HIT:          0  MISS:          0
cpu0_STLB WRITEBACK ACCESS:          0  HIT:          0  MISS:          0
cpu0_L1D TOTAL     ACCESS:    3315319  HIT:    2212199  MISS:    1103120
cpu0_L1D LOAD      ACCESS:     786964  HIT:     619815  MISS:     167149
cpu0_L1D RFO       ACCESS:    2518208  HIT:    1582241  MISS:     935967
cpu0_L1D PREFETCH  ACCESS:          0  HIT:          0  MISS:          0
cpu0_L1D WRITEBACK ACCESS:          0  HIT:          0  MISS:          0
cpu0_L2C TOTAL     ACCESS:    2039085  HIT:     938209  MISS:    1100876
cpu0_L2C LOAD      ACCESS:     167149  HIT:          0  MISS:     167149
cpu0_L2C RFO       ACCESS:     935967  HIT:      14709  MISS:     921258
cpu0_L2C PREFETCH  ACCESS:          0  HIT:          0  MISS:          0
cpu0_L2C WRITEBACK ACCESS:     935965  HIT:     923500  MISS:      12465
LLC TOTAL     ACCESS:    2009641  HIT:    1341086  MISS:     668555
LLC LOAD      ACCESS:     167149  HIT:          9  MISS:     167140
LLC RFO       ACCESS:     921161  HIT:     419775  MISS:     501386
LLC PREFETCH  ACCESS:          0  HIT:          0  MISS:          0
LLC WRITEBACK ACCESS:     921327  HIT:     921302  MISS:         25
Heartbeat CPU 0 instructions: 66000000 cycles: 88069179 heartbeat IPC: 0.218107 cumulative IPC: 0.21413 (Simulation time: 1 hr 41 min 33 sec) 

Region of Interest Statistics
cpu0_DTLB TOTAL     ACCESS:    2855264  HIT:    2833306  MISS:      21958
cpu0_DTLB LOAD      ACCESS:    1266845  HIT:    1263865  MISS:       2980
cpu0_DTLB RFO       ACCESS:    1588419  HIT:    1569441  MISS:      18978
cpu0_DTLB PREFETCH  ACCESS:          0  HIT:          0  MISS:          0
cpu0_DTLB WRITEBACK ACCESS:          0  HIT:          0  MISS:          0
cpu0_ITLB TOTAL     ACCESS:     306827  HIT:     306827  MISS:          0
cpu0_ITLB LOAD      ACCESS:     306827  HIT:     306827  MISS:          0
cpu0_ITLB RFO       ACCESS:          0  HIT:          0  MISS:          0
cpu0_ITLB PREFETCH  ACCESS:          0  HIT:          0  MISS:          0
cpu0_ITLB WRITEBACK ACCESS:          0  HIT:          0  MISS:          0
cpu0_L1I TOTAL     ACCESS:     351639  HIT:     351639  MISS:          0
cpu0_L1I LOAD      ACCESS:     351639  HIT:     351639  MISS:          0
cpu0_L1I RFO       ACCESS:          0  HIT:          0  MISS:          0
cpu0_L1I PREFETCH  ACCESS:          0  HIT:          0  MISS:          0
cpu0_L1I WRITEBACK ACCESS:          0  HIT:          0  MISS:          0
cpu0_STLB TOTAL     ACCESS:      21958  HIT:      10042  MISS:      11916
cpu0_STLB LOAD      ACCESS:       2980  HIT:          0  MISS:       2980
cpu0_STLB RFO       ACCESS:      18978  HIT:      10042  MISS:       8936
cpu0_STLB PREFETCH  ACCESS:          0  HIT:          0  MISS:          0
cpu0_STLB WRITEBACK ACCESS:          0  HIT:          0  MISS:          0
cpu0_L1D TOTAL     ACCESS:    3786822  HIT:    2528895  MISS:    1257927
cpu0_L1D LOAD      ACCESS:     899507  HIT:     708903  MISS:     190604
cpu0_L1D RFO       ACCESS:    2876062  HIT:    1808743  MISS:    1067319
cpu0_L1D PREFETCH  ACCESS:          0  HIT:          0  MISS:          0
cpu0_L1D WRITEBACK ACCESS:          0  HIT:          0  MISS:          0
cpu0_L2C TOTAL     ACCESS:    2325244  HIT:    1069536  MISS:    1255708
cpu0_L2C LOAD      ACCESS:     190604  HIT:          0  MISS:     190604
cpu0_L2C RFO       ACCESS:    1067319  HIT:      17335  MISS:    1049984
cpu0_L2C PREFETCH  ACCESS:          0  HIT:          0  MISS:          0
cpu0_L2C WRITEBACK ACCESS:    1067317  HIT:    1052201  MISS:      15116
LLC TOTAL     ACCESS:    2290558  HIT:    1528180  MISS:     762378
LLC LOAD      ACCESS:     190604  HIT:          9  MISS:     190595
LLC RFO       ACCESS:    1049872  HIT:     478120  MISS:     571752
LLC PREFETCH  ACCESS:          0  HIT:          0  MISS:          0
LLC WRITEBACK ACCESS:    1050078  HIT:    1050051  MISS:         27
Heartbeat CPU 0 instructions: 68000003 cycles: 97101803 heartbeat IPC: 0.22142 cumulative IPC: 0.214916 (Simulation time: 1 hr 49 min 47 sec) 

Region of Interest Statistics
cpu0_DTLB TOTAL     ACCESS:    3206400  HIT:    3181813  MISS:      24587
cpu0_DTLB LOAD      ACCESS:    1424655  HIT:    1421319  MISS:       3336
cpu0_DTLB RFO       ACCESS:    1781745  HIT:    1760494  MISS:      21251
cpu0_DTLB PREFETCH  ACCESS:          0  HIT:          0  MISS:          0
cpu0_DTLB WRITEBACK ACCESS:          0  HIT:          0  MISS:          0
cpu0_ITLB TOTAL     ACCESS:     342872  HIT:     342872  MISS:          0
cpu0_ITLB LOAD      ACCESS:     342872  HIT:     342872  MISS:          0
cpu0_ITLB RFO       ACCESS:          0  HIT:          0  MISS:          0
cpu0_ITLB PREFETCH  ACCESS:          0  HIT:          0  MISS:          0
cpu0_ITLB WRITEBACK ACCESS:          0  HIT:          0  MISS:          0
cpu0_L1I TOTAL     ACCESS:     394843  HIT:     394843  MISS:          0
cpu0_L1I LOAD      ACCESS:     394843  HIT:     394843  MISS:          0
cpu0_L1I RFO       ACCESS:          0  HIT:          0  MISS:          0
cpu0_L1I PREFETCH  ACCESS:          0  HIT:          0  MISS:          0
cpu0_L1I WRITEBACK ACCESS:          0  HIT:          0  MISS:          0
cpu0_STLB TOTAL     ACCESS:      24587  HIT:      11247  MISS:      13340
cpu0_STLB LOAD      ACCESS:       3336  HIT:          0  MISS:       3336
cpu0_STLB RFO       ACCESS:      21251  HIT:      11247  MISS:      10004
cpu0_STLB PREFETCH  ACCESS:          0  HIT:          0  MISS:          0
cpu0_STLB WRITEBACK ACCESS:          0  HIT:          0  MISS:          0
cpu0_L1D TOTAL     ACCESS:    4255533  HIT:    2847118  MISS:    1408415
cpu0_L1D LOAD      ACCESS:    1012332  HIT:     798926  MISS:     213406
cpu0_L1D RFO       ACCESS:    3230814  HIT:    2035810  MISS:    1195004
cpu0_L1D PREFETCH  ACCESS:          0  HIT:          0  MISS:          0
cpu0_L1D WRITEBACK ACCESS:          0  HIT:          0  MISS:          0
cpu0_L2C TOTAL     ACCESS:    2603417  HIT:    1198022  MISS:    1405395
cpu0_L2C LOAD      ACCESS:     213406  HIT:          0  MISS:     213406
cpu0_L2C RFO       ACCESS:    1195004  HIT:      19785  MISS:    1175219
cpu0_L2C PREFETCH  ACCESS:          0  HIT:          0  MISS:          0
cpu0_L2C WRITEBACK ACCESS:    1195002  HIT:    1178237  MISS:      16765
LLC TOTAL     ACCESS:    2563785  HIT:    1710199  MISS:     853586
LLC LOAD      ACCESS:     213406  HIT:          9  MISS:     213397
LLC RFO       ACCESS:    1175083  HIT:     534931  MISS:     640152
LLC PREFETCH  ACCESS:          0  HIT:          0  MISS:          0
LLC WRITEBACK ACCESS:    1175291  HIT:    1175259  MISS:         32
Heartbeat CPU 0 instructions: 70000000 cycles: 106324373 heartbeat IPC: 0.216859 cumulative IPC: 0.215109 (Simulation time: 1 hr 58 min 5 sec) 

Region of Interest Statistics
cpu0_DTLB TOTAL     ACCESS:    3560963  HIT:    3533667  MISS:      27296
cpu0_DTLB LOAD      ACCESS:    1582273  HIT:    1578570  MISS:       3703
cpu0_DTLB RFO       ACCESS:    1978690  HIT:    1955097  MISS:      23593
cpu0_DTLB PREFETCH  ACCESS:          0  HIT:          0  MISS:          0
cpu0_DTLB WRITEBACK ACCESS:          0  HIT:          0  MISS:          0
cpu0_ITLB TOTAL     ACCESS:     381652  HIT:     381652  MISS:          0
cpu0_ITLB LOAD      ACCESS:     381652  HIT:     381652  MISS:          0
cpu0_ITLB RFO       ACCESS:          0  HIT:          0  MISS:          0
cpu0_ITLB PREFETCH  ACCESS:          0  HIT:          0  MISS:          0
cpu0_ITLB WRITEBACK ACCESS:          0  HIT:          0  MISS:          0
cpu0_L1I TOTAL     ACCESS:     437112  HIT:     437112  MISS:          0
cpu0_L1I LOAD      ACCESS:     437112  HIT:     437112  MISS:          0
cpu0_L1I RFO       ACCESS:          0  HIT:          0  MISS:          0
cpu0_L1I PREFETCH  ACCESS:          0  HIT:          0  MISS:          0
cpu0_L1I WRITEBACK ACCESS:          0  HIT:          0  MISS:          0
cpu0_STLB TOTAL     ACCESS:      27296  HIT:      12486  MISS:      14810
cpu0_STLB LOAD      ACCESS:       3703  HIT:          0  MISS:       3703
cpu0_STLB RFO       ACCESS:      23593  HIT:      12486  MISS:      11107
cpu0_STLB PREFETCH  ACCESS:          0  HIT:          0  MISS:          0
cpu0_STLB WRITEBACK ACCESS:          0  HIT:          0  MISS:          0
cpu0_L1D TOTAL     ACCESS:    4727012  HIT:    3163442  MISS:    1563570
cpu0_L1D LOAD      ACCESS:    1124647  HIT:     887733  MISS:     236914
cpu0_L1D RFO       ACCESS:    3588508  HIT:    2261858  MISS:    1326650
cpu0_L1D PREFETCH  ACCESS:          0  HIT:          0  MISS:          0
cpu0_L1D WRITEBACK ACCESS:          0  HIT:          0  MISS:          0
cpu0_L2C TOTAL     ACCESS:    2890218  HIT:    1330514  MISS:    1559704
cpu0_L2C LOAD      ACCESS:     236914  HIT:          0  MISS:     236914
cpu0_L2C RFO       ACCESS:    1326650  HIT:      21847  MISS:    1304803
cpu0_L2C PREFETCH  ACCESS:          0  HIT:          0  MISS:          0
cpu0_L2C WRITEBACK ACCESS:    1326648  HIT:    1308667  MISS:      17981
LLC TOTAL     ACCESS:    2846504  HIT:    1898885  MISS:     947619
LLC LOAD      ACCESS:     236914  HIT:          9  MISS:     236905
LLC RFO       ACCESS:    1304641  HIT:     593965  MISS:     710676
LLC PREFETCH  ACCESS:          0  HIT:          0  MISS:          0
LLC WRITEBACK ACCESS:    1304943  HIT:    1304911  MISS:         32
Heartbeat CPU 0 instructions: 72000003 cycles: 115696109 heartbeat IPC: 0.213408 cumulative IPC: 0.214953 (Simulation time: 2 hr 6 min 39 sec) 

Region of Interest Statistics
cpu0_DTLB TOTAL     ACCESS:    3918576  HIT:    3888534  MISS:      30042
cpu0_DTLB LOAD      ACCESS:    1741335  HIT:    1737258  MISS:       4077
cpu0_DTLB RFO       ACCESS:    2177241  HIT:    2151276  MISS:      25965
cpu0_DTLB PREFETCH  ACCESS:          0  HIT:          0  MISS:          0
cpu0_DTLB WRITEBACK ACCESS:          0  HIT:          0  MISS:          0
cpu0_ITLB TOTAL     ACCESS:     419344  HIT:     419344  MISS:          0
cpu0_ITLB LOAD      ACCESS:     419344  HIT:     419344  MISS:          0
cpu0_ITLB RFO       ACCESS:          0  HIT:          0  MISS:          0
cpu0_ITLB PREFETCH  ACCESS:          0  HIT:          0  MISS:          0
cpu0_ITLB WRITEBACK ACCESS:          0  HIT:          0  MISS:          0
cpu0_L1I TOTAL     ACCESS:     482690  HIT:     482690  MISS:          0
cpu0_L1I LOAD      ACCESS:     482690  HIT:     482690  MISS:          0
cpu0_L1I RFO       ACCESS:          0  HIT:          0  MISS:          0
cpu0_L1I PREFETCH  ACCESS:          0  HIT:          0  MISS:          0
cpu0_L1I WRITEBACK ACCESS:          0  HIT:          0  MISS:          0
cpu0_STLB TOTAL     ACCESS:      30042  HIT:      13740  MISS:      16302
cpu0_STLB LOAD      ACCESS:       4077  HIT:          0  MISS:       4077
cpu0_STLB RFO       ACCESS:      25965  HIT:      13740  MISS:      12225
cpu0_STLB PREFETCH  ACCESS:          0  HIT:          0  MISS:          0
cpu0_STLB WRITEBACK ACCESS:          0  HIT:          0  MISS:          0
cpu0_L1D TOTAL     ACCESS:    5200922  HIT:    3479923  MISS:    1720999
cpu0_L1D LOAD      ACCESS:    1237207  HIT:     976437  MISS:     260770
cpu0_L1D RFO       ACCESS:    3948366  HIT:    2488145  MISS:    1460221
cpu0_L1D PREFETCH  ACCESS:          0  HIT:          0  MISS:          0
cpu0_L1D WRITEBACK ACCESS:          0  HIT:          0  MISS:          0
cpu0_L2C TOTAL     ACCESS:    3181222  HIT:    1464384  MISS:    1716838
cpu0_L2C LOAD      ACCESS:     260770  HIT:          0  MISS:     260770
cpu0_L2C RFO       ACCESS:    1460221  HIT:      23962  MISS:    1436259
cpu0_L2C PREFETCH  ACCESS:          0  HIT:          0  MISS:          0
cpu0_L2C WRITEBACK ACCESS:    1460223  HIT:    1440422  MISS:      19801
LLC TOTAL     ACCESS:    3133183  HIT:    2090153  MISS:    1043030
LLC LOAD      ACCESS:     260770  HIT:         12  MISS:     260758
LLC RFO       ACCESS:    1436077  HIT:     653851  MISS:     782226
LLC PREFETCH  ACCESS:          0  HIT:          0  MISS:          0
LLC WRITEBACK ACCESS:    1436328  HIT:    1436290  MISS:         38
Heartbeat CPU 0 instructions: 74000004 cycles: 125455779 heartbeat IPC: 0.204925 cumulative IPC: 0.21408 (Simulation time: 2 hr 15 min 28 sec) 

Region of Interest Statistics
cpu0_DTLB TOTAL     ACCESS:    4283066  HIT:    4250141  MISS:      32925
cpu0_DTLB LOAD      ACCESS:    1901105  HIT:    1896637  MISS:       4468
cpu0_DTLB RFO       ACCESS:    2381961  HIT:    2353504  MISS:      28457
cpu0_DTLB PREFETCH  ACCESS:          0  HIT:          0  MISS:          0
cpu0_DTLB WRITEBACK ACCESS:          0  HIT:          0  MISS:          0
cpu0_ITLB TOTAL     ACCESS:     459772  HIT:     459772  MISS:          0
cpu0_ITLB LOAD      ACCESS:     459772  HIT:     459772  MISS:          0
cpu0_ITLB RFO       ACCESS:          0  HIT:          0  MISS:          0
cpu0_ITLB PREFETCH  ACCESS:          0  HIT:          0  MISS:          0
cpu0_ITLB WRITEBACK ACCESS:          0  HIT:          0  MISS:          0
cpu0_L1I TOTAL     ACCESS:     527857  HIT:     527857  MISS:          0
cpu0_L1I LOAD      ACCESS:     527857  HIT:     527857  MISS:          0
cpu0_L1I RFO       ACCESS:          0  HIT:          0  MISS:          0
cpu0_L1I PREFETCH  ACCESS:          0  HIT:          0  MISS:          0
cpu0_L1I WRITEBACK ACCESS:          0  HIT:          0  MISS:          0
cpu0_STLB TOTAL     ACCESS:      32925  HIT:      15059  MISS:      17866
cpu0_STLB LOAD      ACCESS:       4468  HIT:          0  MISS:       4468
cpu0_STLB RFO       ACCESS:      28457  HIT:      15059  MISS:      13398
cpu0_STLB PREFETCH  ACCESS:          0  HIT:          0  MISS:          0
cpu0_STLB WRITEBACK ACCESS:          0  HIT:          0  MISS:          0
cpu0_L1D TOTAL     ACCESS:    5679953  HIT:    3793804  MISS:    1886149
cpu0_L1D LOAD      ACCESS:    1349399  HIT:    1063602  MISS:     285797
cpu0_L1D RFO       ACCESS:    4313641  HIT:    2713297  MISS:    1600344
cpu0_L1D PREFETCH  ACCESS:          0  HIT:          0  MISS:          0
cpu0_L1D WRITEBACK ACCESS:          0  HIT:          0  MISS:          0
cpu0_L2C TOTAL     ACCESS:    3486496  HIT:    1605409  MISS:    1881087
cpu0_L2C LOAD      ACCESS:     285797  HIT:          0  MISS:     285797
cpu0_L2C RFO       ACCESS:    1600344  HIT:      25924  MISS:    1574420
cpu0_L2C PREFETCH  ACCESS:          0  HIT:          0  MISS:          0
cpu0_L2C WRITEBACK ACCESS:    1600347  HIT:    1579485  MISS:      20862
LLC TOTAL     ACCESS:    3434567  HIT:    2291448  MISS:    1143119
LLC LOAD      ACCESS:     285797  HIT:         12  MISS:     285785
LLC RFO       ACCESS:    1574233  HIT:     716945  MISS:     857288
LLC PREFETCH  ACCESS:          0  HIT:          0  MISS:          0
LLC WRITEBACK ACCESS:    1574529  HIT:    1574491  MISS:         38
Heartbeat CPU 0 instructions: 76000003 cycles: 134374111 heartbeat IPC: 0.224257 cumulative IPC: 0.21483 (Simulation time: 2 hr 23 min 26 sec) 

Region of Interest Statistics
cpu0_DTLB TOTAL     ACCESS:    4632335  HIT:    4596807  MISS:      35528
cpu0_DTLB LOAD      ACCESS:    2058107  HIT:    2053286  MISS:       4821
cpu0_DTLB RFO       ACCESS:    2574228  HIT:    2543521  MISS:      30707
cpu0_DTLB PREFETCH  ACCESS:          0  HIT:          0  MISS:          0
cpu0_DTLB WRITEBACK ACCESS:          0  HIT:          0  MISS:          0
cpu0_ITLB TOTAL     ACCESS:     495746  HIT:     495746  MISS:          0
cpu0_ITLB LOAD      ACCESS:     495746  HIT:     495746  MISS:          0
cpu0_ITLB RFO       ACCESS:          0  HIT:          0  MISS:          0
cpu0_ITLB PREFETCH  ACCESS:          0  HIT:          0  MISS:          0
cpu0_ITLB WRITEBACK ACCESS:          0  HIT:          0  MISS:          0
cpu0_L1I TOTAL     ACCESS:     570687  HIT:     570687  MISS:          0
cpu0_L1I LOAD      ACCESS:     570687  HIT:     570687  MISS:          0
cpu0_L1I RFO       ACCESS:          0  HIT:          0  MISS:          0
cpu0_L1I PREFETCH  ACCESS:          0  HIT:          0  MISS:          0
cpu0_L1I WRITEBACK ACCESS:          0  HIT:          0  MISS:          0
cpu0_STLB TOTAL     ACCESS:      35528  HIT:      16250  MISS:      19278
cpu0_STLB LOAD      ACCESS:       4821  HIT:          0  MISS:       4821
cpu0_STLB RFO       ACCESS:      30707  HIT:      16250  MISS:      14457
cpu0_STLB PREFETCH  ACCESS:          0  HIT:          0  MISS:          0
cpu0_STLB WRITEBACK ACCESS:          0  HIT:          0  MISS:          0
cpu0_L1D TOTAL     ACCESS:    6147231  HIT:    4111973  MISS:    2035258
cpu0_L1D LOAD      ACCESS:    1461876  HIT:    1153491  MISS:     308385
cpu0_L1D RFO       ACCESS:    4667030  HIT:    2940165  MISS:    1726865
cpu0_L1D PREFETCH  ACCESS:          0  HIT:          0  MISS:          0
cpu0_L1D WRITEBACK ACCESS:          0  HIT:          0  MISS:          0
cpu0_L2C TOTAL     ACCESS:    3762124  HIT:    1732165  MISS:    2029959
cpu0_L2C LOAD      ACCESS:     308385  HIT:          0  MISS:     308385
cpu0_L2C RFO       ACCESS:    1726865  HIT:      28047  MISS:    1698818
cpu0_L2C PREFETCH  ACCESS:          0  HIT:          0  MISS:          0
cpu0_L2C WRITEBACK ACCESS:    1726866  HIT:    1704118  MISS:      22748
LLC TOTAL     ACCESS:    3705930  HIT:    2472440  MISS:    1233490
LLC LOAD      ACCESS:     308385  HIT:         12  MISS:     308373
LLC RFO       ACCESS:    1698622  HIT:     773551  MISS:     925071
LLC PREFETCH  ACCESS:          0  HIT:          0  MISS:          0
LLC WRITEBACK ACCESS:    1698915  HIT:    1698877  MISS:         38
Heartbeat CPU 0 instructions: 78000001 cycles: 143713274 heartbeat IPC: 0.214152 cumulative IPC: 0.214782 (Simulation time: 2 hr 31 min 46 sec) 

Region of Interest Statistics
cpu0_DTLB TOTAL     ACCESS:    4988743  HIT:    4950480  MISS:      38263
cpu0_DTLB LOAD      ACCESS:    2216519  HIT:    2211327  MISS:       5192
cpu0_DTLB RFO       ACCESS:    2772224  HIT:    2739153  MISS:      33071
cpu0_DTLB PREFETCH  ACCESS:          0  HIT:          0  MISS:          0
cpu0_DTLB WRITEBACK ACCESS:          0  HIT:          0  MISS:          0
cpu0_ITLB TOTAL     ACCESS:     534454  HIT:     534454  MISS:          0
cpu0_ITLB LOAD      ACCESS:     534454  HIT:     534454  MISS:          0
cpu0_ITLB RFO       ACCESS:          0  HIT:          0  MISS:          0
cpu0_ITLB PREFETCH  ACCESS:          0  HIT:          0  MISS:          0
cpu0_ITLB WRITEBACK ACCESS:          0  HIT:          0  MISS:          0
cpu0_L1I TOTAL     ACCESS:     613719  HIT:     613719  MISS:          0
cpu0_L1I LOAD      ACCESS:     613719  HIT:     613719  MISS:          0
cpu0_L1I RFO       ACCESS:          0  HIT:          0  MISS:          0
cpu0_L1I PREFETCH  ACCESS:          0  HIT:          0  MISS:          0
cpu0_L1I WRITEBACK ACCESS:          0  HIT:          0  MISS:          0
cpu0_STLB TOTAL     ACCESS:      38263  HIT:      17501  MISS:      20762
cpu0_STLB LOAD      ACCESS:       5192  HIT:          0  MISS:       5192
cpu0_STLB RFO       ACCESS:      33071  HIT:      17501  MISS:      15570
cpu0_STLB PREFETCH  ACCESS:          0  HIT:          0  MISS:          0
cpu0_STLB WRITEBACK ACCESS:          0  HIT:          0  MISS:          0
cpu0_L1D TOTAL     ACCESS:    6620819  HIT:    4428937  MISS:    2191882
cpu0_L1D LOAD      ACCESS:    1574607  HIT:    1242490  MISS:     332117
cpu0_L1D RFO       ACCESS:    5026403  HIT:    3166646  MISS:    1859757
cpu0_L1D PREFETCH  ACCESS:          0  HIT:          0  MISS:          0
cpu0_L1D WRITEBACK ACCESS:          0  HIT:          0  MISS:          0
cpu0_L2C TOTAL     ACCESS:    4051639  HIT:    1865769  MISS:    2185870
cpu0_L2C LOAD      ACCESS:     332117  HIT:          0  MISS:     332117
cpu0_L2C RFO       ACCESS:    1859757  HIT:      29998  MISS:    1829759
cpu0_L2C PREFETCH  ACCESS:          0  HIT:          0  MISS:          0
cpu0_L2C WRITEBACK ACCESS:    1859757  HIT:    1835771  MISS:      23986
LLC TOTAL     ACCESS:    3991503  HIT:    2663087  MISS:    1328416
LLC LOAD      ACCESS:     332117  HIT:         12  MISS:     332105
LLC RFO       ACCESS:    1829556  HIT:     833295  MISS:     996261
LLC PREFETCH  ACCESS:          0  HIT:          0  MISS:          0
LLC WRITEBACK ACCESS:    1829822  HIT:    1829780  MISS:         42
Heartbeat CPU 0 instructions: 80000000 cycles: 152698199 heartbeat IPC: 0.222595 cumulative IPC: 0.215285 (Simulation time: 2 hr 39 min 41 sec) 

Region of Interest Statistics
cpu0_DTLB TOTAL     ACCESS:    5340766  HIT:    5299862  MISS:      40904
cpu0_DTLB LOAD      ACCESS:    2374624  HIT:    2369073  MISS:       5551
cpu0_DTLB RFO       ACCESS:    2966142  HIT:    2930789  MISS:      35353
cpu0_DTLB PREFETCH  ACCESS:          0  HIT:          0  MISS:          0
cpu0_DTLB WRITEBACK ACCESS:          0  HIT:          0  MISS:          0
cpu0_ITLB TOTAL     ACCESS:     569483  HIT:     569483  MISS:          0
cpu0_ITLB LOAD      ACCESS:     569483  HIT:     569483  MISS:          0
cpu0_ITLB RFO       ACCESS:          0  HIT:          0  MISS:          0
cpu0_ITLB PREFETCH  ACCESS:          0  HIT:          0  MISS:          0
cpu0_ITLB WRITEBACK ACCESS:          0  HIT:          0  MISS:          0
cpu0_L1I TOTAL     ACCESS:     659430  HIT:     659430  MISS:          0
cpu0_L1I LOAD      ACCESS:     659430  HIT:     659430  MISS:          0
cpu0_L1I RFO       ACCESS:          0  HIT:          0  MISS:          0
cpu0_L1I PREFETCH  ACCESS:          0  HIT:          0  MISS:          0
cpu0_L1I WRITEBACK ACCESS:          0  HIT:          0  MISS:          0
cpu0_STLB TOTAL     ACCESS:      40904  HIT:      18708  MISS:      22196
cpu0_STLB LOAD      ACCESS:       5551  HIT:          0  MISS:       5551
cpu0_STLB RFO       ACCESS:      35353  HIT:      18708  MISS:      16645
cpu0_STLB PREFETCH  ACCESS:          0  HIT:          0  MISS:          0
cpu0_STLB WRITEBACK ACCESS:          0  HIT:          0  MISS:          0
cpu0_L1D TOTAL     ACCESS:    7090490  HIT:    4747217  MISS:    2343273
cpu0_L1D LOAD      ACCESS:    1687366  HIT:    1332308  MISS:     355058
cpu0_L1D RFO       ACCESS:    5381881  HIT:    3393676  MISS:    1988205
cpu0_L1D PREFETCH  ACCESS:          0  HIT:          0  MISS:          0
cpu0_L1D WRITEBACK ACCESS:          0  HIT:          0  MISS:          0
cpu0_L2C TOTAL     ACCESS:    4331478  HIT:    1994129  MISS:    2337349
cpu0_L2C LOAD      ACCESS:     355058  HIT:          0  MISS:     355058
cpu0_L2C RFO       ACCESS:    1988205  HIT:      31916  MISS:    1956289
cpu0_L2C PREFETCH  ACCESS:          0  HIT:          0  MISS:          0
cpu0_L2C WRITEBACK ACCESS:    1988205  HIT:    1962213  MISS:      25992
LLC TOTAL     ACCESS:    4267544  HIT:    2847379  MISS:    1420165
LLC LOAD      ACCESS:     355058  HIT:         17  MISS:     355041
LLC RFO       ACCESS:    1956062  HIT:     890996  MISS:    1065066
LLC PREFETCH  ACCESS:          0  HIT:          0  MISS:          0
LLC WRITEBACK ACCESS:    1956414  HIT:    1956366  MISS:         48
Heartbeat CPU 0 instructions: 82000001 cycles: 162600284 heartbeat IPC: 0.201978 cumulative IPC: 0.214402 (Simulation time: 2 hr 48 min 33 sec) 

Region of Interest Statistics
cpu0_DTLB TOTAL     ACCESS:    5706955  HIT:    5663124  MISS:      43831
cpu0_DTLB LOAD      ACCESS:    2534278  HIT:    2528330  MISS:       5948
cpu0_DTLB RFO       ACCESS:    3172677  HIT:    3134794  MISS:      37883
cpu0_DTLB PREFETCH  ACCESS:          0  HIT:          0  MISS:          0
cpu0_DTLB WRITEBACK ACCESS:          0  HIT:          0  MISS:          0
cpu0_ITLB TOTAL     ACCESS:     610498  HIT:     610498  MISS:          0
cpu0_ITLB LOAD      ACCESS:     610498  HIT:     610498  MISS:          0
cpu0_ITLB RFO       ACCESS:          0  HIT:          0  MISS:          0
cpu0_ITLB PREFETCH  ACCESS:          0  HIT:          0  MISS:          0
cpu0_ITLB WRITEBACK ACCESS:          0  HIT:          0  MISS:          0
cpu0_L1I TOTAL     ACCESS:     705048  HIT:     705048  MISS:          0
cpu0_L1I LOAD      ACCESS:     705048  HIT:     705048  MISS:          0
cpu0_L1I RFO       ACCESS:          0  HIT:          0  MISS:          0
cpu0_L1I PREFETCH  ACCESS:          0  HIT:          0  MISS:          0
cpu0_L1I WRITEBACK ACCESS:          0  HIT:          0  MISS:          0
cpu0_STLB TOTAL     ACCESS:      43831  HIT:      20047  MISS:      23784
cpu0_STLB LOAD      ACCESS:       5948  HIT:          0  MISS:       5948
cpu0_STLB RFO       ACCESS:      37883  HIT:      20047  MISS:      17836
cpu0_STLB PREFETCH  ACCESS:          0  HIT:          0  MISS:          0
cpu0_STLB WRITEBACK ACCESS:          0  HIT:          0  MISS:          0
cpu0_L1D TOTAL     ACCESS:    7571417  HIT:    5060550  MISS:    2510867
cpu0_L1D LOAD      ACCESS:    1799458  HIT:    1419005  MISS:     380453
cpu0_L1D RFO       ACCESS:    5749128  HIT:    3618724  MISS:    2130404
cpu0_L1D PREFETCH  ACCESS:          0  HIT:          0  MISS:          0
cpu0_L1D WRITEBACK ACCESS:          0  HIT:          0  MISS:          0
cpu0_L2C TOTAL     ACCESS:    4641270  HIT:    2137431  MISS:    2503839
cpu0_L2C LOAD      ACCESS:     380453  HIT:          0  MISS:     380453
cpu0_L2C RFO       ACCESS:    2130404  HIT:      34587  MISS:    2095817
cpu0_L2C PREFETCH  ACCESS:          0  HIT:          0  MISS:          0
cpu0_L2C WRITEBACK ACCESS:    2130403  HIT:    2102844  MISS:      27559
LLC TOTAL     ACCESS:    4571941  HIT:    3050203  MISS:    1521738
LLC LOAD      ACCESS:     380453  HIT:         18  MISS:     380435
LLC RFO       ACCESS:    2095582  HIT:     954341  MISS:    1141241
LLC PREFETCH  ACCESS:          0  HIT:          0  MISS:          0
LLC WRITEBACK ACCESS:    2095896  HIT:    2095844  MISS:         52
Heartbeat CPU 0 instructions: 84000001 cycles: 171838488 heartbeat IPC: 0.216492 cumulative IPC: 0.214524 (Simulation time: 2 hr 56 min 47 sec) 

Region of Interest Statistics
cpu0_DTLB TOTAL     ACCESS:    6061552  HIT:    6015015  MISS:      46537
cpu0_DTLB LOAD      ACCESS:    2692282  HIT:    2685967  MISS:       6315
cpu0_DTLB RFO       ACCESS:    3369270  HIT:    3329048  MISS:      40222
cpu0_DTLB PREFETCH  ACCESS:          0  HIT:          0  MISS:          0
cpu0_DTLB WRITEBACK ACCESS:          0  HIT:          0  MISS:          0
cpu0_ITLB TOTAL     ACCESS:     648080  HIT:     648080  MISS:          0
cpu0_ITLB LOAD      ACCESS:     648080  HIT:     648080  MISS:          0
cpu0_ITLB RFO       ACCESS:          0  HIT:          0  MISS:          0
cpu0_ITLB PREFETCH  ACCESS:          0  HIT:          0  MISS:          0
cpu0_ITLB WRITEBACK ACCESS:          0  HIT:          0  MISS:          0
cpu0_L1I TOTAL     ACCESS:     748238  HIT:     748238  MISS:          0
cpu0_L1I LOAD      ACCESS:     748238  HIT:     748238  MISS:          0
cpu0_L1I RFO       ACCESS:          0  HIT:          0  MISS:          0
cpu0_L1I PREFETCH  ACCESS:          0  HIT:          0  MISS:          0
cpu0_L1I WRITEBACK ACCESS:          0  HIT:          0  MISS:          0
cpu0_STLB TOTAL     ACCESS:      46537  HIT:      21285  MISS:      25252
cpu0_STLB LOAD      ACCESS:       6315  HIT:          0  MISS:       6315
cpu0_STLB RFO       ACCESS:      40222  HIT:      21285  MISS:      18937
cpu0_STLB PREFETCH  ACCESS:          0  HIT:          0  MISS:          0
cpu0_STLB WRITEBACK ACCESS:          0  HIT:          0  MISS:          0
cpu0_L1D TOTAL     ACCESS:    8043348  HIT:    5377510  MISS:    2665838
cpu0_L1D LOAD      ACCESS:    1911937  HIT:    1508004  MISS:     403933
cpu0_L1D RFO       ACCESS:    6107112  HIT:    3845217  MISS:    2261895
cpu0_L1D PREFETCH  ACCESS:          0  HIT:          0  MISS:          0
cpu0_L1D WRITEBACK ACCESS:          0  HIT:          0  MISS:          0
cpu0_L2C TOTAL     ACCESS:    4927729  HIT:    2268199  MISS:    2659530
cpu0_L2C LOAD      ACCESS:     403933  HIT:          0  MISS:     403933
cpu0_L2C RFO       ACCESS:    2261895  HIT:      37506  MISS:    2224389
cpu0_L2C PREFETCH  ACCESS:          0  HIT:          0  MISS:          0
cpu0_L2C WRITEBACK ACCESS:    2261891  HIT:    2230693  MISS:      31198
LLC TOTAL     ACCESS:    4852619  HIT:    3236959  MISS:    1615660
LLC LOAD      ACCESS:     403933  HIT:         18  MISS:     403915
LLC RFO       ACCESS:    2224143  HIT:    1012461  MISS:    1211682
LLC PREFETCH  ACCESS:          0  HIT:          0  MISS:          0
LLC WRITEBACK ACCESS:    2224533  HIT:    2224480  MISS:         53
Heartbeat CPU 0 instructions: 86000003 cycles: 181075661 heartbeat IPC: 0.216517 cumulative IPC: 0.214634 (Simulation time: 3 hr 5 min 1 sec) 

Region of Interest Statistics
cpu0_DTLB TOTAL     ACCESS:    6416969  HIT:    6367716  MISS:      49253
cpu0_DTLB LOAD      ACCESS:    2850431  HIT:    2843748  MISS:       6683
cpu0_DTLB RFO       ACCESS:    3566538  HIT:    3523968  MISS:      42570
cpu0_DTLB PREFETCH  ACCESS:          0  HIT:          0  MISS:          0
cpu0_DTLB WRITEBACK ACCESS:          0  HIT:          0  MISS:          0
cpu0_ITLB TOTAL     ACCESS:     685952  HIT:     685952  MISS:          0
cpu0_ITLB LOAD      ACCESS:     685952  HIT:     685952  MISS:          0
cpu0_ITLB RFO       ACCESS:          0  HIT:          0  MISS:          0
cpu0_ITLB PREFETCH  ACCESS:          0  HIT:          0  MISS:          0
cpu0_ITLB WRITEBACK ACCESS:          0  HIT:          0  MISS:          0
cpu0_L1I TOTAL     ACCESS:     791949  HIT:     791949  MISS:          0
cpu0_L1I LOAD      ACCESS:     791949  HIT:     791949  MISS:          0
cpu0_L1I RFO       ACCESS:          0  HIT:          0  MISS:          0
cpu0_L1I PREFETCH  ACCESS:          0  HIT:          0  MISS:          0
cpu0_L1I WRITEBACK ACCESS:          0  HIT:          0  MISS:          0
cpu0_STLB TOTAL     ACCESS:      49253  HIT:      22529  MISS:      26724
cpu0_STLB LOAD      ACCESS:       6683  HIT:          0  MISS:       6683
cpu0_STLB RFO       ACCESS:      42570  HIT:      22529  MISS:      20041
cpu0_STLB PREFETCH  ACCESS:          0  HIT:          0  MISS:          0
cpu0_STLB WRITEBACK ACCESS:          0  HIT:          0  MISS:          0
cpu0_L1D TOTAL     ACCESS:    8515524  HIT:    5694117  MISS:    2821407
cpu0_L1D LOAD      ACCESS:    2024435  HIT:    1596926  MISS:     427509
cpu0_L1D RFO       ACCESS:    6465595  HIT:    4071707  MISS:    2393888
cpu0_L1D PREFETCH  ACCESS:          0  HIT:          0  MISS:          0
cpu0_L1D WRITEBACK ACCESS:          0  HIT:          0  MISS:          0
cpu0_L2C TOTAL     ACCESS:    5215297  HIT:    2401029  MISS:    2814268
cpu0_L2C LOAD      ACCESS:     427509  HIT:          0  MISS:     427509
cpu0_L2C RFO       ACCESS:    2393888  HIT:      39754  MISS:    2354134
cpu0_L2C PREFETCH  ACCESS:          0  HIT:          0  MISS:          0
cpu0_L2C WRITEBACK ACCESS:    2393890  HIT:    2361275  MISS:      32615
LLC TOTAL     ACCESS:    5135682  HIT:    3425739  MISS:    1709943
LLC LOAD      ACCESS:     427509  HIT:         18  MISS:     427491
LLC RFO       ACCESS:    2353875  HIT:    1071490  MISS:    1282385
LLC PREFETCH  ACCESS:          0  HIT:          0  MISS:          0
LLC WRITEBACK ACCESS:    2354288  HIT:    2354231  MISS:         57
Heartbeat CPU 0 instructions: 88000003 cycles: 189738904 heartbeat IPC: 0.23086 cumulative IPC: 0.215431 (Simulation time: 3 hr 12 min 42 sec) 

Region of Interest Statistics
cpu0_DTLB TOTAL     ACCESS:    6761470  HIT:    6709715  MISS:      51755
cpu0_DTLB LOAD      ACCESS:    3007159  HIT:    3000135  MISS:       7024
cpu0_DTLB RFO       ACCESS:    3754311  HIT:    3709580  MISS:      44731
cpu0_DTLB PREFETCH  ACCESS:          0  HIT:          0  MISS:          0
cpu0_DTLB WRITEBACK ACCESS:          0  HIT:          0  MISS:          0
cpu0_ITLB TOTAL     ACCESS:     719146  HIT:     719146  MISS:          0
cpu0_ITLB LOAD      ACCESS:     719146  HIT:     719146  MISS:          0
cpu0_ITLB RFO       ACCESS:          0  HIT:          0  MISS:          0
cpu0_ITLB PREFETCH  ACCESS:          0  HIT:          0  MISS:          0
cpu0_ITLB WRITEBACK ACCESS:          0  HIT:          0  MISS:          0
cpu0_L1I TOTAL     ACCESS:     836014  HIT:     836014  MISS:          0
cpu0_L1I LOAD      ACCESS:     836014  HIT:     836014  MISS:          0
cpu0_L1I RFO       ACCESS:          0  HIT:          0  MISS:          0
cpu0_L1I PREFETCH  ACCESS:          0  HIT:          0  MISS:          0
cpu0_L1I WRITEBACK ACCESS:          0  HIT:          0  MISS:          0
cpu0_STLB TOTAL     ACCESS:      51755  HIT:      23669  MISS:      28086
cpu0_STLB LOAD      ACCESS:       7024  HIT:          0  MISS:       7024
cpu0_STLB RFO       ACCESS:      44731  HIT:      23669  MISS:      21062
cpu0_STLB PREFETCH  ACCESS:          0  HIT:          0  MISS:          0
cpu0_STLB WRITEBACK ACCESS:          0  HIT:          0  MISS:          0
cpu0_L1D TOTAL     ACCESS:    8978954  HIT:    6013941  MISS:    2965013
cpu0_L1D LOAD      ACCESS:    2137122  HIT:    1687856  MISS:     449266
cpu0_L1D RFO       ACCESS:    6815314  HIT:    4299579  MISS:    2515735
cpu0_L1D PREFETCH  ACCESS:          0  HIT:          0  MISS:          0
cpu0_L1D WRITEBACK ACCESS:          0  HIT:          0  MISS:          0
cpu0_L2C TOTAL     ACCESS:    5480747  HIT:    2524222  MISS:    2956525
cpu0_L2C LOAD      ACCESS:     449266  HIT:          0  MISS:     449266
cpu0_L2C RFO       ACCESS:    2515735  HIT:      42013  MISS:    2473722
cpu0_L2C PREFETCH  ACCESS:          0  HIT:          0  MISS:          0
cpu0_L2C WRITEBACK ACCESS:    2515734  HIT:    2482209  MISS:      33525
LLC TOTAL     ACCESS:    5396591  HIT:    3599609  MISS:    1796982
LLC LOAD      ACCESS:     449266  HIT:         20  MISS:     449246
LLC RFO       ACCESS:    2473452  HIT:    1125793  MISS:    1347659
LLC PREFETCH  ACCESS:          0  HIT:          0  MISS:          0
LLC WRITEBACK ACCESS:    2473861  HIT:    2473796  MISS:         65
Heartbeat CPU 0 instructions: 90000004 cycles: 200077502 heartbeat IPC: 0.19345 cumulative IPC: 0.214214 (Simulation time: 3 hr 22 min 10 sec) 

Region of Interest Statistics
cpu0_DTLB TOTAL     ACCESS:    7135448  HIT:    7080625  MISS:      54823
cpu0_DTLB LOAD      ACCESS:    3168421  HIT:    3160981  MISS:       7440
cpu0_DTLB RFO       ACCESS:    3967027  HIT:    3919644  MISS:      47383
cpu0_DTLB PREFETCH  ACCESS:          0  HIT:          0  MISS:          0
cpu0_DTLB WRITEBACK ACCESS:          0  HIT:          0  MISS:          0
cpu0_ITLB TOTAL     ACCESS:     763175  HIT:     763175  MISS:          0
cpu0_ITLB LOAD      ACCESS:     763175  HIT:     763175  MISS:          0
cpu0_ITLB RFO       ACCESS:          0  HIT:          0  MISS:          0
cpu0_ITLB PREFETCH  ACCESS:          0  HIT:          0  MISS:          0
cpu0_ITLB WRITEBACK ACCESS:          0  HIT:          0  MISS:          0
cpu0_L1I TOTAL     ACCESS:     882431  HIT:     882431  MISS:          0
cpu0_L1I LOAD      ACCESS:     882431  HIT:     882431  MISS:          0
cpu0_L1I RFO       ACCESS:          0  HIT:          0  MISS:          0
cpu0_L1I PREFETCH  ACCESS:          0  HIT:          0  MISS:          0
cpu0_L1I WRITEBACK ACCESS:          0  HIT:          0  MISS:          0
cpu0_STLB TOTAL     ACCESS:      54823  HIT:      25073  MISS:      29750
cpu0_STLB LOAD      ACCESS:       7440  HIT:          0  MISS:       7440
cpu0_STLB RFO       ACCESS:      47383  HIT:      25073  MISS:      22310
cpu0_STLB PREFETCH  ACCESS:          0  HIT:          0  MISS:          0
cpu0_STLB WRITEBACK ACCESS:          0  HIT:          0  MISS:          0
cpu0_L1D TOTAL     ACCESS:    9465427  HIT:    6324772  MISS:    3140655
cpu0_L1D LOAD      ACCESS:    2249219  HIT:    1773330  MISS:     475889
cpu0_L1D RFO       ACCESS:    7188369  HIT:    4523616  MISS:    2664753
cpu0_L1D PREFETCH  ACCESS:          0  HIT:          0  MISS:          0
cpu0_L1D WRITEBACK ACCESS:          0  HIT:          0  MISS:          0
cpu0_L2C TOTAL     ACCESS:    5805417  HIT:    2674170  MISS:    3131247
cpu0_L2C LOAD      ACCESS:     475889  HIT:          0  MISS:     475889
cpu0_L2C RFO       ACCESS:    2664753  HIT:      45001  MISS:    2619752
cpu0_L2C PREFETCH  ACCESS:          0  HIT:          0  MISS:          0
cpu0_L2C WRITEBACK ACCESS:    2664762  HIT:    2629169  MISS:      35593
LLC TOTAL     ACCESS:    5715398  HIT:    3811963  MISS:    1903435
LLC LOAD      ACCESS:     475889  HIT:         20  MISS:     475869
LLC RFO       ACCESS:    2619469  HIT:    1191987  MISS:    1427482
LLC PREFETCH  ACCESS:          0  HIT:          0  MISS:          0
LLC WRITEBACK ACCESS:    2620027  HIT:    2619956  MISS:         71
Heartbeat CPU 0 instructions: 92000001 cycles: 209467953 heartbeat IPC: 0.212982 cumulative IPC: 0.214155 (Simulation time: 3 hr 30 min 38 sec) 

Region of Interest Statistics
cpu0_DTLB TOTAL     ACCESS:    7493414  HIT:    7435834  MISS:      57580
cpu0_DTLB LOAD      ACCESS:    3327335  HIT:    3319521  MISS:       7814
cpu0_DTLB RFO       ACCESS:    4166079  HIT:    4116313  MISS:      49766
cpu0_DTLB PREFETCH  ACCESS:          0  HIT:          0  MISS:          0
cpu0_DTLB WRITEBACK ACCESS:          0  HIT:          0  MISS:          0
cpu0_ITLB TOTAL     ACCESS:     801740  HIT:     801740  MISS:          0
cpu0_ITLB LOAD      ACCESS:     801740  HIT:     801740  MISS:          0
cpu0_ITLB RFO       ACCESS:          0  HIT:          0  MISS:          0
cpu0_ITLB PREFETCH  ACCESS:          0  HIT:          0  MISS:          0
cpu0_ITLB WRITEBACK ACCESS:          0  HIT:          0  MISS:          0
cpu0_L1I TOTAL     ACCESS:     926007  HIT:     926007  MISS:          0
cpu0_L1I LOAD      ACCESS:     926007  HIT:     926007  MISS:          0
cpu0_L1I RFO       ACCESS:          0  HIT:          0  MISS:          0
cpu0_L1I PREFETCH  ACCESS:          0  HIT:          0  MISS:          0
cpu0_L1I WRITEBACK ACCESS:          0  HIT:          0  MISS:          0
cpu0_STLB TOTAL     ACCESS:      57580  HIT:      26335  MISS:      31245
cpu0_STLB LOAD      ACCESS:       7814  HIT:          0  MISS:       7814
cpu0_STLB RFO       ACCESS:      49766  HIT:      26335  MISS:      23431
cpu0_STLB PREFETCH  ACCESS:          0  HIT:          0  MISS:          0
cpu0_STLB WRITEBACK ACCESS:          0  HIT:          0  MISS:          0
cpu0_L1D TOTAL     ACCESS:    9939727  HIT:    6641117  MISS:    3298610
cpu0_L1D LOAD      ACCESS:    2361829  HIT:    1862016  MISS:     499813
cpu0_L1D RFO       ACCESS:    7548564  HIT:    4749781  MISS:    2798783
cpu0_L1D PREFETCH  ACCESS:          0  HIT:          0  MISS:          0
cpu0_L1D WRITEBACK ACCESS:          0  HIT:          0  MISS:          0
cpu0_L2C TOTAL     ACCESS:    6097391  HIT:    2808320  MISS:    3289071
cpu0_L2C LOAD      ACCESS:     499813  HIT:          0  MISS:     499813
cpu0_L2C RFO       ACCESS:    2798783  HIT:      47199  MISS:    2751584
cpu0_L2C PREFETCH  ACCESS:          0  HIT:          0  MISS:          0
cpu0_L2C WRITEBACK ACCESS:    2798781  HIT:    2761121  MISS:      37660
LLC TOTAL     ACCESS:    6002859  HIT:    4003690  MISS:    1999169
LLC LOAD      ACCESS:     499813  HIT:         20  MISS:     499793
LLC RFO       ACCESS:    2751295  HIT:    1252009  MISS:    1499286
LLC PREFETCH  ACCESS:          0  HIT:          0  MISS:          0
LLC WRITEBACK ACCESS:    2751737  HIT:    2751661  MISS:         76
Heartbeat CPU 0 instructions: 94000000 cycles: 219005379 heartbeat IPC: 0.2097 cumulative IPC: 0.213948 (Simulation time: 3 hr 39 min 24 sec) 

Region of Interest Statistics
cpu0_DTLB TOTAL     ACCESS:    7855068  HIT:    7794660  MISS:      60408
cpu0_DTLB LOAD      ACCESS:    3486719  HIT:    3478522  MISS:       8197
cpu0_DTLB RFO       ACCESS:    4368349  HIT:    4316138  MISS:      52211
cpu0_DTLB PREFETCH  ACCESS:          0  HIT:          0  MISS:          0
cpu0_DTLB WRITEBACK ACCESS:          0  HIT:          0  MISS:          0
cpu0_ITLB TOTAL     ACCESS:     841383  HIT:     841383  MISS:          0
cpu0_ITLB LOAD      ACCESS:     841383  HIT:     841383  MISS:          0
cpu0_ITLB RFO       ACCESS:          0  HIT:          0  MISS:          0
cpu0_ITLB PREFETCH  ACCESS:          0  HIT:          0  MISS:          0
cpu0_ITLB WRITEBACK ACCESS:          0  HIT:          0  MISS:          0
cpu0_L1I TOTAL     ACCESS:     970511  HIT:     970511  MISS:          0
cpu0_L1I LOAD      ACCESS:     970511  HIT:     970511  MISS:          0
cpu0_L1I RFO       ACCESS:          0  HIT:          0  MISS:          0
cpu0_L1I PREFETCH  ACCESS:          0  HIT:          0  MISS:          0
cpu0_L1I WRITEBACK ACCESS:          0  HIT:          0  MISS:          0
cpu0_STLB TOTAL     ACCESS:      60408  HIT:      27630  MISS:      32778
cpu0_STLB LOAD      ACCESS:       8197  HIT:          0  MISS:       8197
cpu0_STLB RFO       ACCESS:      52211  HIT:      27630  MISS:      24581
cpu0_STLB PREFETCH  ACCESS:          0  HIT:          0  MISS:          0
cpu0_STLB WRITEBACK ACCESS:          0  HIT:          0  MISS:          0
cpu0_L1D TOTAL     ACCESS:   10416856  HIT:    6956248  MISS:    3460608
cpu0_L1D LOAD      ACCESS:    2474213  HIT:    1949855  MISS:     524358
cpu0_L1D RFO       ACCESS:    7911776  HIT:    4975540  MISS:    2936236
cpu0_L1D PREFETCH  ACCESS:          0  HIT:          0  MISS:          0
cpu0_L1D WRITEBACK ACCESS:          0  HIT:          0  MISS:          0
cpu0_L2C TOTAL     ACCESS:    6396846  HIT:    2945287  MISS:    3451559
cpu0_L2C LOAD      ACCESS:     524358  HIT:          0  MISS:     524358
cpu0_L2C RFO       ACCESS:    2936236  HIT:      49471  MISS:    2886765
cpu0_L2C PREFETCH  ACCESS:          0  HIT:          0  MISS:          0
cpu0_L2C WRITEBACK ACCESS:    2936238  HIT:    2895816  MISS:      40422
LLC TOTAL     ACCESS:    6297727  HIT:    4200377  MISS:    2097350
LLC LOAD      ACCESS:     524358  HIT:         20  MISS:     524338
LLC RFO       ACCESS:    2886464  HIT:    1313543  MISS:    1572921
LLC PREFETCH  ACCESS:          0  HIT:          0  MISS:          0
LLC WRITEBACK ACCESS:    2886891  HIT:    2886814  MISS:         77
Heartbeat CPU 0 instructions: 96000002 cycles: 227362165 heartbeat IPC: 0.239327 cumulative IPC: 0.214939 (Simulation time: 3 hr 46 min 50 sec) 

Region of Interest Statistics
cpu0_DTLB TOTAL     ACCESS:    8194054  HIT:    8131244  MISS:      62810
cpu0_DTLB LOAD      ACCESS:    3642569  HIT:    3634045  MISS:       8524
cpu0_DTLB RFO       ACCESS:    4551485  HIT:    4497199  MISS:      54286
cpu0_DTLB PREFETCH  ACCESS:          0  HIT:          0  MISS:          0
cpu0_DTLB WRITEBACK ACCESS:          0  HIT:          0  MISS:          0
cpu0_ITLB TOTAL     ACCESS:     872480  HIT:     872480  MISS:          0
cpu0_ITLB LOAD      ACCESS:     872480  HIT:     872480  MISS:          0
cpu0_ITLB RFO       ACCESS:          0  HIT:          0  MISS:          0
cpu0_ITLB PREFETCH  ACCESS:          0  HIT:          0  MISS:          0
cpu0_ITLB WRITEBACK ACCESS:          0  HIT:          0  MISS:          0
cpu0_L1I TOTAL     ACCESS:    1014045  HIT:    1014045  MISS:          0
cpu0_L1I LOAD      ACCESS:    1014045  HIT:    1014045  MISS:          0
cpu0_L1I RFO       ACCESS:          0  HIT:          0  MISS:          0
cpu0_L1I PREFETCH  ACCESS:          0  HIT:          0  MISS:          0
cpu0_L1I WRITEBACK ACCESS:          0  HIT:          0  MISS:          0
cpu0_STLB TOTAL     ACCESS:      62810  HIT:      28726  MISS:      34084
cpu0_STLB LOAD      ACCESS:       8524  HIT:          0  MISS:       8524
cpu0_STLB RFO       ACCESS:      54286  HIT:      28726  MISS:      25560
cpu0_STLB PREFETCH  ACCESS:          0  HIT:          0  MISS:          0
cpu0_STLB WRITEBACK ACCESS:          0  HIT:          0  MISS:          0
cpu0_L1D TOTAL     ACCESS:   10876817  HIT:    7278697  MISS:    3598120
cpu0_L1D LOAD      ACCESS:    2587265  HIT:    2042071  MISS:     545194
cpu0_L1D RFO       ACCESS:    8257379  HIT:    5204469  MISS:    3052910
cpu0_L1D PREFETCH  ACCESS:          0  HIT:          0  MISS:          0
cpu0_L1D WRITEBACK ACCESS:          0  HIT:          0  MISS:          0
cpu0_L2C TOTAL     ACCESS:    6651028  HIT:    3063034  MISS:    3587994
cpu0_L2C LOAD      ACCESS:     545194  HIT:          0  MISS:     545194
cpu0_L2C RFO       ACCESS:    3052910  HIT:      51869  MISS:    3001041
cpu0_L2C PREFETCH  ACCESS:          0  HIT:          0  MISS:          0
cpu0_L2C WRITEBACK ACCESS:    3052908  HIT:    3011165  MISS:      41743
LLC TOTAL     ACCESS:    6547137  HIT:    4366442  MISS:    2180695
LLC LOAD      ACCESS:     545194  HIT:         21  MISS:     545173
LLC RFO       ACCESS:    3000736  HIT:    1365317  MISS:    1635419
LLC PREFETCH  ACCESS:          0  HIT:          0  MISS:          0
LLC WRITEBACK ACCESS:    3001191  HIT:    3001104  MISS:         87
Heartbeat CPU 0 instructions: 98000004 cycles: 237332333 heartbeat IPC: 0.200599 cumulative IPC: 0.214301 (Simulation time: 3 hr 55 min 53 sec) 

Region of Interest Statistics
cpu0_DTLB TOTAL     ACCESS:    8562761  HIT:    8496992  MISS:      65769
cpu0_DTLB LOAD      ACCESS:    3803052  HIT:    3794127  MISS:       8925
cpu0_DTLB RFO       ACCESS:    4759709  HIT:    4702865  MISS:      56844
cpu0_DTLB PREFETCH  ACCESS:          0  HIT:          0  MISS:          0
cpu0_DTLB WRITEBACK ACCESS:          0  HIT:          0  MISS:          0
cpu0_ITLB TOTAL     ACCESS:     914848  HIT:     914848  MISS:          0
cpu0_ITLB LOAD      ACCESS:     914848  HIT:     914848  MISS:          0
cpu0_ITLB RFO       ACCESS:          0  HIT:          0  MISS:          0
cpu0_ITLB PREFETCH  ACCESS:          0  HIT:          0  MISS:          0
cpu0_ITLB WRITEBACK ACCESS:          0  HIT:          0  MISS:          0
cpu0_L1I TOTAL     ACCESS:    1059712  HIT:    1059712  MISS:          0
cpu0_L1I LOAD      ACCESS:    1059712  HIT:    1059712  MISS:          0
cpu0_L1I RFO       ACCESS:          0  HIT:          0  MISS:          0
cpu0_L1I PREFETCH  ACCESS:          0  HIT:          0  MISS:          0
cpu0_L1I WRITEBACK ACCESS:          0  HIT:          0  MISS:          0
cpu0_STLB TOTAL     ACCESS:      65769  HIT:      30081  MISS:      35688
cpu0_STLB LOAD      ACCESS:       8925  HIT:          0  MISS:       8925
cpu0_STLB RFO       ACCESS:      56844  HIT:      30081  MISS:      26763
cpu0_STLB PREFETCH  ACCESS:          0  HIT:          0  MISS:          0
cpu0_STLB WRITEBACK ACCESS:          0  HIT:          0  MISS:          0
cpu0_L1D TOTAL     ACCESS:   11358634  HIT:    7590971  MISS:    3767663
cpu0_L1D LOAD      ACCESS:    2699207  HIT:    2128320  MISS:     570887
cpu0_L1D RFO       ACCESS:    8625650  HIT:    5428890  MISS:    3196760
cpu0_L1D PREFETCH  ACCESS:          0  HIT:          0  MISS:          0
cpu0_L1D WRITEBACK ACCESS:          0  HIT:          0  MISS:          0
cpu0_L2C TOTAL     ACCESS:    6964428  HIT:    3207407  MISS:    3757021
cpu0_L2C LOAD      ACCESS:     570887  HIT:          0  MISS:     570887
cpu0_L2C RFO       ACCESS:    3196760  HIT:      54743  MISS:    3142017
cpu0_L2C PREFETCH  ACCESS:          0  HIT:          0  MISS:          0
cpu0_L2C WRITEBACK ACCESS:    3196765  HIT:    3152664  MISS:      44101
LLC TOTAL     ACCESS:    6854781  HIT:    4571348  MISS:    2283433
LLC LOAD      ACCESS:     570887  HIT:         26  MISS:     570861
LLC RFO       ACCESS:    3141692  HIT:    1429224  MISS:    1712468
LLC PREFETCH  ACCESS:          0  HIT:          0  MISS:          0
LLC WRITEBACK ACCESS:    3142186  HIT:    3142098  MISS:         88
Heartbeat CPU 0 instructions: 100000002 cycles: 247153288 heartbeat IPC: 0.203646 cumulative IPC: 0.213853 (Simulation time: 4 hr 4 min 45 sec) 

Region of Interest Statistics
cpu0_DTLB TOTAL     ACCESS:    8926796  HIT:    8858139  MISS:      68657
cpu0_DTLB LOAD      ACCESS:    3962265  HIT:    3952948  MISS:       9317
cpu0_DTLB RFO       ACCESS:    4964531  HIT:    4905191  MISS:      59340
cpu0_DTLB PREFETCH  ACCESS:          0  HIT:          0  MISS:          0
cpu0_DTLB WRITEBACK ACCESS:          0  HIT:          0  MISS:          0
cpu0_ITLB TOTAL     ACCESS:     955564  HIT:     955564  MISS:          0
cpu0_ITLB LOAD      ACCESS:     955564  HIT:     955564  MISS:          0
cpu0_ITLB RFO       ACCESS:          0  HIT:          0  MISS:          0
cpu0_ITLB PREFETCH  ACCESS:          0  HIT:          0  MISS:          0
cpu0_ITLB WRITEBACK ACCESS:          0  HIT:          0  MISS:          0
cpu0_L1I TOTAL     ACCESS:    1104372  HIT:    1104372  MISS:          0
cpu0_L1I LOAD      ACCESS:    1104372  HIT:    1104372  MISS:          0
cpu0_L1I RFO       ACCESS:          0  HIT:          0  MISS:          0
cpu0_L1I PREFETCH  ACCESS:          0  HIT:          0  MISS:          0
cpu0_L1I WRITEBACK ACCESS:          0  HIT:          0  MISS:          0
cpu0_STLB TOTAL     ACCESS:      68657  HIT:      31401  MISS:      37256
cpu0_STLB LOAD      ACCESS:       9317  HIT:          0  MISS:       9317
cpu0_STLB RFO       ACCESS:      59340  HIT:      31401  MISS:      27939
cpu0_STLB PREFETCH  ACCESS:          0  HIT:          0  MISS:          0
cpu0_STLB WRITEBACK ACCESS:          0  HIT:          0  MISS:          0
cpu0_L1D TOTAL     ACCESS:   11838155  HIT:    7905034  MISS:    3933121
cpu0_L1D LOAD      ACCESS:    2811350  HIT:    2215394  MISS:     595956
cpu0_L1D RFO       ACCESS:    8991460  HIT:    5654311  MISS:    3337149
cpu0_L1D PREFETCH  ACCESS:          0  HIT:          0  MISS:          0
cpu0_L1D WRITEBACK ACCESS:          0  HIT:          0  MISS:          0
cpu0_L2C TOTAL     ACCESS:    7270266  HIT:    3348907  MISS:    3921359
cpu0_L2C LOAD      ACCESS:     595956  HIT:          0  MISS:     595956
cpu0_L2C RFO       ACCESS:    3337149  HIT:      57507  MISS:    3279642
cpu0_L2C PREFETCH  ACCESS:          0  HIT:          0  MISS:          0
cpu0_L2C WRITEBACK ACCESS:    3337145  HIT:    3291400  MISS:      45745
LLC TOTAL     ACCESS:    7155163  HIT:    4771446  MISS:    2383717
LLC LOAD      ACCESS:     595956  HIT:         26  MISS:     595930
LLC RFO       ACCESS:    3279309  HIT:    1491629  MISS:    1787680
LLC PREFETCH  ACCESS:          0  HIT:          0  MISS:          0
LLC WRITEBACK ACCESS:    3279882  HIT:    3279791  MISS:         91
Heartbeat CPU 0 instructions: 102000002 cycles: 256867355 heartbeat IPC: 0.205887 cumulative IPC: 0.213536 (Simulation time: 4 hr 13 min 43 sec) 

Region of Interest Statistics
cpu0_DTLB TOTAL     ACCESS:    9290734  HIT:    9219198  MISS:      71536
cpu0_DTLB LOAD      ACCESS:    4121666  HIT:    4111959  MISS:       9707
cpu0_DTLB RFO       ACCESS:    5169068  HIT:    5107239  MISS:      61829
cpu0_DTLB PREFETCH  ACCESS:          0  HIT:          0  MISS:          0
cpu0_DTLB WRITEBACK ACCESS:          0  HIT:          0  MISS:          0
cpu0_ITLB TOTAL     ACCESS:     996019  HIT:     996019  MISS:          0
cpu0_ITLB LOAD      ACCESS:     996019  HIT:     996019  MISS:          0
cpu0_ITLB RFO       ACCESS:          0  HIT:          0  MISS:          0
cpu0_ITLB PREFETCH  ACCESS:          0  HIT:          0  MISS:          0
cpu0_ITLB WRITEBACK ACCESS:          0  HIT:          0  MISS:          0
cpu0_L1I TOTAL     ACCESS:    1149303  HIT:    1149303  MISS:          0
cpu0_L1I LOAD      ACCESS:    1149303  HIT:    1149303  MISS:          0
cpu0_L1I RFO       ACCESS:          0  HIT:          0  MISS:          0
cpu0_L1I PREFETCH  ACCESS:          0  HIT:          0  MISS:          0
cpu0_L1I WRITEBACK ACCESS:          0  HIT:          0  MISS:          0
cpu0_STLB TOTAL     ACCESS:      71536  HIT:      32720  MISS:      38816
cpu0_STLB LOAD      ACCESS:       9707  HIT:          0  MISS:       9707
cpu0_STLB RFO       ACCESS:      61829  HIT:      32720  MISS:      29109
cpu0_STLB PREFETCH  ACCESS:          0  HIT:          0  MISS:          0
cpu0_STLB WRITEBACK ACCESS:          0  HIT:          0  MISS:          0
cpu0_L1D TOTAL     ACCESS:   12317330  HIT:    8219356  MISS:    4097974
cpu0_L1D LOAD      ACCESS:    2923796  HIT:    2302863  MISS:     620933
cpu0_L1D RFO       ACCESS:    9356629  HIT:    5879604  MISS:    3477025
cpu0_L1D PREFETCH  ACCESS:          0  HIT:          0  MISS:          0
cpu0_L1D WRITEBACK ACCESS:          0  HIT:          0  MISS:          0
cpu0_L2C TOTAL     ACCESS:    7574999  HIT:    3488759  MISS:    4086240
cpu0_L2C LOAD      ACCESS:     620933  HIT:          0  MISS:     620933
cpu0_L2C RFO       ACCESS:    3477025  HIT:      59596  MISS:    3417429
cpu0_L2C PREFETCH  ACCESS:          0  HIT:          0  MISS:          0
cpu0_L2C WRITEBACK ACCESS:    3477025  HIT:    3429163  MISS:      47862
LLC TOTAL     ACCESS:    7455681  HIT:    4972054  MISS:    2483627
LLC LOAD      ACCESS:     620933  HIT:         26  MISS:     620907
LLC RFO       ACCESS:    3417081  HIT:    1554468  MISS:    1862613
LLC PREFETCH  ACCESS:          0  HIT:          0  MISS:          0
LLC WRITEBACK ACCESS:    3417651  HIT:    3417560  MISS:         91
Heartbeat CPU 0 instructions: 104000000 cycles: 265434557 heartbeat IPC: 0.233448 cumulative IPC: 0.214212 (Simulation time: 4 hr 21 min 21 sec) 

Region of Interest Statistics
cpu0_DTLB TOTAL     ACCESS:    9633871  HIT:    9559851  MISS:      74020
cpu0_DTLB LOAD      ACCESS:    4277999  HIT:    4267955  MISS:      10044
cpu0_DTLB RFO       ACCESS:    5355872  HIT:    5291896  MISS:      63976
cpu0_DTLB PREFETCH  ACCESS:          0  HIT:          0  MISS:          0
cpu0_DTLB WRITEBACK ACCESS:          0  HIT:          0  MISS:          0
cpu0_ITLB TOTAL     ACCESS:    1029786  HIT:    1029786  MISS:          0
cpu0_ITLB LOAD      ACCESS:    1029786  HIT:    1029786  MISS:          0
cpu0_ITLB RFO       ACCESS:          0  HIT:          0  MISS:          0
cpu0_ITLB PREFETCH  ACCESS:          0  HIT:          0  MISS:          0
cpu0_ITLB WRITEBACK ACCESS:          0  HIT:          0  MISS:          0
cpu0_L1I TOTAL     ACCESS:    1191461  HIT:    1191461  MISS:          0
cpu0_L1I LOAD      ACCESS:    1191461  HIT:    1191461  MISS:          0
cpu0_L1I RFO       ACCESS:          0  HIT:          0  MISS:          0
cpu0_L1I PREFETCH  ACCESS:          0  HIT:          0  MISS:          0
cpu0_L1I WRITEBACK ACCESS:          0  HIT:          0  MISS:          0
cpu0_STLB TOTAL     ACCESS:      74020  HIT:      33856  MISS:      40164
cpu0_STLB LOAD      ACCESS:      10044  HIT:          0  MISS:      10044
cpu0_STLB RFO       ACCESS:      63976  HIT:      33856  MISS:      30120
cpu0_STLB PREFETCH  ACCESS:          0  HIT:          0  MISS:          0
cpu0_STLB WRITEBACK ACCESS:          0  HIT:          0  MISS:          0
cpu0_L1D TOTAL     ACCESS:   12779860  HIT:    8539645  MISS:    4240215
cpu0_L1D LOAD      ACCESS:    3036434  HIT:    2393948  MISS:     642486
cpu0_L1D RFO       ACCESS:    9705173  HIT:    6107460  MISS:    3597713
cpu0_L1D PREFETCH  ACCESS:          0  HIT:          0  MISS:          0
cpu0_L1D WRITEBACK ACCESS:          0  HIT:          0  MISS:          0
cpu0_L2C TOTAL     ACCESS:    7837929  HIT:    3609679  MISS:    4228250
cpu0_L2C LOAD      ACCESS:     642486  HIT:          0  MISS:     642486
cpu0_L2C RFO       ACCESS:    3597713  HIT:      62110  MISS:    3535603
cpu0_L2C PREFETCH  ACCESS:          0  HIT:          0  MISS:          0
cpu0_L2C WRITEBACK ACCESS:    3597714  HIT:    3547569  MISS:      50145
LLC TOTAL     ACCESS:    7713578  HIT:    5143741  MISS:    2569837
LLC LOAD      ACCESS:     642486  HIT:         26  MISS:     642460
LLC RFO       ACCESS:    3535242  HIT:    1607976  MISS:    1927266
LLC PREFETCH  ACCESS:          0  HIT:          0  MISS:          0
LLC WRITEBACK ACCESS:    3535834  HIT:    3535739  MISS:         95
Heartbeat CPU 0 instructions: 106000000 cycles: 275191875 heartbeat IPC: 0.204974 cumulative IPC: 0.213868 (Simulation time: 4 hr 30 min 15 sec) 

Region of Interest Statistics
cpu0_DTLB TOTAL     ACCESS:    9998404  HIT:    9921505  MISS:      76899
cpu0_DTLB LOAD      ACCESS:    4438020  HIT:    4427585  MISS:      10435
cpu0_DTLB RFO       ACCESS:    5560384  HIT:    5493920  MISS:      66464
cpu0_DTLB PREFETCH  ACCESS:          0  HIT:          0  MISS:          0
cpu0_DTLB WRITEBACK ACCESS:          0  HIT:          0  MISS:          0
cpu0_ITLB TOTAL     ACCESS:    1069032  HIT:    1069032  MISS:          0
cpu0_ITLB LOAD      ACCESS:    1069032  HIT:    1069032  MISS:          0
cpu0_ITLB RFO       ACCESS:          0  HIT:          0  MISS:          0
cpu0_ITLB PREFETCH  ACCESS:          0  HIT:          0  MISS:          0
cpu0_ITLB WRITEBACK ACCESS:          0  HIT:          0  MISS:          0
cpu0_L1I TOTAL     ACCESS:    1238876  HIT:    1238876  MISS:          0
cpu0_L1I LOAD      ACCESS:    1238876  HIT:    1238876  MISS:          0
cpu0_L1I RFO       ACCESS:          0  HIT:          0  MISS:          0
cpu0_L1I PREFETCH  ACCESS:          0  HIT:          0  MISS:          0
cpu0_L1I WRITEBACK ACCESS:          0  HIT:          0  MISS:          0
cpu0_STLB TOTAL     ACCESS:      76899  HIT:      35171  MISS:      41728
cpu0_STLB LOAD      ACCESS:      10435  HIT:          0  MISS:      10435
cpu0_STLB RFO       ACCESS:      66464  HIT:      35171  MISS:      31293
cpu0_STLB PREFETCH  ACCESS:          0  HIT:          0  MISS:          0
cpu0_STLB WRITEBACK ACCESS:          0  HIT:          0  MISS:          0
cpu0_L1D TOTAL     ACCESS:   13258588  HIT:    8853343  MISS:    4405245
cpu0_L1D LOAD      ACCESS:    3148460  HIT:    2480965  MISS:     667495
cpu0_L1D RFO       ACCESS:   10070311  HIT:    6332579  MISS:    3737732
cpu0_L1D PREFETCH  ACCESS:          0  HIT:          0  MISS:          0
cpu0_L1D WRITEBACK ACCESS:          0  HIT:          0  MISS:          0
cpu0_L2C TOTAL     ACCESS:    8142975  HIT:    3750388  MISS:    4392587
cpu0_L2C LOAD      ACCESS:     667495  HIT:          0  MISS:     667495
cpu0_L2C RFO       ACCESS:    3737732  HIT:      64244  MISS:    3673488
cpu0_L2C PREFETCH  ACCESS:          0  HIT:          0  MISS:          0
[...]
LLC LOAD      ACCESS:   17716105  HIT:        950  MISS:   17715155
LLC RFO       ACCESS:   97445195  HIT:   44302732  MISS:   53142463
LLC PREFETCH  ACCESS:          0  HIT:          0  MISS:          0
LLC WRITEBACK ACCESS:   97461485  HIT:   97459230  MISS:       2255
Heartbeat CPU 0 instructions: 1550000003 cycles: 6977179402 heartbeat IPC: 0.239088 cumulative IPC: 0.215399 (Simulation time: 31 hr 34 min 53 sec) 

Region of Interest Statistics
cpu0_DTLB TOTAL     ACCESS:  266951371  HIT:  264907935  MISS:    2043436
cpu0_DTLB LOAD      ACCESS:  118769357  HIT:  118492071  MISS:     277286
cpu0_DTLB RFO       ACCESS:  148182014  HIT:  146415864  MISS:    1766150
cpu0_DTLB PREFETCH  ACCESS:          0  HIT:          0  MISS:          0
cpu0_DTLB WRITEBACK ACCESS:          0  HIT:          0  MISS:          0
cpu0_ITLB TOTAL     ACCESS:   28226679  HIT:   28226679  MISS:          0
cpu0_ITLB LOAD      ACCESS:   28226679  HIT:   28226679  MISS:          0
cpu0_ITLB RFO       ACCESS:          0  HIT:          0  MISS:          0
cpu0_ITLB PREFETCH  ACCESS:          0  HIT:          0  MISS:          0
cpu0_ITLB WRITEBACK ACCESS:          0  HIT:          0  MISS:          0
cpu0_L1I TOTAL     ACCESS:   33242165  HIT:   33242165  MISS:          0
cpu0_L1I LOAD      ACCESS:   33242165  HIT:   33242165  MISS:          0
cpu0_L1I RFO       ACCESS:          0  HIT:          0  MISS:          0
cpu0_L1I PREFETCH  ACCESS:          0  HIT:          0  MISS:          0
cpu0_L1I WRITEBACK ACCESS:          0  HIT:          0  MISS:          0
cpu0_STLB TOTAL     ACCESS:    2043436  HIT:     934648  MISS:    1108788
cpu0_STLB LOAD      ACCESS:     277286  HIT:          1  MISS:     277285
cpu0_STLB RFO       ACCESS:    1766150  HIT:     934647  MISS:     831503
cpu0_STLB PREFETCH  ACCESS:          0  HIT:          0  MISS:          0
cpu0_STLB WRITEBACK ACCESS:          0  HIT:          0  MISS:          0
cpu0_L1D TOTAL     ACCESS:  354520899  HIT:  237463299  MISS:  117057600
cpu0_L1D LOAD      ACCESS:   84368710  HIT:   66631787  MISS:   17736923
cpu0_L1D RFO       ACCESS:  269107724  HIT:  169787619  MISS:   99320105
cpu0_L1D PREFETCH  ACCESS:          0  HIT:          0  MISS:          0
cpu0_L1D WRITEBACK ACCESS:          0  HIT:          0  MISS:          0
cpu0_L2C TOTAL     ACCESS:  216377697  HIT:   99692539  MISS:  116685158
cpu0_L2C LOAD      ACCESS:   17736923  HIT:         23  MISS:   17736900
cpu0_L2C RFO       ACCESS:   99320101  HIT:    1749242  MISS:   97570859
cpu0_L2C PREFETCH  ACCESS:          0  HIT:          0  MISS:          0
cpu0_L2C WRITEBACK ACCESS:   99320101  HIT:   97943273  MISS:    1376828
LLC TOTAL     ACCESS:  212873549  HIT:  141929991  MISS:   70943558
LLC LOAD      ACCESS:   17736900  HIT:        950  MISS:   17735950
LLC RFO       ACCESS:   97559916  HIT:   44355070  MISS:   53204846
LLC PREFETCH  ACCESS:          0  HIT:          0  MISS:          0
LLC WRITEBACK ACCESS:   97576162  HIT:   97573906  MISS:       2256
Finished CPU 0 instructions: 1500000001 cycles: 6963831137 cumulative IPC: 0.215399 (Simulation time: 31 hr 34 min 53 sec) 

ChampSim completed all CPUs

Region of Interest Statistics

CPU 0 cumulative IPC: 0.215399 instructions: 1500000001 cycles: 6963831137
cpu0_DTLB TOTAL     ACCESS:  266951371  HIT:  264907935  MISS:    2043436
cpu0_DTLB LOAD      ACCESS:  118769357  HIT:  118492071  MISS:     277286
cpu0_DTLB RFO       ACCESS:  148182014  HIT:  146415864  MISS:    1766150
cpu0_DTLB PREFETCH  ACCESS:          0  HIT:          0  MISS:          0
cpu0_DTLB WRITEBACK ACCESS:          0  HIT:          0  MISS:          0
cpu0_DTLB TRANSLATION ACCESS:          0  HIT:          0  MISS:          0
cpu0_DTLB PREFETCH  REQUESTED:          0  ISSUED:          0  USEFUL:          0  USELESS:          0
cpu0_DTLB AVERAGE MISS LATENCY: 539.287 cycles
cpu0_ITLB TOTAL     ACCESS:   28226679  HIT:   28226679  MISS:          0
cpu0_ITLB LOAD      ACCESS:   28226679  HIT:   28226679  MISS:          0
cpu0_ITLB RFO       ACCESS:          0  HIT:          0  MISS:          0
cpu0_ITLB PREFETCH  ACCESS:          0  HIT:          0  MISS:          0
cpu0_ITLB WRITEBACK ACCESS:          0  HIT:          0  MISS:          0
cpu0_ITLB TRANSLATION ACCESS:          0  HIT:          0  MISS:          0
cpu0_ITLB PREFETCH  REQUESTED:          0  ISSUED:          0  USEFUL:          0  USELESS:          0
cpu0_ITLB AVERAGE MISS LATENCY: -nan cycles
cpu0_L1I TOTAL     ACCESS:   33242165  HIT:   33242165  MISS:          0
cpu0_L1I LOAD      ACCESS:   33242165  HIT:   33242165  MISS:          0
cpu0_L1I RFO       ACCESS:          0  HIT:          0  MISS:          0
cpu0_L1I PREFETCH  ACCESS:          0  HIT:          0  MISS:          0
cpu0_L1I WRITEBACK ACCESS:          0  HIT:          0  MISS:          0
cpu0_L1I TRANSLATION ACCESS:          0  HIT:          0  MISS:          0
cpu0_L1I PREFETCH  REQUESTED:          0  ISSUED:          0  USEFUL:          0  USELESS:          0
cpu0_L1I AVERAGE MISS LATENCY: -nan cycles
cpu0_STLB TOTAL     ACCESS:    2043436  HIT:     934648  MISS:    1108788
cpu0_STLB LOAD      ACCESS:     277286  HIT:          1  MISS:     277285
cpu0_STLB RFO       ACCESS:    1766150  HIT:     934647  MISS:     831503
cpu0_STLB PREFETCH  ACCESS:          0  HIT:          0  MISS:          0
cpu0_STLB WRITEBACK ACCESS:          0  HIT:          0  MISS:          0
cpu0_STLB TRANSLATION ACCESS:          0  HIT:          0  MISS:          0
cpu0_STLB PREFETCH  REQUESTED:          0  ISSUED:          0  USEFUL:          0  USELESS:          0
cpu0_STLB AVERAGE MISS LATENCY: 977.148 cycles
cpu0_L1D TOTAL     ACCESS:  354520899  HIT:  237463299  MISS:  117057600
cpu0_L1D LOAD      ACCESS:   84368710  HIT:   66631787  MISS:   17736923
cpu0_L1D RFO       ACCESS:  269107724  HIT:  169787619  MISS:   99320105
cpu0_L1D PREFETCH  ACCESS:          0  HIT:          0  MISS:          0
cpu0_L1D WRITEBACK ACCESS:          0  HIT:          0  MISS:          0
cpu0_L1D TRANSLATION ACCESS:    1044465  HIT:    1043893  MISS:        572
cpu0_L1D PREFETCH  REQUESTED:          0  ISSUED:          0  USEFUL:          0  USELESS:          0
cpu0_L1D AVERAGE MISS LATENCY: 726.319 cycles
cpu0_L2C TOTAL     ACCESS:  216377697  HIT:   99692539  MISS:  116685158
cpu0_L2C LOAD      ACCESS:   17736923  HIT:         23  MISS:   17736900
cpu0_L2C RFO       ACCESS:   99320101  HIT:    1749242  MISS:   97570859
cpu0_L2C PREFETCH  ACCESS:          0  HIT:          0  MISS:          0
cpu0_L2C WRITEBACK ACCESS:   99320101  HIT:   97943273  MISS:    1376828
cpu0_L2C TRANSLATION ACCESS:        572  HIT:          1  MISS:        571
cpu0_L2C PREFETCH  REQUESTED:          0  ISSUED:          0  USEFUL:          0  USELESS:          0
cpu0_L2C AVERAGE MISS LATENCY: 717.548 cycles
LLC TOTAL     ACCESS:  212873549  HIT:  141929991  MISS:   70943558
LLC LOAD      ACCESS:   17736900  HIT:        950  MISS:   17735950
LLC RFO       ACCESS:   97559916  HIT:   44355070  MISS:   53204846
LLC PREFETCH  ACCESS:          0  HIT:          0  MISS:          0
LLC WRITEBACK ACCESS:   97576162  HIT:   97573906  MISS:       2256
LLC TRANSLATION ACCESS:        571  HIT:         65  MISS:        506
LLC PREFETCH  REQUESTED:          0  ISSUED:          0  USEFUL:          0  USELESS:          0
LLC AVERAGE MISS LATENCY: 1146.06 cycles
~~~~~~~~~~Reuse Distance Profiler output~~~~~~~~~~
0	63465584	6890560
1	34317600	7229312
2	15187184	3596160
3	9117344	4108816
4	12184912	4193360
5	9711040	5147200
6	1973248	1242880
7	2118896	1515232
8	1015008	282368
9	4517856	1808544
10	2086816	1554112
11	5231696	2461888
12	1888224	1190048
13	597040	164272
14	355120	130720
15	343632	61744
16	305344	60928
17	546320	155616
18	1184960	968624
19	2505504	2064832
20	3102688	331680
21	1476176	72128
22	1965168	296688
23	2362608	96000
24	2828160	1181600
25	774784	63952
26	502608	66000
27	460640	61728
28	529504	55680
29	1414832	248384
30	3559168	2032656
31	1602560	551248
32	1566144	173216
33	3717792	2577600
34	2112288	876592
35	1236736	654992
36	1591504	941680
37	1184432	831200
38	691472	356592
39	574128	155408
40	382368	105008
41	395760	123984
42	405184	118064
43	372480	100192
44	410816	140096
45	481360	50432
46	1916608	1004096
47	915424	222528
48	552656	97840
49	1754064	67312
50	293712	53088
51	343632	146112
52	363264	224432
53	1865216	713152
54	352112	255568
55	541168	272896
56	239904	146464
57	527120	347344
58	828032	127280
59	608048	80976
60	346720	79504
61	515824	32512
62	263184	33472
63	174976	37168
64	312368	84816
66	789776	618928
68	507440	356960
70	336528	182496
72	281456	88672
74	262800	63424
76	242384	137792
78	250464	173520
80	975904	420192
82	851904	400448
84	616320	177472
86	741264	106736
88	750768	85952
90	874848	227456
92	2233632	1221424
94	1511088	630208
96	1391184	214192
98	1456016	785264
100	1041584	275072
102	640288	126496
104	200560	64864
106	212544	65488
108	206752	62144
110	293680	83904
112	252336	52720
114	320896	44736
116	221152	48720
118	128960	44928
120	107184	44272
122	99584	36896
124	91392	35616
126	138352	33696
128	156368	62368
132	150224	53680
136	95056	52112
140	75120	40400
144	67312	41536
148	60720	39296
152	116608	31520
156	159248	31376
160	85792	24368
164	98352	21360
168	84528	17568
172	344256	18384
176	1128000	17600
180	954448	17696
184	1913200	11584
188	711456	9392
192	440448	6544
196	380192	5712
200	163344	6720
204	32816	6304
208	20464	6432
212	24768	6032
216	40160	6992
220	41552	6704
224	37728	9088
228	31712	9216
232	34448	10688
236	37504	10992
240	35136	11904
244	33088	13488
248	27344	11760
252	32464	13120
256	99280	24848
264	82832	29104
272	78688	31040
280	84720	32576
288	63856	31584
296	110064	30320
304	99424	31008
312	81392	31344
320	90704	34272
328	58304	31744
336	75056	27104
344	94720	23408
352	73248	22368
360	78112	22416
368	51568	21520
376	45808	17824
384	72496	14496
392	60480	15344
400	60192	14624
408	47456	15568
416	35696	13424
424	49152	11936
432	43920	11408
440	45328	12592
448	39824	12848
456	25376	10656
464	24720	7936
472	23312	6960
480	23136	6752
488	24560	6928
496	13808	5664
504	7792	3776
512	13008	5392
528	15200	4976
544	7344	3104
560	6272	2448
576	6592	2080
592	5680	2144
608	6032	1776
624	5680	1936
640	5424	2336
656	6960	1648
672	6864	2304
688	5312	1984
704	5712	1648
720	4176	1392
736	4032	1200
752	3712	864
768	2320	880
784	2528	768
800	2288	832
816	1584	672
832	1824	480
848	1360	432
864	1088	256
880	928	192
896	864	256
912	656	224
928	496	160
944	208	80
960	528	192
976	240	96
992	288	96
1008	304	48
1024	512	160
1056	512	176
1088	368	176
1120	400	208
1152	192	96
1184	224	128
1216	192	80
1248	160	64
1280	128	64
1312	48	48
1344	32	0
1376	16	0
1408	16	16
1440	16	16
1472	0	0
1504	16	0
1536	0	0
1568	32	16
1600	0	0
1632	0	0
1664	0	0
1696	0	0
1728	0	0
1760	0	0
1792	0	0
1824	0	0
1856	0	0
1888	0	0
1920	0	0
1952	0	0
1984	0	0
2016	0	0
2048	0	0
2112	0	0
2176	0	0
2240	0	0
2304	0	0
2368	0	0
2432	0	0
2496	0	0
2560	0	0
2624	0	0
2688	0	0
2752	0	0
2816	0	0
2880	0	0
2944	0	0
3008	0	0
3072	0	0
3136	0	0
3200	0	0
3264	0	0
3328	0	0
3392	0	0
3456	0	0
3520	0	0
3584	0	0
3648	0	0
3712	0	0
3776	0	0
3840	0	0
3904	0	0
3968	64	0
4032	1456	0
4096	195520	0
4224	7008	0
4352	10320	0
4480	3264	0
4608	3584	0
4736	3264	0
4864	3152	0
4992	3376	0
5120	3824	0
5248	3024	0
5376	3200	0
5504	3392	0
5632	3312	0
5760	3808	0
5888	7296	0
6016	9952	0
6144	12816	0
6272	19376	0
6400	27856	0
6528	36576	0
6656	54240	0
6784	69392	0
6912	94864	0
7040	139088	0
7168	173776	0
7296	218528	0
7424	291712	0
7552	364496	0
7680	451408	0
7808	543152	0
7936	655376	0
8064	753040	0
8192	1804000	0
8448	2306288	592
8704	2712416	16
8960	3015664	0
9216	3266416	0
9472	3310736	0
9728	3187136	0
9984	2971664	0
10240	2583344	0
10496	2215344	0
10752	1824384	0
11008	1436784	0
11264	1123488	0
11520	849808	0
11776	637728	0
12032	463776	0
12288	331776	0
12544	234304	0
12800	170768	0
13056	133088	0
13312	108816	0
13568	93840	0
13824	87040	0
14080	83216	0
14336	85408	0
14592	95888	0
14848	104560	0
15104	116528	0
15360	129376	0
15616	145024	0
15872	165760	0
16128	180208	0
16384	426272	0
16896	523504	0
17408	627936	0
17920	714608	0
18432	780496	0
18944	750384	0
19456	623712	0
19968	556384	0
20480	486512	0
20992	413296	0
21504	334896	0
22016	273168	0
22528	204624	0
23040	156096	0
23552	113088	0
24064	82144	0
24576	54112	0
25088	39248	0
25600	30000	0
26112	24960	0
26624	18592	0
27136	15104	0
27648	13280	0
28160	13328	0
28672	12432	0
29184	12448	0
29696	12064	0
30208	11088	0
30720	12224	0
31232	11888	0
31744	12288	0
32256	12704	0
32768	23552	0
33792	25552	0
34816	26608	0
35840	25104	0
36864	18224	0
37888	3568	0
38912	416	0
39936	0	0
40960	0	0
41984	0	0
43008	0	0
44032	0	0
45056	0	0
46080	0	0
47104	0	0
48128	0	0
49152	0	0
50176	0	0
51200	0	0
52224	0	0
53248	0	0
54272	0	0
55296	0	0
56320	0	0
57344	0	0
58368	0	0
59392	0	0
60416	0	0
61440	0	0
62464	0	0
63488	0	0
64512	0	0
65536	0	0
67584	0	0
69632	0	0
71680	0	0
73728	0	0
75776	0	0
77824	0	0
79872	0	0
81920	0	0
83968	0	0
86016	0	0
88064	0	0
90112	0	0
92160	0	0
94208	0	0
96256	0	0
98304	0	0
100352	0	0
102400	0	0
104448	0	0
106496	0	0
108544	0	0
110592	0	0
112640	0	0
114688	0	0
116736	0	0
118784	0	0
120832	0	0
122880	0	0
124928	0	0
126976	0	0
129024	0	0
131072	0	0
135168	0	0
139264	0	0
143360	0	0
147456	0	0
151552	0	0
155648	0	0
159744	0	0
163840	0	0
167936	0	0
172032	0	0
176128	0	0
180224	0	0
184320	0	0
188416	0	0
192512	0	0
196608	0	0
200704	0	0
204800	0	0
208896	0	0
212992	0	0
217088	0	0
221184	0	0
225280	0	0
229376	0	0
233472	0	0
237568	0	0
241664	0	0
245760	0	0
249856	0	0
253952	0	0
258048	0	0
262144	0	0
270336	0	0
278528	0	0
286720	0	0
294912	0	0
303104	0	0
311296	0	0
319488	0	0
327680	0	0
335872	0	0
344064	0	0
352256	0	0
360448	0	0
368640	0	0
376832	0	0
385024	0	0
393216	0	0
401408	0	0
409600	0	0
417792	0	0
425984	0	0
434176	0	0
442368	0	0
450560	0	0
458752	0	0
466944	0	0
475136	0	0
483328	0	0
491520	0	0
499712	0	0
507904	0	0
516096	0	0
524288	0	0
540672	0	0
557056	0	0
573440	0	0
589824	0	0
606208	0	0
622592	0	0
638976	0	0
655360	0	0
671744	0	0
688128	0	0
704512	0	0
720896	0	0
737280	0	0
753664	0	0
770048	0	0
786432	0	0
802816	0	0
819200	0	0
835584	0	0
851968	0	0
868352	0	0
884736	0	0
901120	0	0
917504	0	0
933888	0	0
950272	0	0
966656	0	0
983040	0	0
999424	0	0
1015808	0	0
1032192	0	0
1048576	0	0
1081344	0	0
1114112	0	0
1146880	0	0
1179648	0	0
1212416	0	0
1245184	0	0
1277952	0	0
1310720	0	0
1343488	0	0
1376256	0	0
1409024	0	0
1441792	0	0
1474560	0	0
1507328	0	0
1540096	0	0
1572864	0	0
1605632	0	0
1638400	0	0
1671168	0	0
1703936	0	0
1736704	0	0
1769472	0	0
1802240	0	0
1835008	240	0
1867776	418496	0
1900544	3393104	0
1933312	8629040	0
1966080	12913040	0
1998848	7139696	0
2031616	3115520	0
2064384	282976	0
2097152	218432	0
2162688	166944	0
2228224	106992	0
2293760	41600	0
2359296	0	0
2424832	0	0
2490368	0	0
2555904	0	0
2621440	0	0
2686976	0	0
2752512	0	0
2818048	0	0
2883584	0	0
2949120	0	0
3014656	0	0
3080192	0	0
3145728	0	0
3211264	0	0
3276800	0	0
3342336	0	0
3407872	0	0
3473408	0	0
3538944	0	0
3604480	0	0
3670016	0	0
3735552	0	0
3801088	0	0
3866624	0	0
3932160	0	0
3997696	0	0
4063232	0	0
4128768	0	0
4194304	0	0
4325376	0	0
4456448	0	0
4587520	0	0
4718592	0	0
4849664	0	0
4980736	0	0
5111808	0	0
5242880	0	0
5373952	0	0
5505024	0	0
5636096	0	0
5767168	0	0
5898240	0	0
6029312	0	0
6160384	0	0
6291456	0	0
6422528	0	0
6553600	0	0
6684672	0	0
6815744	0	0
6946816	0	0
7077888	0	0
7208960	0	0
7340032	0	0
7471104	0	0
7602176	0	0
7733248	0	0
7864320	0	0
7995392	0	0
8126464	0	0
8257536	0	0
8388608	0	0
8650752	0	0
8912896	0	0
9175040	0	0
9437184	0	0
9699328	0	0
9961472	0	0
10223616	0	0
10485760	0	0
10747904	0	0
11010048	0	0
11272192	0	0
11534336	0	0
11796480	0	0
12058624	0	0
12320768	0	0
12582912	0	0
12845056	0	0
13107200	0	0
13369344	0	0
13631488	0	0
13893632	0	0
14155776	0	0
14417920	0	0
14680064	0	0
14942208	0	0
15204352	0	0
15466496	0	0
15728640	0	0
15990784	0	0
16252928	0	0
16515072	0	0
16777216	0	0
17301504	0	0
17825792	0	0
18350080	0	0
18874368	0	0
19398656	0	0
19922944	0	0
20447232	0	0
20971520	0	0
21495808	0	0
22020096	0	0
22544384	0	0
23068672	0	0
23592960	0	0
24117248	0	0
24641536	0	0
25165824	0	0
25690112	0	0
26214400	0	0
26738688	0	0
27262976	0	0
27787264	0	0
28311552	0	0
28835840	0	0
29360128	0	0
29884416	0	0
30408704	0	0
30932992	0	0
31457280	0	0
31981568	0	0
32505856	0	0
33030144	0	0
33554432	0	0
34603008	0	0
35651584	0	0
36700160	0	0
37748736	0	0
38797312	0	0
39845888	0	0
40894464	0	0
41943040	0	0
42991616	0	0
44040192	0	0
45088768	0	0
46137344	0	0
47185920	0	0
48234496	0	0
49283072	0	0
50331648	0	0
51380224	0	0
52428800	0	0
53477376	0	0
54525952	0	0
55574528	0	0
56623104	0	0
57671680	0	0
58720256	0	0
59768832	0	0
60817408	0	0
61865984	0	0
62914560	0	0
63963136	0	0
65011712	0	0
66060288	0	0
67108864	0	0
69206016	0	0
71303168	0	0
73400320	0	0
75497472	0	0
77594624	0	0
79691776	0	0
81788928	0	0
83886080	0	0
85983232	0	0
88080384	0	0
90177536	0	0
92274688	0	0
94371840	0	0
96468992	0	0
98566144	0	0
100663296	0	0
102760448	0	0
104857600	0	0
106954752	0	0
109051904	0	0
111149056	0	0
113246208	0	0
115343360	0	0
117440512	0	0
119537664	0	0
121634816	0	0
123731968	0	0
125829120	0	0
127926272	0	0
130023424	0	0
132120576	0	0
134217728	0	0
138412032	0	0
142606336	0	0
146800640	0	0
150994944	0	0
155189248	0	0
159383552	0	0
163577856	0	0
167772160	0	0
171966464	0	0
176160768	0	0
180355072	0	0
184549376	0	0
188743680	0	0
192937984	0	0
197132288	0	0
201326592	0	0
205520896	0	0
209715200	0	0
213909504	0	0
218103808	0	0
222298112	0	0
226492416	0	0
230686720	0	0
234881024	0	0
239075328	0	0
243269632	0	0
247463936	0	0
251658240	0	0
255852544	0	0
260046848	0	0
264241152	0	0
268435456	0	0
276824064	0	0
285212672	0	0
293601280	0	0
301989888	0	0
310378496	0	0
318767104	0	0
327155712	0	0
335544320	0	0
343932928	0	0
352321536	0	0
360710144	0	0
369098752	0	0
377487360	0	0
385875968	0	0
394264576	0	0
402653184	0	0
411041792	0	0
419430400	0	0
427819008	0	0
436207616	0	0
444596224	0	0
452984832	0	0
461373440	0	0
469762048	0	0
478150656	0	0
486539264	0	0
494927872	0	0
503316480	0	0
511705088	0	0
520093696	0	0
528482304	0	0
536870912	0	0
553648128	0	0
570425344	0	0
587202560	0	0
603979776	0	0
620756992	0	0
637534208	0	0
654311424	0	0
671088640	0	0
687865856	0	0
704643072	0	0
721420288	0	0
738197504	0	0
754974720	0	0
771751936	0	0
788529152	0	0
805306368	0	0
822083584	0	0
838860800	0	0
855638016	0	0
872415232	0	0
889192448	0	0
905969664	0	0
922746880	0	0
939524096	0	0
956301312	0	0
973078528	0	0
989855744	0	0
1006632960	0	0
1023410176	0	0
1040187392	0	0
1056964608	0	0
1073741824	0	0
1107296256	0	0
1140850688	0	0
1174405120	0	0
1207959552	0	0
1241513984	0	0
1275068416	0	0
1308622848	0	0
1342177280	0	0
1375731712	0	0
1409286144	0	0
1442840576	0	0
1476395008	0	0
1509949440	0	0
1543503872	0	0
1577058304	0	0
1610612736	0	0
1644167168	0	0
1677721600	0	0
1711276032	0	0
1744830464	0	0
1778384896	0	0
1811939328	0	0
1845493760	0	0
1879048192	0	0
1912602624	0	0
1946157056	0	0
1979711488	0	0
2013265920	0	0
2046820352	0	0
2080374784	0	0
2113929216	0	0
2147483648	0	0
2214592512	0	0
2281701376	0	0
2348810240	0	0
2415919104	0	0
2483027968	0	0
2550136832	0	0
2617245696	0	0
2684354560	0	0
2751463424	0	0
2818572288	0	0
2885681152	0	0
2952790016	0	0
3019898880	0	0
3087007744	0	0
3154116608	0	0
3221225472	0	0
3288334336	0	0
3355443200	0	0
3422552064	0	0
3489660928	0	0
3556769792	0	0
3623878656	0	0
3690987520	0	0
3758096384	0	0
3825205248	0	0
3892314112	0	0
3959422976	0	0
4026531840	0	0
4093640704	0	0
4160749568	0	0
4227858432	0	0
~~~~~~~~~~Reuse Distance Profiler output end~~~~~~~~~~

Sampler size:2305809

DRAM Statistics
 CHANNEL 0
 RQ ROW_BUFFER_HIT:    2697087  ROW_BUFFER_MISS:   68244214
 DBUS AVG_CONGESTED_CYCLE:    4.00182
 WQ ROW_BUFFER_HIT:    1640934  ROW_BUFFER_MISS:   51566366  FULL:          0


CPU 0 Branch Prediction Accuracy: 96.0416% MPKI: 0.707559 Average ROB Occupancy at Mispredict: 258.087
Branch type MPKI
BRANCH_DIRECT_JUMP: 0
BRANCH_INDIRECT: 0
BRANCH_CONDITIONAL: 0.707559
BRANCH_DIRECT_CALL: 0
BRANCH_INDIRECT_CALL: 0
BRANCH_RETURN: 0

