
*** ChampSim Multicore Out-of-Order Simulator ***

Warmup Instructions: 50000000
Simulation Instructions: 1500000000
Number of CPUs: 1
Off-chip DRAM Size: 4 GiB Channels: 1 Width: 64-bit Data Rate: 3200 MT/s

VirtualMemory physical capacity: 8588881920 num_ppages: 2096895
VirtualMemory page size: 4096 log2_page_size: 12

CPU 0 runs /s/traces/champsim_traces/631.deepsjeng_s-928B.champsimtrace.xz
CPU 0 Bimodal branch predictor
Basic BTB sets: 1024 ways: 8 indirect buffer size: 4096 RAS size: 64
Initializing LRU.
Initializing LRU.
Initializing LRU.
Initializing LRU.
Initializing rdLRU.
Initializing LRU.
Initializing LRU.
Heartbeat CPU 0 instructions: 2000003 cycles: 500178 heartbeat IPC: 3.99858 cumulative IPC: 3.99858 (Simulation time: 0 hr 0 min 52 sec) 
Heartbeat CPU 0 instructions: 4000002 cycles: 1000162 heartbeat IPC: 4.00013 cumulative IPC: 3.99935 (Simulation time: 0 hr 1 min 47 sec) 
Heartbeat CPU 0 instructions: 6000003 cycles: 1500176 heartbeat IPC: 3.99989 cumulative IPC: 3.99953 (Simulation time: 0 hr 2 min 43 sec) 
Heartbeat CPU 0 instructions: 8000001 cycles: 2000176 heartbeat IPC: 4 cumulative IPC: 3.99965 (Simulation time: 0 hr 3 min 35 sec) 
Heartbeat CPU 0 instructions: 10000002 cycles: 2500178 heartbeat IPC: 3.99999 cumulative IPC: 3.99972 (Simulation time: 0 hr 4 min 31 sec) 
Heartbeat CPU 0 instructions: 12000002 cycles: 3000178 heartbeat IPC: 4 cumulative IPC: 3.99976 (Simulation time: 0 hr 5 min 27 sec) 
Heartbeat CPU 0 instructions: 14000002 cycles: 3500178 heartbeat IPC: 4 cumulative IPC: 3.9998 (Simulation time: 0 hr 6 min 25 sec) 
Heartbeat CPU 0 instructions: 16000002 cycles: 4000178 heartbeat IPC: 4 cumulative IPC: 3.99982 (Simulation time: 0 hr 7 min 20 sec) 
Heartbeat CPU 0 instructions: 18000002 cycles: 4500178 heartbeat IPC: 4 cumulative IPC: 3.99984 (Simulation time: 0 hr 8 min 19 sec) 
Heartbeat CPU 0 instructions: 20000002 cycles: 5000178 heartbeat IPC: 4 cumulative IPC: 3.99986 (Simulation time: 0 hr 9 min 22 sec) 
Heartbeat CPU 0 instructions: 22000002 cycles: 5500178 heartbeat IPC: 4 cumulative IPC: 3.99987 (Simulation time: 0 hr 10 min 22 sec) 
Heartbeat CPU 0 instructions: 24000002 cycles: 6000178 heartbeat IPC: 4 cumulative IPC: 3.99988 (Simulation time: 0 hr 11 min 24 sec) 
Heartbeat CPU 0 instructions: 26000002 cycles: 6500178 heartbeat IPC: 4 cumulative IPC: 3.99989 (Simulation time: 0 hr 12 min 24 sec) 
Heartbeat CPU 0 instructions: 28000002 cycles: 7000178 heartbeat IPC: 4 cumulative IPC: 3.9999 (Simulation time: 0 hr 13 min 26 sec) 
Heartbeat CPU 0 instructions: 30000002 cycles: 7500178 heartbeat IPC: 4 cumulative IPC: 3.99991 (Simulation time: 0 hr 14 min 28 sec) 
Heartbeat CPU 0 instructions: 32000002 cycles: 8000178 heartbeat IPC: 4 cumulative IPC: 3.99991 (Simulation time: 0 hr 15 min 29 sec) 
Heartbeat CPU 0 instructions: 34000002 cycles: 8500178 heartbeat IPC: 4 cumulative IPC: 3.99992 (Simulation time: 0 hr 16 min 32 sec) 
Heartbeat CPU 0 instructions: 36000002 cycles: 9000178 heartbeat IPC: 4 cumulative IPC: 3.99992 (Simulation time: 0 hr 17 min 33 sec) 
Heartbeat CPU 0 instructions: 38000002 cycles: 9500178 heartbeat IPC: 4 cumulative IPC: 3.99993 (Simulation time: 0 hr 18 min 35 sec) 
Heartbeat CPU 0 instructions: 40000002 cycles: 10000178 heartbeat IPC: 4 cumulative IPC: 3.99993 (Simulation time: 0 hr 19 min 36 sec) 
Heartbeat CPU 0 instructions: 42000002 cycles: 10500178 heartbeat IPC: 4 cumulative IPC: 3.99993 (Simulation time: 0 hr 20 min 38 sec) 
Heartbeat CPU 0 instructions: 44000002 cycles: 11000178 heartbeat IPC: 4 cumulative IPC: 3.99994 (Simulation time: 0 hr 21 min 36 sec) 
Heartbeat CPU 0 instructions: 46000002 cycles: 11500178 heartbeat IPC: 4 cumulative IPC: 3.99994 (Simulation time: 0 hr 22 min 37 sec) 
Heartbeat CPU 0 instructions: 48000002 cycles: 12000178 heartbeat IPC: 4 cumulative IPC: 3.99994 (Simulation time: 0 hr 23 min 37 sec) 
Heartbeat CPU 0 instructions: 50000002 cycles: 12500178 heartbeat IPC: 4 cumulative IPC: 3.99994 (Simulation time: 0 hr 24 min 36 sec) 

Warmup complete CPU 0 instructions: 50000002 cycles: 12500178 (Simulation time: 0 hr 24 min 36 sec) 

Heartbeat CPU 0 instructions: 52000004 cycles: 14090799 heartbeat IPC: 1.25737 cumulative IPC: 1.25737 (Simulation time: 0 hr 25 min 41 sec) 

Region of Interest Statistics
cpu0_DTLB TOTAL     ACCESS:     366350  HIT:     365670  MISS:        680
cpu0_DTLB LOAD      ACCESS:     257156  HIT:     256506  MISS:        650
cpu0_DTLB RFO       ACCESS:     109194  HIT:     109164  MISS:         30
cpu0_DTLB PREFETCH  ACCESS:          0  HIT:          0  MISS:          0
cpu0_DTLB WRITEBACK ACCESS:          0  HIT:          0  MISS:          0
cpu0_ITLB TOTAL     ACCESS:     157141  HIT:     157141  MISS:          0
cpu0_ITLB LOAD      ACCESS:     157141  HIT:     157141  MISS:          0
cpu0_ITLB RFO       ACCESS:          0  HIT:          0  MISS:          0
cpu0_ITLB PREFETCH  ACCESS:          0  HIT:          0  MISS:          0
cpu0_ITLB WRITEBACK ACCESS:          0  HIT:          0  MISS:          0
cpu0_L1I TOTAL     ACCESS:     206496  HIT:     205400  MISS:       1096
cpu0_L1I LOAD      ACCESS:     206496  HIT:     205400  MISS:       1096
cpu0_L1I RFO       ACCESS:          0  HIT:          0  MISS:          0
cpu0_L1I PREFETCH  ACCESS:          0  HIT:          0  MISS:          0
cpu0_L1I WRITEBACK ACCESS:          0  HIT:          0  MISS:          0
cpu0_STLB TOTAL     ACCESS:        680  HIT:        294  MISS:        386
cpu0_STLB LOAD      ACCESS:        650  HIT:        264  MISS:        386
cpu0_STLB RFO       ACCESS:         30  HIT:         30  MISS:          0
cpu0_STLB PREFETCH  ACCESS:          0  HIT:          0  MISS:          0
cpu0_STLB WRITEBACK ACCESS:          0  HIT:          0  MISS:          0
cpu0_L1D TOTAL     ACCESS:     521508  HIT:     519682  MISS:       1826
cpu0_L1D LOAD      ACCESS:     298964  HIT:     297914  MISS:       1050
cpu0_L1D RFO       ACCESS:     222161  HIT:     221694  MISS:        467
cpu0_L1D PREFETCH  ACCESS:          0  HIT:          0  MISS:          0
cpu0_L1D WRITEBACK ACCESS:          0  HIT:          0  MISS:          0
cpu0_L2C TOTAL     ACCESS:       3817  HIT:       2823  MISS:        994
cpu0_L2C LOAD      ACCESS:       2146  HIT:       1380  MISS:        766
cpu0_L2C RFO       ACCESS:        467  HIT:        360  MISS:        107
cpu0_L2C PREFETCH  ACCESS:          0  HIT:          0  MISS:          0
cpu0_L2C WRITEBACK ACCESS:        895  HIT:        869  MISS:         26
LLC TOTAL     ACCESS:       1551  HIT:        976  MISS:        575
LLC LOAD      ACCESS:        766  HIT:        203  MISS:        563
LLC RFO       ACCESS:        107  HIT:         95  MISS:         12
LLC PREFETCH  ACCESS:          0  HIT:          0  MISS:          0
LLC WRITEBACK ACCESS:        583  HIT:        583  MISS:          0
Heartbeat CPU 0 instructions: 54000000 cycles: 15707745 heartbeat IPC: 1.2369 cumulative IPC: 1.24705 (Simulation time: 0 hr 26 min 47 sec) 

Region of Interest Statistics
cpu0_DTLB TOTAL     ACCESS:     736107  HIT:     734862  MISS:       1245
cpu0_DTLB LOAD      ACCESS:     515238  HIT:     514041  MISS:       1197
cpu0_DTLB RFO       ACCESS:     220869  HIT:     220821  MISS:         48
cpu0_DTLB PREFETCH  ACCESS:          0  HIT:          0  MISS:          0
cpu0_DTLB WRITEBACK ACCESS:          0  HIT:          0  MISS:          0
cpu0_ITLB TOTAL     ACCESS:     317197  HIT:     317197  MISS:          0
cpu0_ITLB LOAD      ACCESS:     317197  HIT:     317197  MISS:          0
cpu0_ITLB RFO       ACCESS:          0  HIT:          0  MISS:          0
cpu0_ITLB PREFETCH  ACCESS:          0  HIT:          0  MISS:          0
cpu0_ITLB WRITEBACK ACCESS:          0  HIT:          0  MISS:          0
cpu0_L1I TOTAL     ACCESS:     411314  HIT:     409362  MISS:       1952
cpu0_L1I LOAD      ACCESS:     411314  HIT:     409362  MISS:       1952
cpu0_L1I RFO       ACCESS:          0  HIT:          0  MISS:          0
cpu0_L1I PREFETCH  ACCESS:          0  HIT:          0  MISS:          0
cpu0_L1I WRITEBACK ACCESS:          0  HIT:          0  MISS:          0
cpu0_STLB TOTAL     ACCESS:       1245  HIT:        476  MISS:        769
cpu0_STLB LOAD      ACCESS:       1197  HIT:        429  MISS:        768
cpu0_STLB RFO       ACCESS:         48  HIT:         47  MISS:          1
cpu0_STLB PREFETCH  ACCESS:          0  HIT:          0  MISS:          0
cpu0_STLB WRITEBACK ACCESS:          0  HIT:          0  MISS:          0
cpu0_L1D TOTAL     ACCESS:    1047260  HIT:    1043467  MISS:       3793
cpu0_L1D LOAD      ACCESS:     599097  HIT:     596895  MISS:       2202
cpu0_L1D RFO       ACCESS:     447399  HIT:     446431  MISS:        968
cpu0_L1D PREFETCH  ACCESS:          0  HIT:          0  MISS:          0
cpu0_L1D WRITEBACK ACCESS:          0  HIT:          0  MISS:          0
cpu0_L2C TOTAL     ACCESS:       7643  HIT:       5540  MISS:       2103
cpu0_L2C LOAD      ACCESS:       4154  HIT:       2579  MISS:       1575
cpu0_L2C RFO       ACCESS:        968  HIT:        724  MISS:        244
cpu0_L2C PREFETCH  ACCESS:          0  HIT:          0  MISS:          0
cpu0_L2C WRITEBACK ACCESS:       1898  HIT:       1818  MISS:         80
LLC TOTAL     ACCESS:       3221  HIT:       2039  MISS:       1182
LLC LOAD      ACCESS:       1575  HIT:        406  MISS:       1169
LLC RFO       ACCESS:        244  HIT:        231  MISS:         13
LLC PREFETCH  ACCESS:          0  HIT:          0  MISS:          0
LLC WRITEBACK ACCESS:       1198  HIT:       1198  MISS:          0
Heartbeat CPU 0 instructions: 56000004 cycles: 17303611 heartbeat IPC: 1.25324 cumulative IPC: 1.24911 (Simulation time: 0 hr 27 min 48 sec) 

Region of Interest Statistics
cpu0_DTLB TOTAL     ACCESS:    1103857  HIT:    1102079  MISS:       1778
cpu0_DTLB LOAD      ACCESS:     773622  HIT:     771914  MISS:       1708
cpu0_DTLB RFO       ACCESS:     330235  HIT:     330165  MISS:         70
cpu0_DTLB PREFETCH  ACCESS:          0  HIT:          0  MISS:          0
cpu0_DTLB WRITEBACK ACCESS:          0  HIT:          0  MISS:          0
cpu0_ITLB TOTAL     ACCESS:     480405  HIT:     480405  MISS:          0
cpu0_ITLB LOAD      ACCESS:     480405  HIT:     480405  MISS:          0
cpu0_ITLB RFO       ACCESS:          0  HIT:          0  MISS:          0
cpu0_ITLB PREFETCH  ACCESS:          0  HIT:          0  MISS:          0
cpu0_ITLB WRITEBACK ACCESS:          0  HIT:          0  MISS:          0
cpu0_L1I TOTAL     ACCESS:     611529  HIT:     608669  MISS:       2860
cpu0_L1I LOAD      ACCESS:     611529  HIT:     608669  MISS:       2860
cpu0_L1I RFO       ACCESS:          0  HIT:          0  MISS:          0
cpu0_L1I PREFETCH  ACCESS:          0  HIT:          0  MISS:          0
cpu0_L1I WRITEBACK ACCESS:          0  HIT:          0  MISS:          0
cpu0_STLB TOTAL     ACCESS:       1778  HIT:        655  MISS:       1123
cpu0_STLB LOAD      ACCESS:       1708  HIT:        588  MISS:       1120
cpu0_STLB RFO       ACCESS:         70  HIT:         67  MISS:          3
cpu0_STLB PREFETCH  ACCESS:          0  HIT:          0  MISS:          0
cpu0_STLB WRITEBACK ACCESS:          0  HIT:          0  MISS:          0
cpu0_L1D TOTAL     ACCESS:    1566190  HIT:    1560745  MISS:       5445
cpu0_L1D LOAD      ACCESS:     897446  HIT:     894292  MISS:       3154
cpu0_L1D RFO       ACCESS:     667629  HIT:     666247  MISS:       1382
cpu0_L1D PREFETCH  ACCESS:          0  HIT:          0  MISS:          0
cpu0_L1D WRITEBACK ACCESS:          0  HIT:          0  MISS:          0
cpu0_L2C TOTAL     ACCESS:      10983  HIT:       8053  MISS:       2930
cpu0_L2C LOAD      ACCESS:       6014  HIT:       3846  MISS:       2168
cpu0_L2C RFO       ACCESS:       1382  HIT:       1039  MISS:        343
cpu0_L2C PREFETCH  ACCESS:          0  HIT:          0  MISS:          0
cpu0_L2C WRITEBACK ACCESS:       2678  HIT:       2568  MISS:        110
LLC TOTAL     ACCESS:       4443  HIT:       2750  MISS:       1693
LLC LOAD      ACCESS:       2168  HIT:        489  MISS:       1679
LLC RFO       ACCESS:        343  HIT:        329  MISS:         14
LLC PREFETCH  ACCESS:          0  HIT:          0  MISS:          0
LLC WRITEBACK ACCESS:       1623  HIT:       1623  MISS:          0
Heartbeat CPU 0 instructions: 58000002 cycles: 18884374 heartbeat IPC: 1.26521 cumulative IPC: 1.25309 (Simulation time: 0 hr 28 min 46 sec) 

Region of Interest Statistics
cpu0_DTLB TOTAL     ACCESS:    1469917  HIT:    1467659  MISS:       2258
cpu0_DTLB LOAD      ACCESS:    1031366  HIT:    1029195  MISS:       2171
cpu0_DTLB RFO       ACCESS:     438551  HIT:     438464  MISS:         87
cpu0_DTLB PREFETCH  ACCESS:          0  HIT:          0  MISS:          0
cpu0_DTLB WRITEBACK ACCESS:          0  HIT:          0  MISS:          0
cpu0_ITLB TOTAL     ACCESS:     644713  HIT:     644713  MISS:          0
cpu0_ITLB LOAD      ACCESS:     644713  HIT:     644713  MISS:          0
cpu0_ITLB RFO       ACCESS:          0  HIT:          0  MISS:          0
cpu0_ITLB PREFETCH  ACCESS:          0  HIT:          0  MISS:          0
cpu0_ITLB WRITEBACK ACCESS:          0  HIT:          0  MISS:          0
cpu0_L1I TOTAL     ACCESS:     806315  HIT:     802642  MISS:       3673
cpu0_L1I LOAD      ACCESS:     806315  HIT:     802642  MISS:       3673
cpu0_L1I RFO       ACCESS:          0  HIT:          0  MISS:          0
cpu0_L1I PREFETCH  ACCESS:          0  HIT:          0  MISS:          0
cpu0_L1I WRITEBACK ACCESS:          0  HIT:          0  MISS:          0
cpu0_STLB TOTAL     ACCESS:       2258  HIT:        797  MISS:       1461
cpu0_STLB LOAD      ACCESS:       2171  HIT:        713  MISS:       1458
cpu0_STLB RFO       ACCESS:         87  HIT:         84  MISS:          3
cpu0_STLB PREFETCH  ACCESS:          0  HIT:          0  MISS:          0
cpu0_STLB WRITEBACK ACCESS:          0  HIT:          0  MISS:          0
cpu0_L1D TOTAL     ACCESS:    2078416  HIT:    2071395  MISS:       7021
cpu0_L1D LOAD      ACCESS:    1195536  HIT:    1191394  MISS:       4142
cpu0_L1D RFO       ACCESS:     881427  HIT:     879745  MISS:       1682
cpu0_L1D PREFETCH  ACCESS:          0  HIT:          0  MISS:          0
cpu0_L1D WRITEBACK ACCESS:          0  HIT:          0  MISS:          0
cpu0_L2C TOTAL     ACCESS:      14144  HIT:      10384  MISS:       3760
cpu0_L2C LOAD      ACCESS:       7815  HIT:       4975  MISS:       2840
cpu0_L2C RFO       ACCESS:       1682  HIT:       1291  MISS:        391
cpu0_L2C PREFETCH  ACCESS:          0  HIT:          0  MISS:          0
cpu0_L2C WRITEBACK ACCESS:       3450  HIT:       3318  MISS:        132
LLC TOTAL     ACCESS:       5714  HIT:       3489  MISS:       2225
LLC LOAD      ACCESS:       2840  HIT:        629  MISS:       2211
LLC RFO       ACCESS:        391  HIT:        377  MISS:         14
LLC PREFETCH  ACCESS:          0  HIT:          0  MISS:          0
LLC WRITEBACK ACCESS:       2086  HIT:       2086  MISS:          0
Heartbeat CPU 0 instructions: 60000000 cycles: 20526311 heartbeat IPC: 1.21807 cumulative IPC: 1.24593 (Simulation time: 0 hr 29 min 49 sec) 

Region of Interest Statistics
cpu0_DTLB TOTAL     ACCESS:    1844281  HIT:    1841382  MISS:       2899
cpu0_DTLB LOAD      ACCESS:    1293210  HIT:    1290422  MISS:       2788
cpu0_DTLB RFO       ACCESS:     551071  HIT:     550960  MISS:        111
cpu0_DTLB PREFETCH  ACCESS:          0  HIT:          0  MISS:          0
cpu0_DTLB WRITEBACK ACCESS:          0  HIT:          0  MISS:          0
cpu0_ITLB TOTAL     ACCESS:     805525  HIT:     805525  MISS:          0
cpu0_ITLB LOAD      ACCESS:     805525  HIT:     805525  MISS:          0
cpu0_ITLB RFO       ACCESS:          0  HIT:          0  MISS:          0
cpu0_ITLB PREFETCH  ACCESS:          0  HIT:          0  MISS:          0
cpu0_ITLB WRITEBACK ACCESS:          0  HIT:          0  MISS:          0
cpu0_L1I TOTAL     ACCESS:    1009859  HIT:    1005112  MISS:       4747
cpu0_L1I LOAD      ACCESS:    1009859  HIT:    1005112  MISS:       4747
cpu0_L1I RFO       ACCESS:          0  HIT:          0  MISS:          0
cpu0_L1I PREFETCH  ACCESS:          0  HIT:          0  MISS:          0
cpu0_L1I WRITEBACK ACCESS:          0  HIT:          0  MISS:          0
cpu0_STLB TOTAL     ACCESS:       2899  HIT:       1020  MISS:       1879
cpu0_STLB LOAD      ACCESS:       2788  HIT:        912  MISS:       1876
cpu0_STLB RFO       ACCESS:        111  HIT:        108  MISS:          3
cpu0_STLB PREFETCH  ACCESS:          0  HIT:          0  MISS:          0
cpu0_STLB WRITEBACK ACCESS:          0  HIT:          0  MISS:          0
cpu0_L1D TOTAL     ACCESS:    2606155  HIT:    2597097  MISS:       9058
cpu0_L1D LOAD      ACCESS:    1498782  HIT:    1493455  MISS:       5327
cpu0_L1D RFO       ACCESS:    1105503  HIT:    1103305  MISS:       2198
cpu0_L1D PREFETCH  ACCESS:          0  HIT:          0  MISS:          0
cpu0_L1D WRITEBACK ACCESS:          0  HIT:          0  MISS:          0
cpu0_L2C TOTAL     ACCESS:      18245  HIT:      13499  MISS:       4746
cpu0_L2C LOAD      ACCESS:      10074  HIT:       6456  MISS:       3618
cpu0_L2C RFO       ACCESS:       2198  HIT:       1728  MISS:        470
cpu0_L2C PREFETCH  ACCESS:          0  HIT:          0  MISS:          0
cpu0_L2C WRITEBACK ACCESS:       4440  HIT:       4276  MISS:        164
LLC TOTAL     ACCESS:       7213  HIT:       4367  MISS:       2846
LLC LOAD      ACCESS:       3618  HIT:        790  MISS:       2828
LLC RFO       ACCESS:        470  HIT:        452  MISS:         18
LLC PREFETCH  ACCESS:          0  HIT:          0  MISS:          0
LLC WRITEBACK ACCESS:       2631  HIT:       2631  MISS:          0
Heartbeat CPU 0 instructions: 62000002 cycles: 22147764 heartbeat IPC: 1.23346 cumulative IPC: 1.24383 (Simulation time: 0 hr 30 min 52 sec) 

Region of Interest Statistics
cpu0_DTLB TOTAL     ACCESS:    2214092  HIT:    2210752  MISS:       3340
cpu0_DTLB LOAD      ACCESS:    1554880  HIT:    1551672  MISS:       3208
cpu0_DTLB RFO       ACCESS:     659212  HIT:     659080  MISS:        132
cpu0_DTLB PREFETCH  ACCESS:          0  HIT:          0  MISS:          0
cpu0_DTLB WRITEBACK ACCESS:          0  HIT:          0  MISS:          0
cpu0_ITLB TOTAL     ACCESS:     970006  HIT:     970006  MISS:          0
cpu0_ITLB LOAD      ACCESS:     970006  HIT:     970006  MISS:          0
cpu0_ITLB RFO       ACCESS:          0  HIT:          0  MISS:          0
cpu0_ITLB PREFETCH  ACCESS:          0  HIT:          0  MISS:          0
cpu0_ITLB WRITEBACK ACCESS:          0  HIT:          0  MISS:          0
cpu0_L1I TOTAL     ACCESS:    1210471  HIT:    1204528  MISS:       5943
cpu0_L1I LOAD      ACCESS:    1210471  HIT:    1204528  MISS:       5943
cpu0_L1I RFO       ACCESS:          0  HIT:          0  MISS:          0
cpu0_L1I PREFETCH  ACCESS:          0  HIT:          0  MISS:          0
cpu0_L1I WRITEBACK ACCESS:          0  HIT:          0  MISS:          0
cpu0_STLB TOTAL     ACCESS:       3340  HIT:       1144  MISS:       2196
cpu0_STLB LOAD      ACCESS:       3208  HIT:       1015  MISS:       2193
cpu0_STLB RFO       ACCESS:        132  HIT:        129  MISS:          3
cpu0_STLB PREFETCH  ACCESS:          0  HIT:          0  MISS:          0
cpu0_STLB WRITEBACK ACCESS:          0  HIT:          0  MISS:          0
cpu0_L1D TOTAL     ACCESS:    3123615  HIT:    3113026  MISS:      10589
cpu0_L1D LOAD      ACCESS:    1801983  HIT:    1795738  MISS:       6245
cpu0_L1D RFO       ACCESS:    1319446  HIT:    1316894  MISS:       2552
cpu0_L1D PREFETCH  ACCESS:          0  HIT:          0  MISS:          0
cpu0_L1D WRITEBACK ACCESS:          0  HIT:          0  MISS:          0
cpu0_L2C TOTAL     ACCESS:      21720  HIT:      16287  MISS:       5433
cpu0_L2C LOAD      ACCESS:      12188  HIT:       7998  MISS:       4190
cpu0_L2C RFO       ACCESS:       2552  HIT:       2064  MISS:        488
cpu0_L2C PREFETCH  ACCESS:          0  HIT:          0  MISS:          0
cpu0_L2C WRITEBACK ACCESS:       5188  HIT:       5012  MISS:        176
LLC TOTAL     ACCESS:       8259  HIT:       4941  MISS:       3318
LLC LOAD      ACCESS:       4190  HIT:        891  MISS:       3299
LLC RFO       ACCESS:        488  HIT:        469  MISS:         19
LLC PREFETCH  ACCESS:          0  HIT:          0  MISS:          0
LLC WRITEBACK ACCESS:       3002  HIT:       3002  MISS:          0
Heartbeat CPU 0 instructions: 64000003 cycles: 23748769 heartbeat IPC: 1.24922 cumulative IPC: 1.2446 (Simulation time: 0 hr 31 min 54 sec) 

Region of Interest Statistics
cpu0_DTLB TOTAL     ACCESS:    2581675  HIT:    2577825  MISS:       3850
cpu0_DTLB LOAD      ACCESS:    1813341  HIT:    1809647  MISS:       3694
cpu0_DTLB RFO       ACCESS:     768334  HIT:     768178  MISS:        156
cpu0_DTLB PREFETCH  ACCESS:          0  HIT:          0  MISS:          0
cpu0_DTLB WRITEBACK ACCESS:          0  HIT:          0  MISS:          0
cpu0_ITLB TOTAL     ACCESS:    1133882  HIT:    1133880  MISS:          2
cpu0_ITLB LOAD      ACCESS:    1133882  HIT:    1133880  MISS:          2
cpu0_ITLB RFO       ACCESS:          0  HIT:          0  MISS:          0
cpu0_ITLB PREFETCH  ACCESS:          0  HIT:          0  MISS:          0
cpu0_ITLB WRITEBACK ACCESS:          0  HIT:          0  MISS:          0
cpu0_L1I TOTAL     ACCESS:    1409466  HIT:    1402557  MISS:       6909
cpu0_L1I LOAD      ACCESS:    1409466  HIT:    1402557  MISS:       6909
cpu0_L1I RFO       ACCESS:          0  HIT:          0  MISS:          0
cpu0_L1I PREFETCH  ACCESS:          0  HIT:          0  MISS:          0
cpu0_L1I WRITEBACK ACCESS:          0  HIT:          0  MISS:          0
cpu0_STLB TOTAL     ACCESS:       3852  HIT:       1335  MISS:       2517
cpu0_STLB LOAD      ACCESS:       3696  HIT:       1182  MISS:       2514
cpu0_STLB RFO       ACCESS:        156  HIT:        153  MISS:          3
cpu0_STLB PREFETCH  ACCESS:          0  HIT:          0  MISS:          0
cpu0_STLB WRITEBACK ACCESS:          0  HIT:          0  MISS:          0
cpu0_L1D TOTAL     ACCESS:    3641609  HIT:    3629489  MISS:      12120
cpu0_L1D LOAD      ACCESS:    2101948  HIT:    2094788  MISS:       7160
cpu0_L1D RFO       ACCESS:    1537156  HIT:    1534252  MISS:       2904
cpu0_L1D PREFETCH  ACCESS:          0  HIT:          0  MISS:          0
cpu0_L1D WRITEBACK ACCESS:          0  HIT:          0  MISS:          0
cpu0_L2C TOTAL     ACCESS:      24984  HIT:      18776  MISS:       6208
cpu0_L2C LOAD      ACCESS:      14069  HIT:       9296  MISS:       4773
cpu0_L2C RFO       ACCESS:       2904  HIT:       2334  MISS:        570
cpu0_L2C PREFETCH  ACCESS:          0  HIT:          0  MISS:          0
cpu0_L2C WRITEBACK ACCESS:       5955  HIT:       5750  MISS:        205
LLC TOTAL     ACCESS:       9435  HIT:       5618  MISS:       3817
LLC LOAD      ACCESS:       4773  HIT:        975  MISS:       3798
LLC RFO       ACCESS:        570  HIT:        551  MISS:         19
LLC PREFETCH  ACCESS:          0  HIT:          0  MISS:          0
LLC WRITEBACK ACCESS:       3432  HIT:       3432  MISS:          0
Heartbeat CPU 0 instructions: 66000002 cycles: 25349953 heartbeat IPC: 1.24908 cumulative IPC: 1.24516 (Simulation time: 0 hr 32 min 55 sec) 

Region of Interest Statistics
cpu0_DTLB TOTAL     ACCESS:    2949353  HIT:    2944946  MISS:       4407
cpu0_DTLB LOAD      ACCESS:    2071547  HIT:    2067323  MISS:       4224
cpu0_DTLB RFO       ACCESS:     877806  HIT:     877623  MISS:        183
cpu0_DTLB PREFETCH  ACCESS:          0  HIT:          0  MISS:          0
cpu0_DTLB WRITEBACK ACCESS:          0  HIT:          0  MISS:          0
cpu0_ITLB TOTAL     ACCESS:    1296221  HIT:    1296219  MISS:          2
cpu0_ITLB LOAD      ACCESS:    1296221  HIT:    1296219  MISS:          2
cpu0_ITLB RFO       ACCESS:          0  HIT:          0  MISS:          0
cpu0_ITLB PREFETCH  ACCESS:          0  HIT:          0  MISS:          0
cpu0_ITLB WRITEBACK ACCESS:          0  HIT:          0  MISS:          0
cpu0_L1I TOTAL     ACCESS:    1609976  HIT:    1602221  MISS:       7755
cpu0_L1I LOAD      ACCESS:    1609976  HIT:    1602221  MISS:       7755
cpu0_L1I RFO       ACCESS:          0  HIT:          0  MISS:          0
cpu0_L1I PREFETCH  ACCESS:          0  HIT:          0  MISS:          0
cpu0_L1I WRITEBACK ACCESS:          0  HIT:          0  MISS:          0
cpu0_STLB TOTAL     ACCESS:       4409  HIT:       1549  MISS:       2860
cpu0_STLB LOAD      ACCESS:       4226  HIT:       1369  MISS:       2857
cpu0_STLB RFO       ACCESS:        183  HIT:        180  MISS:          3
cpu0_STLB PREFETCH  ACCESS:          0  HIT:          0  MISS:          0
cpu0_STLB WRITEBACK ACCESS:          0  HIT:          0  MISS:          0
cpu0_L1D TOTAL     ACCESS:    4161188  HIT:    4147131  MISS:      14057
cpu0_L1D LOAD      ACCESS:    2402023  HIT:    2393742  MISS:       8281
cpu0_L1D RFO       ACCESS:    1756319  HIT:    1752884  MISS:       3435
cpu0_L1D PREFETCH  ACCESS:          0  HIT:          0  MISS:          0
cpu0_L1D WRITEBACK ACCESS:          0  HIT:          0  MISS:          0
cpu0_L2C TOTAL     ACCESS:      28698  HIT:      21509  MISS:       7189
cpu0_L2C LOAD      ACCESS:      16036  HIT:      10539  MISS:       5497
cpu0_L2C RFO       ACCESS:       3435  HIT:       2728  MISS:        707
cpu0_L2C PREFETCH  ACCESS:          0  HIT:          0  MISS:          0
cpu0_L2C WRITEBACK ACCESS:       6886  HIT:       6645  MISS:        241
LLC TOTAL     ACCESS:      10928  HIT:       6570  MISS:       4358
LLC LOAD      ACCESS:       5497  HIT:       1160  MISS:       4337
LLC RFO       ACCESS:        707  HIT:        686  MISS:         21
LLC PREFETCH  ACCESS:          0  HIT:          0  MISS:          0
LLC WRITEBACK ACCESS:       3980  HIT:       3980  MISS:          0
Heartbeat CPU 0 instructions: 68000002 cycles: 26983887 heartbeat IPC: 1.22404 cumulative IPC: 1.24278 (Simulation time: 0 hr 33 min 57 sec) 

Region of Interest Statistics
cpu0_DTLB TOTAL     ACCESS:    3320310  HIT:    3315296  MISS:       5014
cpu0_DTLB LOAD      ACCESS:    2332248  HIT:    2327453  MISS:       4795
cpu0_DTLB RFO       ACCESS:     988062  HIT:     987843  MISS:        219
cpu0_DTLB PREFETCH  ACCESS:          0  HIT:          0  MISS:          0
cpu0_DTLB WRITEBACK ACCESS:          0  HIT:          0  MISS:          0
cpu0_ITLB TOTAL     ACCESS:    1458125  HIT:    1458123  MISS:          2
cpu0_ITLB LOAD      ACCESS:    1458125  HIT:    1458123  MISS:          2
cpu0_ITLB RFO       ACCESS:          0  HIT:          0  MISS:          0
cpu0_ITLB PREFETCH  ACCESS:          0  HIT:          0  MISS:          0
cpu0_ITLB WRITEBACK ACCESS:          0  HIT:          0  MISS:          0
cpu0_L1I TOTAL     ACCESS:    1815454  HIT:    1806756  MISS:       8698
cpu0_L1I LOAD      ACCESS:    1815454  HIT:    1806756  MISS:       8698
cpu0_L1I RFO       ACCESS:          0  HIT:          0  MISS:          0
cpu0_L1I PREFETCH  ACCESS:          0  HIT:          0  MISS:          0
cpu0_L1I WRITEBACK ACCESS:          0  HIT:          0  MISS:          0
cpu0_STLB TOTAL     ACCESS:       5016  HIT:       1779  MISS:       3237
cpu0_STLB LOAD      ACCESS:       4797  HIT:       1563  MISS:       3234
cpu0_STLB RFO       ACCESS:        219  HIT:        216  MISS:          3
cpu0_STLB PREFETCH  ACCESS:          0  HIT:          0  MISS:          0
cpu0_STLB WRITEBACK ACCESS:          0  HIT:          0  MISS:          0
cpu0_L1D TOTAL     ACCESS:    4682596  HIT:    4666732  MISS:      15864
cpu0_L1D LOAD      ACCESS:    2703824  HIT:    2694489  MISS:       9335
cpu0_L1D RFO       ACCESS:    1975551  HIT:    1971671  MISS:       3880
cpu0_L1D PREFETCH  ACCESS:          0  HIT:          0  MISS:          0
cpu0_L1D WRITEBACK ACCESS:          0  HIT:          0  MISS:          0
cpu0_L2C TOTAL     ACCESS:      32334  HIT:      24355  MISS:       7979
cpu0_L2C LOAD      ACCESS:      18033  HIT:      11905  MISS:       6128
cpu0_L2C RFO       ACCESS:       3880  HIT:       3136  MISS:        744
cpu0_L2C PREFETCH  ACCESS:          0  HIT:          0  MISS:          0
cpu0_L2C WRITEBACK ACCESS:       7772  HIT:       7509  MISS:        263
LLC TOTAL     ACCESS:      12143  HIT:       7259  MISS:       4884
LLC LOAD      ACCESS:       6128  HIT:       1265  MISS:       4863
LLC RFO       ACCESS:        744  HIT:        723  MISS:         21
LLC PREFETCH  ACCESS:          0  HIT:          0  MISS:          0
LLC WRITEBACK ACCESS:       4427  HIT:       4427  MISS:          0
Heartbeat CPU 0 instructions: 70000002 cycles: 28583455 heartbeat IPC: 1.25034 cumulative IPC: 1.24353 (Simulation time: 0 hr 35 min 0 sec) 

Region of Interest Statistics
cpu0_DTLB TOTAL     ACCESS:    3689136  HIT:    3683423  MISS:       5713
cpu0_DTLB LOAD      ACCESS:    2589227  HIT:    2583773  MISS:       5454
cpu0_DTLB RFO       ACCESS:    1099909  HIT:    1099650  MISS:        259
cpu0_DTLB PREFETCH  ACCESS:          0  HIT:          0  MISS:          0
cpu0_DTLB WRITEBACK ACCESS:          0  HIT:          0  MISS:          0
cpu0_ITLB TOTAL     ACCESS:    1622186  HIT:    1622184  MISS:          2
cpu0_ITLB LOAD      ACCESS:    1622186  HIT:    1622184  MISS:          2
cpu0_ITLB RFO       ACCESS:          0  HIT:          0  MISS:          0
cpu0_ITLB PREFETCH  ACCESS:          0  HIT:          0  MISS:          0
cpu0_ITLB WRITEBACK ACCESS:          0  HIT:          0  MISS:          0
cpu0_L1I TOTAL     ACCESS:    2015464  HIT:    2005998  MISS:       9466
cpu0_L1I LOAD      ACCESS:    2015464  HIT:    2005998  MISS:       9466
cpu0_L1I RFO       ACCESS:          0  HIT:          0  MISS:          0
cpu0_L1I PREFETCH  ACCESS:          0  HIT:          0  MISS:          0
cpu0_L1I WRITEBACK ACCESS:          0  HIT:          0  MISS:          0
cpu0_STLB TOTAL     ACCESS:       5715  HIT:       2128  MISS:       3587
cpu0_STLB LOAD      ACCESS:       5456  HIT:       1872  MISS:       3584
cpu0_STLB RFO       ACCESS:        259  HIT:        256  MISS:          3
cpu0_STLB PREFETCH  ACCESS:          0  HIT:          0  MISS:          0
cpu0_STLB WRITEBACK ACCESS:          0  HIT:          0  MISS:          0
cpu0_L1D TOTAL     ACCESS:    5202146  HIT:    5184757  MISS:      17389
cpu0_L1D LOAD      ACCESS:    3001871  HIT:    2991626  MISS:      10245
cpu0_L1D RFO       ACCESS:    2196707  HIT:    2192490  MISS:       4217
cpu0_L1D PREFETCH  ACCESS:          0  HIT:          0  MISS:          0
cpu0_L1D WRITEBACK ACCESS:          0  HIT:          0  MISS:          0
cpu0_L2C TOTAL     ACCESS:      35414  HIT:      26658  MISS:       8756
cpu0_L2C LOAD      ACCESS:      19711  HIT:      12973  MISS:       6738
cpu0_L2C RFO       ACCESS:       4217  HIT:       3413  MISS:        804
cpu0_L2C PREFETCH  ACCESS:          0  HIT:          0  MISS:          0
cpu0_L2C WRITEBACK ACCESS:       8559  HIT:       8272  MISS:        287
LLC TOTAL     ACCESS:      13319  HIT:       7890  MISS:       5429
LLC LOAD      ACCESS:       6738  HIT:       1330  MISS:       5408
LLC RFO       ACCESS:        804  HIT:        783  MISS:         21
LLC PREFETCH  ACCESS:          0  HIT:          0  MISS:          0
LLC WRITEBACK ACCESS:       4850  HIT:       4850  MISS:          0
Heartbeat CPU 0 instructions: 72000001 cycles: 30182109 heartbeat IPC: 1.25105 cumulative IPC: 1.24421 (Simulation time: 0 hr 36 min 2 sec) 

Region of Interest Statistics
cpu0_DTLB TOTAL     ACCESS:    4056657  HIT:    4050180  MISS:       6477
cpu0_DTLB LOAD      ACCESS:    2847007  HIT:    2840845  MISS:       6162
cpu0_DTLB RFO       ACCESS:    1209650  HIT:    1209335  MISS:        315
cpu0_DTLB PREFETCH  ACCESS:          0  HIT:          0  MISS:          0
cpu0_DTLB WRITEBACK ACCESS:          0  HIT:          0  MISS:          0
cpu0_ITLB TOTAL     ACCESS:    1785210  HIT:    1785208  MISS:          2
cpu0_ITLB LOAD      ACCESS:    1785210  HIT:    1785208  MISS:          2
cpu0_ITLB RFO       ACCESS:          0  HIT:          0  MISS:          0
cpu0_ITLB PREFETCH  ACCESS:          0  HIT:          0  MISS:          0
cpu0_ITLB WRITEBACK ACCESS:          0  HIT:          0  MISS:          0
cpu0_L1I TOTAL     ACCESS:    2215773  HIT:    2205340  MISS:      10433
cpu0_L1I LOAD      ACCESS:    2215773  HIT:    2205340  MISS:      10433
cpu0_L1I RFO       ACCESS:          0  HIT:          0  MISS:          0
cpu0_L1I PREFETCH  ACCESS:          0  HIT:          0  MISS:          0
cpu0_L1I WRITEBACK ACCESS:          0  HIT:          0  MISS:          0
cpu0_STLB TOTAL     ACCESS:       6479  HIT:       2559  MISS:       3920
cpu0_STLB LOAD      ACCESS:       6164  HIT:       2248  MISS:       3916
cpu0_STLB RFO       ACCESS:        315  HIT:        311  MISS:          4
cpu0_STLB PREFETCH  ACCESS:          0  HIT:          0  MISS:          0
cpu0_STLB WRITEBACK ACCESS:          0  HIT:          0  MISS:          0
cpu0_L1D TOTAL     ACCESS:    5720045  HIT:    5701108  MISS:      18937
cpu0_L1D LOAD      ACCESS:    3301930  HIT:    3290746  MISS:      11184
cpu0_L1D RFO       ACCESS:    2414215  HIT:    2409664  MISS:       4551
cpu0_L1D PREFETCH  ACCESS:          0  HIT:          0  MISS:          0
cpu0_L1D WRITEBACK ACCESS:          0  HIT:          0  MISS:          0
cpu0_L2C TOTAL     ACCESS:      38680  HIT:      29134  MISS:       9546
cpu0_L2C LOAD      ACCESS:      21617  HIT:      14221  MISS:       7396
cpu0_L2C RFO       ACCESS:       4551  HIT:       3717  MISS:        834
cpu0_L2C PREFETCH  ACCESS:          0  HIT:          0  MISS:          0
cpu0_L2C WRITEBACK ACCESS:       9310  HIT:       8994  MISS:        316
LLC TOTAL     ACCESS:      14521  HIT:       8566  MISS:       5955
LLC LOAD      ACCESS:       7396  HIT:       1463  MISS:       5933
LLC RFO       ACCESS:        834  HIT:        812  MISS:         22
LLC PREFETCH  ACCESS:          0  HIT:          0  MISS:          0
LLC WRITEBACK ACCESS:       5291  HIT:       5291  MISS:          0
Heartbeat CPU 0 instructions: 74000003 cycles: 31800932 heartbeat IPC: 1.23547 cumulative IPC: 1.24347 (Simulation time: 0 hr 37 min 2 sec) 

Region of Interest Statistics
cpu0_DTLB TOTAL     ACCESS:    4422914  HIT:    4415813  MISS:       7101
cpu0_DTLB LOAD      ACCESS:    3103971  HIT:    3097223  MISS:       6748
cpu0_DTLB RFO       ACCESS:    1318943  HIT:    1318590  MISS:        353
cpu0_DTLB PREFETCH  ACCESS:          0  HIT:          0  MISS:          0
cpu0_DTLB WRITEBACK ACCESS:          0  HIT:          0  MISS:          0
cpu0_ITLB TOTAL     ACCESS:    1950201  HIT:    1950199  MISS:          2
cpu0_ITLB LOAD      ACCESS:    1950201  HIT:    1950199  MISS:          2
cpu0_ITLB RFO       ACCESS:          0  HIT:          0  MISS:          0
cpu0_ITLB PREFETCH  ACCESS:          0  HIT:          0  MISS:          0
cpu0_ITLB WRITEBACK ACCESS:          0  HIT:          0  MISS:          0
cpu0_L1I TOTAL     ACCESS:    2413186  HIT:    2401890  MISS:      11296
cpu0_L1I LOAD      ACCESS:    2413186  HIT:    2401890  MISS:      11296
cpu0_L1I RFO       ACCESS:          0  HIT:          0  MISS:          0
cpu0_L1I PREFETCH  ACCESS:          0  HIT:          0  MISS:          0
cpu0_L1I WRITEBACK ACCESS:          0  HIT:          0  MISS:          0
cpu0_STLB TOTAL     ACCESS:       7103  HIT:       2804  MISS:       4299
cpu0_STLB LOAD      ACCESS:       6750  HIT:       2455  MISS:       4295
cpu0_STLB RFO       ACCESS:        353  HIT:        349  MISS:          4
cpu0_STLB PREFETCH  ACCESS:          0  HIT:          0  MISS:          0
cpu0_STLB WRITEBACK ACCESS:          0  HIT:          0  MISS:          0
cpu0_L1D TOTAL     ACCESS:    6235872  HIT:    6215010  MISS:      20862
cpu0_L1D LOAD      ACCESS:    3600416  HIT:    3588067  MISS:      12349
cpu0_L1D RFO       ACCESS:    2631179  HIT:    2626159  MISS:       5020
cpu0_L1D PREFETCH  ACCESS:          0  HIT:          0  MISS:          0
cpu0_L1D WRITEBACK ACCESS:          0  HIT:          0  MISS:          0
cpu0_L2C TOTAL     ACCESS:      42377  HIT:      31863  MISS:      10514
cpu0_L2C LOAD      ACCESS:      23645  HIT:      15487  MISS:       8158
cpu0_L2C RFO       ACCESS:       5020  HIT:       4108  MISS:        912
cpu0_L2C PREFETCH  ACCESS:          0  HIT:          0  MISS:          0
cpu0_L2C WRITEBACK ACCESS:      10219  HIT:       9869  MISS:        350
LLC TOTAL     ACCESS:      16002  HIT:       9480  MISS:       6522
LLC LOAD      ACCESS:       8158  HIT:       1662  MISS:       6496
LLC RFO       ACCESS:        912  HIT:        886  MISS:         26
LLC PREFETCH  ACCESS:          0  HIT:          0  MISS:          0
LLC WRITEBACK ACCESS:       5838  HIT:       5838  MISS:          0
Heartbeat CPU 0 instructions: 76000002 cycles: 33438481 heartbeat IPC: 1.22134 cumulative IPC: 1.24174 (Simulation time: 0 hr 38 min 4 sec) 

Region of Interest Statistics
cpu0_DTLB TOTAL     ACCESS:    4796204  HIT:    4788541  MISS:       7663
cpu0_DTLB LOAD      ACCESS:    3364076  HIT:    3356786  MISS:       7290
cpu0_DTLB RFO       ACCESS:    1432128  HIT:    1431755  MISS:        373
cpu0_DTLB PREFETCH  ACCESS:          0  HIT:          0  MISS:          0
cpu0_DTLB WRITEBACK ACCESS:          0  HIT:          0  MISS:          0
cpu0_ITLB TOTAL     ACCESS:    2113175  HIT:    2113173  MISS:          2
cpu0_ITLB LOAD      ACCESS:    2113175  HIT:    2113173  MISS:          2
cpu0_ITLB RFO       ACCESS:          0  HIT:          0  MISS:          0
cpu0_ITLB PREFETCH  ACCESS:          0  HIT:          0  MISS:          0
cpu0_ITLB WRITEBACK ACCESS:          0  HIT:          0  MISS:          0
cpu0_L1I TOTAL     ACCESS:    2618448  HIT:    2606423  MISS:      12025
cpu0_L1I LOAD      ACCESS:    2618448  HIT:    2606423  MISS:      12025
cpu0_L1I RFO       ACCESS:          0  HIT:          0  MISS:          0
cpu0_L1I PREFETCH  ACCESS:          0  HIT:          0  MISS:          0
cpu0_L1I WRITEBACK ACCESS:          0  HIT:          0  MISS:          0
cpu0_STLB TOTAL     ACCESS:       7665  HIT:       2949  MISS:       4716
cpu0_STLB LOAD      ACCESS:       7292  HIT:       2581  MISS:       4711
cpu0_STLB RFO       ACCESS:        373  HIT:        368  MISS:          5
cpu0_STLB PREFETCH  ACCESS:          0  HIT:          0  MISS:          0
cpu0_STLB WRITEBACK ACCESS:          0  HIT:          0  MISS:          0
cpu0_L1D TOTAL     ACCESS:    6767034  HIT:    6744368  MISS:      22666
cpu0_L1D LOAD      ACCESS:    3901664  HIT:    3888214  MISS:      13450
cpu0_L1D RFO       ACCESS:    2860682  HIT:    2855290  MISS:       5392
cpu0_L1D PREFETCH  ACCESS:          0  HIT:          0  MISS:          0
cpu0_L1D WRITEBACK ACCESS:          0  HIT:          0  MISS:          0
cpu0_L2C TOTAL     ACCESS:      45678  HIT:      34212  MISS:      11466
cpu0_L2C LOAD      ACCESS:      25475  HIT:      16627  MISS:       8848
cpu0_L2C RFO       ACCESS:       5392  HIT:       4378  MISS:       1014
cpu0_L2C PREFETCH  ACCESS:          0  HIT:          0  MISS:          0
cpu0_L2C WRITEBACK ACCESS:      10987  HIT:      10592  MISS:        395
LLC TOTAL     ACCESS:      17399  HIT:      10310  MISS:       7089
LLC LOAD      ACCESS:       8848  HIT:       1785  MISS:       7063
LLC RFO       ACCESS:       1014  HIT:        988  MISS:         26
LLC PREFETCH  ACCESS:          0  HIT:          0  MISS:          0
LLC WRITEBACK ACCESS:       6328  HIT:       6328  MISS:          0
Heartbeat CPU 0 instructions: 78000004 cycles: 35073299 heartbeat IPC: 1.22338 cumulative IPC: 1.24041 (Simulation time: 0 hr 39 min 7 sec) 

Region of Interest Statistics
cpu0_DTLB TOTAL     ACCESS:    5169236  HIT:    5161037  MISS:       8199
cpu0_DTLB LOAD      ACCESS:    3623297  HIT:    3615490  MISS:       7807
cpu0_DTLB RFO       ACCESS:    1545939  HIT:    1545547  MISS:        392
cpu0_DTLB PREFETCH  ACCESS:          0  HIT:          0  MISS:          0
cpu0_DTLB WRITEBACK ACCESS:          0  HIT:          0  MISS:          0
cpu0_ITLB TOTAL     ACCESS:    2273173  HIT:    2273171  MISS:          2
cpu0_ITLB LOAD      ACCESS:    2273173  HIT:    2273171  MISS:          2
cpu0_ITLB RFO       ACCESS:          0  HIT:          0  MISS:          0
cpu0_ITLB PREFETCH  ACCESS:          0  HIT:          0  MISS:          0
cpu0_ITLB WRITEBACK ACCESS:          0  HIT:          0  MISS:          0
cpu0_L1I TOTAL     ACCESS:    2828566  HIT:    2815741  MISS:      12825
cpu0_L1I LOAD      ACCESS:    2828566  HIT:    2815741  MISS:      12825
cpu0_L1I RFO       ACCESS:          0  HIT:          0  MISS:          0
cpu0_L1I PREFETCH  ACCESS:          0  HIT:          0  MISS:          0
cpu0_L1I WRITEBACK ACCESS:          0  HIT:          0  MISS:          0
cpu0_STLB TOTAL     ACCESS:       8201  HIT:       3078  MISS:       5123
cpu0_STLB LOAD      ACCESS:       7809  HIT:       2691  MISS:       5118
cpu0_STLB RFO       ACCESS:        392  HIT:        387  MISS:          5
cpu0_STLB PREFETCH  ACCESS:          0  HIT:          0  MISS:          0
cpu0_STLB WRITEBACK ACCESS:          0  HIT:          0  MISS:          0
cpu0_L1D TOTAL     ACCESS:    7302117  HIT:    7277575  MISS:      24542
cpu0_L1D LOAD      ACCESS:    4202814  HIT:    4188213  MISS:      14601
cpu0_L1D RFO       ACCESS:    3094210  HIT:    3088437  MISS:       5773
cpu0_L1D PREFETCH  ACCESS:          0  HIT:          0  MISS:          0
cpu0_L1D WRITEBACK ACCESS:          0  HIT:          0  MISS:          0
cpu0_L2C TOTAL     ACCESS:      49191  HIT:      36707  MISS:      12484
cpu0_L2C LOAD      ACCESS:      27426  HIT:      17790  MISS:       9636
cpu0_L2C RFO       ACCESS:       5773  HIT:       4675  MISS:       1098
cpu0_L2C PREFETCH  ACCESS:          0  HIT:          0  MISS:          0
cpu0_L2C WRITEBACK ACCESS:      11824  HIT:      11397  MISS:        427
LLC TOTAL     ACCESS:      18913  HIT:      11198  MISS:       7715
LLC LOAD      ACCESS:       9636  HIT:       1949  MISS:       7687
LLC RFO       ACCESS:       1098  HIT:       1070  MISS:         28
LLC PREFETCH  ACCESS:          0  HIT:          0  MISS:          0
LLC WRITEBACK ACCESS:       6856  HIT:       6856  MISS:          0
Heartbeat CPU 0 instructions: 80000002 cycles: 36675715 heartbeat IPC: 1.24811 cumulative IPC: 1.24092 (Simulation time: 0 hr 40 min 12 sec) 

Region of Interest Statistics
cpu0_DTLB TOTAL     ACCESS:    5540277  HIT:    5531590  MISS:       8687
cpu0_DTLB LOAD      ACCESS:    3885992  HIT:    3877705  MISS:       8287
cpu0_DTLB RFO       ACCESS:    1654285  HIT:    1653885  MISS:        400
cpu0_DTLB PREFETCH  ACCESS:          0  HIT:          0  MISS:          0
cpu0_DTLB WRITEBACK ACCESS:          0  HIT:          0  MISS:          0
cpu0_ITLB TOTAL     ACCESS:    2428976  HIT:    2428974  MISS:          2
cpu0_ITLB LOAD      ACCESS:    2428976  HIT:    2428974  MISS:          2
cpu0_ITLB RFO       ACCESS:          0  HIT:          0  MISS:          0
cpu0_ITLB PREFETCH  ACCESS:          0  HIT:          0  MISS:          0
cpu0_ITLB WRITEBACK ACCESS:          0  HIT:          0  MISS:          0
cpu0_L1I TOTAL     ACCESS:    3040020  HIT:    3026227  MISS:      13793
cpu0_L1I LOAD      ACCESS:    3040020  HIT:    3026227  MISS:      13793
cpu0_L1I RFO       ACCESS:          0  HIT:          0  MISS:          0
cpu0_L1I PREFETCH  ACCESS:          0  HIT:          0  MISS:          0
cpu0_L1I WRITEBACK ACCESS:          0  HIT:          0  MISS:          0
cpu0_STLB TOTAL     ACCESS:       8689  HIT:       3170  MISS:       5519
cpu0_STLB LOAD      ACCESS:       8289  HIT:       2775  MISS:       5514
cpu0_STLB RFO       ACCESS:        400  HIT:        395  MISS:          5
cpu0_STLB PREFETCH  ACCESS:          0  HIT:          0  MISS:          0
cpu0_STLB WRITEBACK ACCESS:          0  HIT:          0  MISS:          0
cpu0_L1D TOTAL     ACCESS:    7828244  HIT:    7801945  MISS:      26299
cpu0_L1D LOAD      ACCESS:    4506535  HIT:    4490834  MISS:      15701
cpu0_L1D RFO       ACCESS:    3316227  HIT:    3310136  MISS:       6091
cpu0_L1D PREFETCH  ACCESS:          0  HIT:          0  MISS:          0
cpu0_L1D WRITEBACK ACCESS:          0  HIT:          0  MISS:          0
cpu0_L2C TOTAL     ACCESS:      52737  HIT:      39371  MISS:      13366
cpu0_L2C LOAD      ACCESS:      29494  HIT:      19151  MISS:      10343
cpu0_L2C RFO       ACCESS:       6091  HIT:       4951  MISS:       1140
cpu0_L2C PREFETCH  ACCESS:          0  HIT:          0  MISS:          0
cpu0_L2C WRITEBACK ACCESS:      12645  HIT:      12186  MISS:        459
LLC TOTAL     ACCESS:      20245  HIT:      11929  MISS:       8316
LLC LOAD      ACCESS:      10343  HIT:       2055  MISS:       8288
LLC RFO       ACCESS:       1140  HIT:       1112  MISS:         28
LLC PREFETCH  ACCESS:          0  HIT:          0  MISS:          0
LLC WRITEBACK ACCESS:       7338  HIT:       7338  MISS:          0
Heartbeat CPU 0 instructions: 82000001 cycles: 38282316 heartbeat IPC: 1.24486 cumulative IPC: 1.24117 (Simulation time: 0 hr 41 min 15 sec) 

Region of Interest Statistics
cpu0_DTLB TOTAL     ACCESS:    5913585  HIT:    5904388  MISS:       9197
cpu0_DTLB LOAD      ACCESS:    4147363  HIT:    4138577  MISS:       8786
cpu0_DTLB RFO       ACCESS:    1766222  HIT:    1765811  MISS:        411
cpu0_DTLB PREFETCH  ACCESS:          0  HIT:          0  MISS:          0
cpu0_DTLB WRITEBACK ACCESS:          0  HIT:          0  MISS:          0
cpu0_ITLB TOTAL     ACCESS:    2588129  HIT:    2588127  MISS:          2
cpu0_ITLB LOAD      ACCESS:    2588129  HIT:    2588127  MISS:          2
cpu0_ITLB RFO       ACCESS:          0  HIT:          0  MISS:          0
cpu0_ITLB PREFETCH  ACCESS:          0  HIT:          0  MISS:          0
cpu0_ITLB WRITEBACK ACCESS:          0  HIT:          0  MISS:          0
cpu0_L1I TOTAL     ACCESS:    3250897  HIT:    3236101  MISS:      14796
cpu0_L1I LOAD      ACCESS:    3250897  HIT:    3236101  MISS:      14796
cpu0_L1I RFO       ACCESS:          0  HIT:          0  MISS:          0
cpu0_L1I PREFETCH  ACCESS:          0  HIT:          0  MISS:          0
cpu0_L1I WRITEBACK ACCESS:          0  HIT:          0  MISS:          0
cpu0_STLB TOTAL     ACCESS:       9199  HIT:       3326  MISS:       5873
cpu0_STLB LOAD      ACCESS:       8788  HIT:       2921  MISS:       5867
cpu0_STLB RFO       ACCESS:        411  HIT:        405  MISS:          6
cpu0_STLB PREFETCH  ACCESS:          0  HIT:          0  MISS:          0
cpu0_STLB WRITEBACK ACCESS:          0  HIT:          0  MISS:          0
cpu0_L1D TOTAL     ACCESS:    8357286  HIT:    8329324  MISS:      27962
cpu0_L1D LOAD      ACCESS:    4807894  HIT:    4791162  MISS:      16732
cpu0_L1D RFO       ACCESS:    3543559  HIT:    3537126  MISS:       6433
cpu0_L1D PREFETCH  ACCESS:          0  HIT:          0  MISS:          0
cpu0_L1D WRITEBACK ACCESS:          0  HIT:          0  MISS:          0
cpu0_L2C TOTAL     ACCESS:      56163  HIT:      41967  MISS:      14196
cpu0_L2C LOAD      ACCESS:      31528  HIT:      20530  MISS:      10998
cpu0_L2C RFO       ACCESS:       6433  HIT:       5227  MISS:       1206
cpu0_L2C PREFETCH  ACCESS:          0  HIT:          0  MISS:          0
cpu0_L2C WRITEBACK ACCESS:      13405  HIT:      12911  MISS:        494
LLC TOTAL     ACCESS:      21491  HIT:      12635  MISS:       8856
LLC LOAD      ACCESS:      10998  HIT:       2170  MISS:       8828
LLC RFO       ACCESS:       1206  HIT:       1178  MISS:         28
LLC PREFETCH  ACCESS:          0  HIT:          0  MISS:          0
LLC WRITEBACK ACCESS:       7789  HIT:       7789  MISS:          0
Heartbeat CPU 0 instructions: 84000000 cycles: 39850713 heartbeat IPC: 1.27519 cumulative IPC: 1.24312 (Simulation time: 0 hr 42 min 17 sec) 

Region of Interest Statistics
cpu0_DTLB TOTAL     ACCESS:    6284074  HIT:    6274363  MISS:       9711
cpu0_DTLB LOAD      ACCESS:    4407823  HIT:    4398538  MISS:       9285
cpu0_DTLB RFO       ACCESS:    1876251  HIT:    1875825  MISS:        426
cpu0_DTLB PREFETCH  ACCESS:          0  HIT:          0  MISS:          0
cpu0_DTLB WRITEBACK ACCESS:          0  HIT:          0  MISS:          0
cpu0_ITLB TOTAL     ACCESS:    2746339  HIT:    2746337  MISS:          2
cpu0_ITLB LOAD      ACCESS:    2746339  HIT:    2746337  MISS:          2
cpu0_ITLB RFO       ACCESS:          0  HIT:          0  MISS:          0
cpu0_ITLB PREFETCH  ACCESS:          0  HIT:          0  MISS:          0
cpu0_ITLB WRITEBACK ACCESS:          0  HIT:          0  MISS:          0
cpu0_L1I TOTAL     ACCESS:    3461599  HIT:    3445632  MISS:      15967
cpu0_L1I LOAD      ACCESS:    3461599  HIT:    3445632  MISS:      15967
cpu0_L1I RFO       ACCESS:          0  HIT:          0  MISS:          0
cpu0_L1I PREFETCH  ACCESS:          0  HIT:          0  MISS:          0
cpu0_L1I WRITEBACK ACCESS:          0  HIT:          0  MISS:          0
cpu0_STLB TOTAL     ACCESS:       9713  HIT:       3553  MISS:       6160
cpu0_STLB LOAD      ACCESS:       9287  HIT:       3134  MISS:       6153
cpu0_STLB RFO       ACCESS:        426  HIT:        419  MISS:          7
cpu0_STLB PREFETCH  ACCESS:          0  HIT:          0  MISS:          0
cpu0_STLB WRITEBACK ACCESS:          0  HIT:          0  MISS:          0
cpu0_L1D TOTAL     ACCESS:    8883539  HIT:    8853964  MISS:      29575
cpu0_L1D LOAD      ACCESS:    5108242  HIT:    5090467  MISS:      17775
cpu0_L1D RFO       ACCESS:    3769180  HIT:    3762420  MISS:       6760
cpu0_L1D PREFETCH  ACCESS:          0  HIT:          0  MISS:          0
cpu0_L1D WRITEBACK ACCESS:          0  HIT:          0  MISS:          0
cpu0_L2C TOTAL     ACCESS:      59732  HIT:      44769  MISS:      14963
cpu0_L2C LOAD      ACCESS:      33742  HIT:      22121  MISS:      11621
cpu0_L2C RFO       ACCESS:       6760  HIT:       5495  MISS:       1265
cpu0_L2C PREFETCH  ACCESS:          0  HIT:          0  MISS:          0
cpu0_L2C WRITEBACK ACCESS:      14190  HIT:      13675  MISS:        515
LLC TOTAL     ACCESS:      22682  HIT:      13355  MISS:       9327
LLC LOAD      ACCESS:      11621  HIT:       2322  MISS:       9299
LLC RFO       ACCESS:       1265  HIT:       1237  MISS:         28
LLC PREFETCH  ACCESS:          0  HIT:          0  MISS:          0
LLC WRITEBACK ACCESS:       8234  HIT:       8234  MISS:          0
Heartbeat CPU 0 instructions: 86000003 cycles: 41421249 heartbeat IPC: 1.27345 cumulative IPC: 1.24477 (Simulation time: 0 hr 43 min 21 sec) 

Region of Interest Statistics
cpu0_DTLB TOTAL     ACCESS:    6654175  HIT:    6643975  MISS:      10200
cpu0_DTLB LOAD      ACCESS:    4666216  HIT:    4656462  MISS:       9754
cpu0_DTLB RFO       ACCESS:    1987959  HIT:    1987513  MISS:        446
cpu0_DTLB PREFETCH  ACCESS:          0  HIT:          0  MISS:          0
cpu0_DTLB WRITEBACK ACCESS:          0  HIT:          0  MISS:          0
cpu0_ITLB TOTAL     ACCESS:    2903341  HIT:    2903339  MISS:          2
cpu0_ITLB LOAD      ACCESS:    2903341  HIT:    2903339  MISS:          2
cpu0_ITLB RFO       ACCESS:          0  HIT:          0  MISS:          0
cpu0_ITLB PREFETCH  ACCESS:          0  HIT:          0  MISS:          0
cpu0_ITLB WRITEBACK ACCESS:          0  HIT:          0  MISS:          0
cpu0_L1I TOTAL     ACCESS:    3671816  HIT:    3655092  MISS:      16724
cpu0_L1I LOAD      ACCESS:    3671816  HIT:    3655092  MISS:      16724
cpu0_L1I RFO       ACCESS:          0  HIT:          0  MISS:          0
cpu0_L1I PREFETCH  ACCESS:          0  HIT:          0  MISS:          0
cpu0_L1I WRITEBACK ACCESS:          0  HIT:          0  MISS:          0
cpu0_STLB TOTAL     ACCESS:      10202  HIT:       3688  MISS:       6514
cpu0_STLB LOAD      ACCESS:       9756  HIT:       3249  MISS:       6507
cpu0_STLB RFO       ACCESS:        446  HIT:        439  MISS:          7
cpu0_STLB PREFETCH  ACCESS:          0  HIT:          0  MISS:          0
cpu0_STLB WRITEBACK ACCESS:          0  HIT:          0  MISS:          0
cpu0_L1D TOTAL     ACCESS:    9412988  HIT:    9381655  MISS:      31333
cpu0_L1D LOAD      ACCESS:    5408143  HIT:    5389301  MISS:      18842
cpu0_L1D RFO       ACCESS:    3998377  HIT:    3991210  MISS:       7167
cpu0_L1D PREFETCH  ACCESS:          0  HIT:          0  MISS:          0
cpu0_L1D WRITEBACK ACCESS:          0  HIT:          0  MISS:          0
cpu0_L2C TOTAL     ACCESS:      63099  HIT:      47256  MISS:      15843
cpu0_L2C LOAD      ACCESS:      35566  HIT:      23278  MISS:      12288
cpu0_L2C RFO       ACCESS:       7167  HIT:       5829  MISS:       1338
cpu0_L2C PREFETCH  ACCESS:          0  HIT:          0  MISS:          0
cpu0_L2C WRITEBACK ACCESS:      15042  HIT:      14484  MISS:        558
LLC TOTAL     ACCESS:      24034  HIT:      14134  MISS:       9900
LLC LOAD      ACCESS:      12288  HIT:       2417  MISS:       9871
LLC RFO       ACCESS:       1338  HIT:       1310  MISS:         28
LLC PREFETCH  ACCESS:          0  HIT:          0  MISS:          0
LLC WRITEBACK ACCESS:       8749  HIT:       8748  MISS:          1
Heartbeat CPU 0 instructions: 88000001 cycles: 42998974 heartbeat IPC: 1.26765 cumulative IPC: 1.24595 (Simulation time: 0 hr 44 min 25 sec) 

Region of Interest Statistics
cpu0_DTLB TOTAL     ACCESS:    7023019  HIT:    7012245  MISS:      10774
cpu0_DTLB LOAD      ACCESS:    4922258  HIT:    4911950  MISS:      10308
cpu0_DTLB RFO       ACCESS:    2100761  HIT:    2100295  MISS:        466
cpu0_DTLB PREFETCH  ACCESS:          0  HIT:          0  MISS:          0
cpu0_DTLB WRITEBACK ACCESS:          0  HIT:          0  MISS:          0
cpu0_ITLB TOTAL     ACCESS:    3059060  HIT:    3059058  MISS:          2
cpu0_ITLB LOAD      ACCESS:    3059060  HIT:    3059058  MISS:          2
cpu0_ITLB RFO       ACCESS:          0  HIT:          0  MISS:          0
cpu0_ITLB PREFETCH  ACCESS:          0  HIT:          0  MISS:          0
cpu0_ITLB WRITEBACK ACCESS:          0  HIT:          0  MISS:          0
cpu0_L1I TOTAL     ACCESS:    3883181  HIT:    3865659  MISS:      17522
cpu0_L1I LOAD      ACCESS:    3883181  HIT:    3865659  MISS:      17522
cpu0_L1I RFO       ACCESS:          0  HIT:          0  MISS:          0
cpu0_L1I PREFETCH  ACCESS:          0  HIT:          0  MISS:          0
cpu0_L1I WRITEBACK ACCESS:          0  HIT:          0  MISS:          0
cpu0_STLB TOTAL     ACCESS:      10776  HIT:       3876  MISS:       6900
cpu0_STLB LOAD      ACCESS:      10310  HIT:       3417  MISS:       6893
cpu0_STLB RFO       ACCESS:        466  HIT:        459  MISS:          7
cpu0_STLB PREFETCH  ACCESS:          0  HIT:          0  MISS:          0
cpu0_STLB WRITEBACK ACCESS:          0  HIT:          0  MISS:          0
cpu0_L1D TOTAL     ACCESS:    9944035  HIT:    9910696  MISS:      33339
cpu0_L1D LOAD      ACCESS:    5704246  HIT:    5684200  MISS:      20046
cpu0_L1D RFO       ACCESS:    4232937  HIT:    4225287  MISS:       7650
cpu0_L1D PREFETCH  ACCESS:          0  HIT:          0  MISS:          0
cpu0_L1D WRITEBACK ACCESS:          0  HIT:          0  MISS:          0
cpu0_L2C TOTAL     ACCESS:      66934  HIT:      50047  MISS:      16887
cpu0_L2C LOAD      ACCESS:      37568  HIT:      24505  MISS:      13063
cpu0_L2C RFO       ACCESS:       7650  HIT:       6218  MISS:       1432
cpu0_L2C PREFETCH  ACCESS:          0  HIT:          0  MISS:          0
cpu0_L2C WRITEBACK ACCESS:      16073  HIT:      15459  MISS:        614
LLC TOTAL     ACCESS:      25610  HIT:      15108  MISS:      10502
LLC LOAD      ACCESS:      13063  HIT:       2592  MISS:      10471
LLC RFO       ACCESS:       1432  HIT:       1402  MISS:         30
LLC PREFETCH  ACCESS:          0  HIT:          0  MISS:          0
LLC WRITEBACK ACCESS:       9337  HIT:       9336  MISS:          1
Heartbeat CPU 0 instructions: 90000001 cycles: 44624566 heartbeat IPC: 1.23032 cumulative IPC: 1.24516 (Simulation time: 0 hr 45 min 27 sec) 

Region of Interest Statistics
cpu0_DTLB TOTAL     ACCESS:    7395175  HIT:    7383811  MISS:      11364
cpu0_DTLB LOAD      ACCESS:    5182773  HIT:    5171896  MISS:      10877
cpu0_DTLB RFO       ACCESS:    2212402  HIT:    2211915  MISS:        487
cpu0_DTLB PREFETCH  ACCESS:          0  HIT:          0  MISS:          0
cpu0_DTLB WRITEBACK ACCESS:          0  HIT:          0  MISS:          0
cpu0_ITLB TOTAL     ACCESS:    3220965  HIT:    3220963  MISS:          2
cpu0_ITLB LOAD      ACCESS:    3220965  HIT:    3220963  MISS:          2
cpu0_ITLB RFO       ACCESS:          0  HIT:          0  MISS:          0
cpu0_ITLB PREFETCH  ACCESS:          0  HIT:          0  MISS:          0
cpu0_ITLB WRITEBACK ACCESS:          0  HIT:          0  MISS:          0
cpu0_L1I TOTAL     ACCESS:    4087238  HIT:    4068872  MISS:      18366
cpu0_L1I LOAD      ACCESS:    4087238  HIT:    4068872  MISS:      18366
cpu0_L1I RFO       ACCESS:          0  HIT:          0  MISS:          0
cpu0_L1I PREFETCH  ACCESS:          0  HIT:          0  MISS:          0
cpu0_L1I WRITEBACK ACCESS:          0  HIT:          0  MISS:          0
cpu0_STLB TOTAL     ACCESS:      11366  HIT:       4066  MISS:       7300
cpu0_STLB LOAD      ACCESS:      10879  HIT:       3586  MISS:       7293
cpu0_STLB RFO       ACCESS:        487  HIT:        480  MISS:          7
cpu0_STLB PREFETCH  ACCESS:          0  HIT:          0  MISS:          0
cpu0_STLB WRITEBACK ACCESS:          0  HIT:          0  MISS:          0
cpu0_L1D TOTAL     ACCESS:   10469182  HIT:   10433899  MISS:      35283
cpu0_L1D LOAD      ACCESS:    6004841  HIT:    5983659  MISS:      21182
cpu0_L1D RFO       ACCESS:    4457092  HIT:    4448972  MISS:       8120
cpu0_L1D PREFETCH  ACCESS:          0  HIT:          0  MISS:          0
cpu0_L1D WRITEBACK ACCESS:          0  HIT:          0  MISS:          0
cpu0_L2C TOTAL     ACCESS:      70608  HIT:      52718  MISS:      17890
cpu0_L2C LOAD      ACCESS:      39548  HIT:      25726  MISS:      13822
cpu0_L2C RFO       ACCESS:       8120  HIT:       6590  MISS:       1530
cpu0_L2C PREFETCH  ACCESS:          0  HIT:          0  MISS:          0
cpu0_L2C WRITEBACK ACCESS:      16959  HIT:      16304  MISS:        655
LLC TOTAL     ACCESS:      27163  HIT:      16102  MISS:      11061
LLC LOAD      ACCESS:      13822  HIT:       2793  MISS:      11029
LLC RFO       ACCESS:       1530  HIT:       1499  MISS:         31
LLC PREFETCH  ACCESS:          0  HIT:          0  MISS:          0
LLC WRITEBACK ACCESS:       9928  HIT:       9927  MISS:          1
Heartbeat CPU 0 instructions: 92000003 cycles: 46221968 heartbeat IPC: 1.25203 cumulative IPC: 1.24549 (Simulation time: 0 hr 46 min 30 sec) 

Region of Interest Statistics
cpu0_DTLB TOTAL     ACCESS:    7763875  HIT:    7751931  MISS:      11944
cpu0_DTLB LOAD      ACCESS:    5438247  HIT:    5426804  MISS:      11443
cpu0_DTLB RFO       ACCESS:    2325628  HIT:    2325127  MISS:        501
cpu0_DTLB PREFETCH  ACCESS:          0  HIT:          0  MISS:          0
cpu0_DTLB WRITEBACK ACCESS:          0  HIT:          0  MISS:          0
cpu0_ITLB TOTAL     ACCESS:    3384335  HIT:    3384333  MISS:          2
cpu0_ITLB LOAD      ACCESS:    3384335  HIT:    3384333  MISS:          2
cpu0_ITLB RFO       ACCESS:          0  HIT:          0  MISS:          0
cpu0_ITLB PREFETCH  ACCESS:          0  HIT:          0  MISS:          0
cpu0_ITLB WRITEBACK ACCESS:          0  HIT:          0  MISS:          0
cpu0_L1I TOTAL     ACCESS:    4285417  HIT:    4266307  MISS:      19110
cpu0_L1I LOAD      ACCESS:    4285417  HIT:    4266307  MISS:      19110
cpu0_L1I RFO       ACCESS:          0  HIT:          0  MISS:          0
cpu0_L1I PREFETCH  ACCESS:          0  HIT:          0  MISS:          0
cpu0_L1I WRITEBACK ACCESS:          0  HIT:          0  MISS:          0
cpu0_STLB TOTAL     ACCESS:      11946  HIT:       4245  MISS:       7701
cpu0_STLB LOAD      ACCESS:      11445  HIT:       3751  MISS:       7694
cpu0_STLB RFO       ACCESS:        501  HIT:        494  MISS:          7
cpu0_STLB PREFETCH  ACCESS:          0  HIT:          0  MISS:          0
cpu0_STLB WRITEBACK ACCESS:          0  HIT:          0  MISS:          0
cpu0_L1D TOTAL     ACCESS:   10994799  HIT:   10957725  MISS:      37074
cpu0_L1D LOAD      ACCESS:    6302089  HIT:    6279840  MISS:      22249
cpu0_L1D RFO       ACCESS:    4685062  HIT:    4676543  MISS:       8519
cpu0_L1D PREFETCH  ACCESS:          0  HIT:          0  MISS:          0
cpu0_L1D WRITEBACK ACCESS:          0  HIT:          0  MISS:          0
cpu0_L2C TOTAL     ACCESS:      74011  HIT:      55132  MISS:      18879
cpu0_L2C LOAD      ACCESS:      41359  HIT:      26787  MISS:      14572
cpu0_L2C RFO       ACCESS:       8519  HIT:       6870  MISS:       1649
cpu0_L2C PREFETCH  ACCESS:          0  HIT:          0  MISS:          0
cpu0_L2C WRITEBACK ACCESS:      17827  HIT:      17150  MISS:        677
LLC TOTAL     ACCESS:      28705  HIT:      17000  MISS:      11705
LLC LOAD      ACCESS:      14572  HIT:       2925  MISS:      11647
LLC RFO       ACCESS:       1649  HIT:       1594  MISS:         55
LLC PREFETCH  ACCESS:          0  HIT:          0  MISS:          0
LLC WRITEBACK ACCESS:      10503  HIT:      10500  MISS:          3
Heartbeat CPU 0 instructions: 94000001 cycles: 47771057 heartbeat IPC: 1.29108 cumulative IPC: 1.24749 (Simulation time: 0 hr 47 min 34 sec) 

Region of Interest Statistics
cpu0_DTLB TOTAL     ACCESS:    8139066  HIT:    8126631  MISS:      12435
cpu0_DTLB LOAD      ACCESS:    5701555  HIT:    5689641  MISS:      11914
cpu0_DTLB RFO       ACCESS:    2437511  HIT:    2436990  MISS:        521
cpu0_DTLB PREFETCH  ACCESS:          0  HIT:          0  MISS:          0
cpu0_DTLB WRITEBACK ACCESS:          0  HIT:          0  MISS:          0
cpu0_ITLB TOTAL     ACCESS:    3534050  HIT:    3534048  MISS:          2
cpu0_ITLB LOAD      ACCESS:    3534050  HIT:    3534048  MISS:          2
cpu0_ITLB RFO       ACCESS:          0  HIT:          0  MISS:          0
cpu0_ITLB PREFETCH  ACCESS:          0  HIT:          0  MISS:          0
cpu0_ITLB WRITEBACK ACCESS:          0  HIT:          0  MISS:          0
cpu0_L1I TOTAL     ACCESS:    4509283  HIT:    4489085  MISS:      20198
cpu0_L1I LOAD      ACCESS:    4509283  HIT:    4489085  MISS:      20198
cpu0_L1I RFO       ACCESS:          0  HIT:          0  MISS:          0
cpu0_L1I PREFETCH  ACCESS:          0  HIT:          0  MISS:          0
cpu0_L1I WRITEBACK ACCESS:          0  HIT:          0  MISS:          0
cpu0_STLB TOTAL     ACCESS:      12437  HIT:       4363  MISS:       8074
cpu0_STLB LOAD      ACCESS:      11916  HIT:       3849  MISS:       8067
cpu0_STLB RFO       ACCESS:        521  HIT:        514  MISS:          7
cpu0_STLB PREFETCH  ACCESS:          0  HIT:          0  MISS:          0
cpu0_STLB WRITEBACK ACCESS:          0  HIT:          0  MISS:          0
cpu0_L1D TOTAL     ACCESS:   11533706  HIT:   11494878  MISS:      38828
cpu0_L1D LOAD      ACCESS:    6606479  HIT:    6583203  MISS:      23276
cpu0_L1D RFO       ACCESS:    4919206  HIT:    4910259  MISS:       8947
cpu0_L1D PREFETCH  ACCESS:          0  HIT:          0  MISS:          0
cpu0_L1D WRITEBACK ACCESS:          0  HIT:          0  MISS:          0
cpu0_L2C TOTAL     ACCESS:      77709  HIT:      57896  MISS:      19813
cpu0_L2C LOAD      ACCESS:      43474  HIT:      28207  MISS:      15267
cpu0_L2C RFO       ACCESS:       8947  HIT:       7202  MISS:       1745
cpu0_L2C PREFETCH  ACCESS:          0  HIT:          0  MISS:          0
cpu0_L2C WRITEBACK ACCESS:      18683  HIT:      17968  MISS:        715
LLC TOTAL     ACCESS:      30140  HIT:      18043  MISS:      12097
LLC LOAD      ACCESS:      15267  HIT:       3228  MISS:      12039
LLC RFO       ACCESS:       1745  HIT:       1690  MISS:         55
LLC PREFETCH  ACCESS:          0  HIT:          0  MISS:          0
LLC WRITEBACK ACCESS:      11042  HIT:      11039  MISS:          3
Heartbeat CPU 0 instructions: 96000003 cycles: 49383172 heartbeat IPC: 1.24061 cumulative IPC: 1.24719 (Simulation time: 0 hr 48 min 36 sec) 

Region of Interest Statistics
cpu0_DTLB TOTAL     ACCESS:    8518513  HIT:    8505649  MISS:      12864
cpu0_DTLB LOAD      ACCESS:    5966082  HIT:    5953752  MISS:      12330
cpu0_DTLB RFO       ACCESS:    2552431  HIT:    2551897  MISS:        534
cpu0_DTLB PREFETCH  ACCESS:          0  HIT:          0  MISS:          0
cpu0_DTLB WRITEBACK ACCESS:          0  HIT:          0  MISS:          0
cpu0_ITLB TOTAL     ACCESS:    3693219  HIT:    3693217  MISS:          2
cpu0_ITLB LOAD      ACCESS:    3693219  HIT:    3693217  MISS:          2
cpu0_ITLB RFO       ACCESS:          0  HIT:          0  MISS:          0
cpu0_ITLB PREFETCH  ACCESS:          0  HIT:          0  MISS:          0
cpu0_ITLB WRITEBACK ACCESS:          0  HIT:          0  MISS:          0
cpu0_L1I TOTAL     ACCESS:    4719181  HIT:    4698066  MISS:      21115
cpu0_L1I LOAD      ACCESS:    4719181  HIT:    4698066  MISS:      21115
cpu0_L1I RFO       ACCESS:          0  HIT:          0  MISS:          0
cpu0_L1I PREFETCH  ACCESS:          0  HIT:          0  MISS:          0
cpu0_L1I WRITEBACK ACCESS:          0  HIT:          0  MISS:          0
cpu0_STLB TOTAL     ACCESS:      12866  HIT:       4471  MISS:       8395
cpu0_STLB LOAD      ACCESS:      12332  HIT:       3944  MISS:       8388
cpu0_STLB RFO       ACCESS:        534  HIT:        527  MISS:          7
cpu0_STLB PREFETCH  ACCESS:          0  HIT:          0  MISS:          0
cpu0_STLB WRITEBACK ACCESS:          0  HIT:          0  MISS:          0
cpu0_L1D TOTAL     ACCESS:   12073292  HIT:   12032800  MISS:      40492
cpu0_L1D LOAD      ACCESS:    6911793  HIT:    6887501  MISS:      24292
cpu0_L1D RFO       ACCESS:    5153160  HIT:    5143839  MISS:       9321
cpu0_L1D PREFETCH  ACCESS:          0  HIT:          0  MISS:          0
cpu0_L1D WRITEBACK ACCESS:          0  HIT:          0  MISS:          0
cpu0_L2C TOTAL     ACCESS:      81068  HIT:      60520  MISS:      20548
cpu0_L2C LOAD      ACCESS:      45407  HIT:      29574  MISS:      15833
cpu0_L2C RFO       ACCESS:       9321  HIT:       7515  MISS:       1806
cpu0_L2C PREFETCH  ACCESS:          0  HIT:          0  MISS:          0
cpu0_L2C WRITEBACK ACCESS:      19461  HIT:      18721  MISS:        740
LLC TOTAL     ACCESS:      31242  HIT:      18687  MISS:      12555
LLC LOAD      ACCESS:      15833  HIT:       3336  MISS:      12497
LLC RFO       ACCESS:       1806  HIT:       1751  MISS:         55
LLC PREFETCH  ACCESS:          0  HIT:          0  MISS:          0
LLC WRITEBACK ACCESS:      11434  HIT:      11431  MISS:          3
Heartbeat CPU 0 instructions: 98000004 cycles: 50976345 heartbeat IPC: 1.25536 cumulative IPC: 1.24753 (Simulation time: 0 hr 49 min 39 sec) 

Region of Interest Statistics
cpu0_DTLB TOTAL     ACCESS:    8900697  HIT:    8887368  MISS:      13329
cpu0_DTLB LOAD      ACCESS:    6233507  HIT:    6220742  MISS:      12765
cpu0_DTLB RFO       ACCESS:    2667190  HIT:    2666626  MISS:        564
cpu0_DTLB PREFETCH  ACCESS:          0  HIT:          0  MISS:          0
cpu0_DTLB WRITEBACK ACCESS:          0  HIT:          0  MISS:          0
cpu0_ITLB TOTAL     ACCESS:    3847874  HIT:    3847872  MISS:          2
cpu0_ITLB LOAD      ACCESS:    3847874  HIT:    3847872  MISS:          2
cpu0_ITLB RFO       ACCESS:          0  HIT:          0  MISS:          0
cpu0_ITLB PREFETCH  ACCESS:          0  HIT:          0  MISS:          0
cpu0_ITLB WRITEBACK ACCESS:          0  HIT:          0  MISS:          0
cpu0_L1I TOTAL     ACCESS:    4937242  HIT:    4915114  MISS:      22128
cpu0_L1I LOAD      ACCESS:    4937242  HIT:    4915114  MISS:      22128
cpu0_L1I RFO       ACCESS:          0  HIT:          0  MISS:          0
cpu0_L1I PREFETCH  ACCESS:          0  HIT:          0  MISS:          0
cpu0_L1I WRITEBACK ACCESS:          0  HIT:          0  MISS:          0
cpu0_STLB TOTAL     ACCESS:      13331  HIT:       4630  MISS:       8701
cpu0_STLB LOAD      ACCESS:      12767  HIT:       4073  MISS:       8694
cpu0_STLB RFO       ACCESS:        564  HIT:        557  MISS:          7
cpu0_STLB PREFETCH  ACCESS:          0  HIT:          0  MISS:          0
cpu0_STLB WRITEBACK ACCESS:          0  HIT:          0  MISS:          0
cpu0_L1D TOTAL     ACCESS:   12617297  HIT:   12575298  MISS:      41999
cpu0_L1D LOAD      ACCESS:    7222499  HIT:    7197311  MISS:      25188
cpu0_L1D RFO       ACCESS:    5386154  HIT:    5376474  MISS:       9680
cpu0_L1D PREFETCH  ACCESS:          0  HIT:          0  MISS:          0
cpu0_L1D WRITEBACK ACCESS:          0  HIT:          0  MISS:          0
cpu0_L2C TOTAL     ACCESS:      84330  HIT:      62951  MISS:      21379
cpu0_L2C LOAD      ACCESS:      47316  HIT:      30907  MISS:      16409
cpu0_L2C RFO       ACCESS:       9680  HIT:       7735  MISS:       1945
cpu0_L2C PREFETCH  ACCESS:          0  HIT:          0  MISS:          0
cpu0_L2C WRITEBACK ACCESS:      20203  HIT:      19430  MISS:        773
LLC TOTAL     ACCESS:      32504  HIT:      19568  MISS:      12936
LLC LOAD      ACCESS:      16409  HIT:       3556  MISS:      12853
LLC RFO       ACCESS:       1945  HIT:       1865  MISS:         80
LLC PREFETCH  ACCESS:          0  HIT:          0  MISS:          0
LLC WRITEBACK ACCESS:      11898  HIT:      11895  MISS:          3
Heartbeat CPU 0 instructions: 100000004 cycles: 52646272 heartbeat IPC: 1.19766 cumulative IPC: 1.24545 (Simulation time: 0 hr 50 min 42 sec) 

Region of Interest Statistics
cpu0_DTLB TOTAL     ACCESS:    9275685  HIT:    9261764  MISS:      13921
cpu0_DTLB LOAD      ACCESS:    6494933  HIT:    6481603  MISS:      13330
cpu0_DTLB RFO       ACCESS:    2780752  HIT:    2780161  MISS:        591
cpu0_DTLB PREFETCH  ACCESS:          0  HIT:          0  MISS:          0
cpu0_DTLB WRITEBACK ACCESS:          0  HIT:          0  MISS:          0
cpu0_ITLB TOTAL     ACCESS:    4008725  HIT:    4008723  MISS:          2
cpu0_ITLB LOAD      ACCESS:    4008725  HIT:    4008723  MISS:          2
cpu0_ITLB RFO       ACCESS:          0  HIT:          0  MISS:          0
cpu0_ITLB PREFETCH  ACCESS:          0  HIT:          0  MISS:          0
cpu0_ITLB WRITEBACK ACCESS:          0  HIT:          0  MISS:          0
cpu0_L1I TOTAL     ACCESS:    5146850  HIT:    5123751  MISS:      23099
cpu0_L1I LOAD      ACCESS:    5146850  HIT:    5123751  MISS:      23099
cpu0_L1I RFO       ACCESS:          0  HIT:          0  MISS:          0
cpu0_L1I PREFETCH  ACCESS:          0  HIT:          0  MISS:          0
cpu0_L1I WRITEBACK ACCESS:          0  HIT:          0  MISS:          0
cpu0_STLB TOTAL     ACCESS:      13923  HIT:       4808  MISS:       9115
cpu0_STLB LOAD      ACCESS:      13332  HIT:       4224  MISS:       9108
cpu0_STLB RFO       ACCESS:        591  HIT:        584  MISS:          7
cpu0_STLB PREFETCH  ACCESS:          0  HIT:          0  MISS:          0
cpu0_STLB WRITEBACK ACCESS:          0  HIT:          0  MISS:          0
cpu0_L1D TOTAL     ACCESS:   13153504  HIT:   13109531  MISS:      43973
cpu0_L1D LOAD      ACCESS:    7528405  HIT:    7502063  MISS:      26342
cpu0_L1D RFO       ACCESS:    5616045  HIT:    5605893  MISS:      10152
cpu0_L1D PREFETCH  ACCESS:          0  HIT:          0  MISS:          0
cpu0_L1D WRITEBACK ACCESS:          0  HIT:          0  MISS:          0
cpu0_L2C TOTAL     ACCESS:      88211  HIT:      65748  MISS:      22463
cpu0_L2C LOAD      ACCESS:      49441  HIT:      32251  MISS:      17190
cpu0_L2C RFO       ACCESS:      10152  HIT:       8089  MISS:       2063
cpu0_L2C PREFETCH  ACCESS:          0  HIT:          0  MISS:          0
cpu0_L2C WRITEBACK ACCESS:      21139  HIT:      20307  MISS:        832
LLC TOTAL     ACCESS:      34146  HIT:      20565  MISS:      13581
LLC LOAD      ACCESS:      17190  HIT:       3727  MISS:      13463
LLC RFO       ACCESS:       2063  HIT:       1950  MISS:        113
LLC PREFETCH  ACCESS:          0  HIT:          0  MISS:          0
LLC WRITEBACK ACCESS:      12515  HIT:      12510  MISS:          5
Heartbeat CPU 0 instructions: 102000000 cycles: 54270717 heartbeat IPC: 1.23119 cumulative IPC: 1.2449 (Simulation time: 0 hr 51 min 45 sec) 

Region of Interest Statistics
cpu0_DTLB TOTAL     ACCESS:    9648577  HIT:    9634102  MISS:      14475
cpu0_DTLB LOAD      ACCESS:    6759894  HIT:    6746043  MISS:      13851
cpu0_DTLB RFO       ACCESS:    2888683  HIT:    2888059  MISS:        624
cpu0_DTLB PREFETCH  ACCESS:          0  HIT:          0  MISS:          0
cpu0_DTLB WRITEBACK ACCESS:          0  HIT:          0  MISS:          0
cpu0_ITLB TOTAL     ACCESS:    4170819  HIT:    4170817  MISS:          2
cpu0_ITLB LOAD      ACCESS:    4170819  HIT:    4170817  MISS:          2
cpu0_ITLB RFO       ACCESS:          0  HIT:          0  MISS:          0
cpu0_ITLB PREFETCH  ACCESS:          0  HIT:          0  MISS:          0
cpu0_ITLB WRITEBACK ACCESS:          0  HIT:          0  MISS:          0
cpu0_L1I TOTAL     ACCESS:    5354153  HIT:    5329924  MISS:      24229
cpu0_L1I LOAD      ACCESS:    5354153  HIT:    5329924  MISS:      24229
cpu0_L1I RFO       ACCESS:          0  HIT:          0  MISS:          0
cpu0_L1I PREFETCH  ACCESS:          0  HIT:          0  MISS:          0
cpu0_L1I WRITEBACK ACCESS:          0  HIT:          0  MISS:          0
cpu0_STLB TOTAL     ACCESS:      14477  HIT:       5093  MISS:       9384
cpu0_STLB LOAD      ACCESS:      13853  HIT:       4476  MISS:       9377
cpu0_STLB RFO       ACCESS:        624  HIT:        617  MISS:          7
cpu0_STLB PREFETCH  ACCESS:          0  HIT:          0  MISS:          0
cpu0_STLB WRITEBACK ACCESS:          0  HIT:          0  MISS:          0
cpu0_L1D TOTAL     ACCESS:   13679087  HIT:   13633537  MISS:      45550
cpu0_L1D LOAD      ACCESS:    7836620  HIT:    7809292  MISS:      27328
cpu0_L1D RFO       ACCESS:    5833147  HIT:    5822625  MISS:      10522
cpu0_L1D PREFETCH  ACCESS:          0  HIT:          0  MISS:          0
cpu0_L1D WRITEBACK ACCESS:          0  HIT:          0  MISS:          0
cpu0_L2C TOTAL     ACCESS:      91678  HIT:      68582  MISS:      23096
cpu0_L2C LOAD      ACCESS:      51557  HIT:      33852  MISS:      17705
cpu0_L2C RFO       ACCESS:      10522  HIT:       8413  MISS:       2109
cpu0_L2C PREFETCH  ACCESS:          0  HIT:          0  MISS:          0
cpu0_L2C WRITEBACK ACCESS:      21899  HIT:      21056  MISS:        843
LLC TOTAL     ACCESS:      35114  HIT:      21137  MISS:      13977
LLC LOAD      ACCESS:      17705  HIT:       3846  MISS:      13859
LLC RFO       ACCESS:       2109  HIT:       1996  MISS:        113
LLC PREFETCH  ACCESS:          0  HIT:          0  MISS:          0
LLC WRITEBACK ACCESS:      12861  HIT:      12856  MISS:          5
Heartbeat CPU 0 instructions: 104000003 cycles: 55877881 heartbeat IPC: 1.24443 cumulative IPC: 1.24488 (Simulation time: 0 hr 52 min 47 sec) 

Region of Interest Statistics
cpu0_DTLB TOTAL     ACCESS:   10024286  HIT:   10009428  MISS:      14858
cpu0_DTLB LOAD      ACCESS:    7023636  HIT:    7009417  MISS:      14219
cpu0_DTLB RFO       ACCESS:    3000650  HIT:    3000011  MISS:        639
cpu0_DTLB PREFETCH  ACCESS:          0  HIT:          0  MISS:          0
cpu0_DTLB WRITEBACK ACCESS:          0  HIT:          0  MISS:          0
cpu0_ITLB TOTAL     ACCESS:    4331083  HIT:    4331081  MISS:          2
cpu0_ITLB LOAD      ACCESS:    4331083  HIT:    4331081  MISS:          2
cpu0_ITLB RFO       ACCESS:          0  HIT:          0  MISS:          0
cpu0_ITLB PREFETCH  ACCESS:          0  HIT:          0  MISS:          0
cpu0_ITLB WRITEBACK ACCESS:          0  HIT:          0  MISS:          0
cpu0_L1I TOTAL     ACCESS:    5565748  HIT:    5540703  MISS:      25045
cpu0_L1I LOAD      ACCESS:    5565748  HIT:    5540703  MISS:      25045
cpu0_L1I RFO       ACCESS:          0  HIT:          0  MISS:          0
cpu0_L1I PREFETCH  ACCESS:          0  HIT:          0  MISS:          0
cpu0_L1I WRITEBACK ACCESS:          0  HIT:          0  MISS:          0
cpu0_STLB TOTAL     ACCESS:      14860  HIT:       5203  MISS:       9657
cpu0_STLB LOAD      ACCESS:      14221  HIT:       4573  MISS:       9648
cpu0_STLB RFO       ACCESS:        639  HIT:        630  MISS:          9
cpu0_STLB PREFETCH  ACCESS:          0  HIT:          0  MISS:          0
cpu0_STLB WRITEBACK ACCESS:          0  HIT:          0  MISS:          0
cpu0_L1D TOTAL     ACCESS:   14216229  HIT:   14169191  MISS:      47038
cpu0_L1D LOAD      ACCESS:    8144881  HIT:    8116718  MISS:      28163
cpu0_L1D RFO       ACCESS:    6061757  HIT:    6050804  MISS:      10953
cpu0_L1D PREFETCH  ACCESS:          0  HIT:          0  MISS:          0
cpu0_L1D WRITEBACK ACCESS:          0  HIT:          0  MISS:          0
cpu0_L2C TOTAL     ACCESS:      94736  HIT:      70798  MISS:      23938
cpu0_L2C LOAD      ACCESS:      53208  HIT:      34985  MISS:      18223
cpu0_L2C RFO       ACCESS:      10953  HIT:       8653  MISS:       2300
cpu0_L2C PREFETCH  ACCESS:          0  HIT:          0  MISS:          0
cpu0_L2C WRITEBACK ACCESS:      22653  HIT:      21757  MISS:        896
LLC TOTAL     ACCESS:      36365  HIT:      21946  MISS:      14419
LLC LOAD      ACCESS:      18223  HIT:       3924  MISS:      14299
LLC RFO       ACCESS:       2300  HIT:       2185  MISS:        115
LLC PREFETCH  ACCESS:          0  HIT:          0  MISS:          0
LLC WRITEBACK ACCESS:      13323  HIT:      13318  MISS:          5
Heartbeat CPU 0 instructions: 106000001 cycles: 57502823 heartbeat IPC: 1.23081 cumulative IPC: 1.24437 (Simulation time: 0 hr 53 min 48 sec) 

Region of Interest Statistics
cpu0_DTLB TOTAL     ACCESS:   10398082  HIT:   10382705  MISS:      15377
cpu0_DTLB LOAD      ACCESS:    7285129  HIT:    7270417  MISS:      14712
cpu0_DTLB RFO       ACCESS:    3112953  HIT:    3112288  MISS:        665
cpu0_DTLB PREFETCH  ACCESS:          0  HIT:          0  MISS:          0
cpu0_DTLB WRITEBACK ACCESS:          0  HIT:          0  MISS:          0
cpu0_ITLB TOTAL     ACCESS:    4490475  HIT:    4490473  MISS:          2
cpu0_ITLB LOAD      ACCESS:    4490475  HIT:    4490473  MISS:          2
cpu0_ITLB RFO       ACCESS:          0  HIT:          0  MISS:          0
cpu0_ITLB PREFETCH  ACCESS:          0  HIT:          0  MISS:          0
cpu0_ITLB WRITEBACK ACCESS:          0  HIT:          0  MISS:          0
cpu0_L1I TOTAL     ACCESS:    5774327  HIT:    5748393  MISS:      25934
cpu0_L1I LOAD      ACCESS:    5774327  HIT:    5748393  MISS:      25934
cpu0_L1I RFO       ACCESS:          0  HIT:          0  MISS:          0
cpu0_L1I PREFETCH  ACCESS:          0  HIT:          0  MISS:          0
cpu0_L1I WRITEBACK ACCESS:          0  HIT:          0  MISS:          0
cpu0_STLB TOTAL     ACCESS:      15379  HIT:       5385  MISS:       9994
cpu0_STLB LOAD      ACCESS:      14714  HIT:       4729  MISS:       9985
cpu0_STLB RFO       ACCESS:        665  HIT:        656  MISS:          9
cpu0_STLB PREFETCH  ACCESS:          0  HIT:          0  MISS:          0
cpu0_STLB WRITEBACK ACCESS:          0  HIT:          0  MISS:          0
cpu0_L1D TOTAL     ACCESS:   14749306  HIT:   14700370  MISS:      48936
cpu0_L1D LOAD      ACCESS:    8449369  HIT:    8420104  MISS:      29265
cpu0_L1D RFO       ACCESS:    6290015  HIT:    6278560  MISS:      11455
cpu0_L1D PREFETCH  ACCESS:          0  HIT:          0  MISS:          0
cpu0_L1D WRITEBACK ACCESS:          0  HIT:          0  MISS:          0
cpu0_L2C TOTAL     ACCESS:      98467  HIT:      73604  MISS:      24863
cpu0_L2C LOAD      ACCESS:      55199  HIT:      36263  MISS:      18936
cpu0_L2C RFO       ACCESS:      11455  HIT:       9082  MISS:       2373
cpu0_L2C PREFETCH  ACCESS:          0  HIT:          0  MISS:          0
cpu0_L2C WRITEBACK ACCESS:      23597  HIT:      22669  MISS:        928
LLC TOTAL     ACCESS:      37768  HIT:      22791  MISS:      14977
[...]

ChampSim completed all CPUs

Region of Interest Statistics

CPU 0 cumulative IPC: 1.26253 instructions: 1500000000 cycles: 1188088907
cpu0_DTLB TOTAL     ACCESS:  280105903  HIT:  279673269  MISS:     432634
cpu0_DTLB LOAD      ACCESS:  195482513  HIT:  195069558  MISS:     412955
cpu0_DTLB RFO       ACCESS:   84623390  HIT:   84603711  MISS:      19679
cpu0_DTLB PREFETCH  ACCESS:          0  HIT:          0  MISS:          0
cpu0_DTLB WRITEBACK ACCESS:          0  HIT:          0  MISS:          0
cpu0_DTLB TRANSLATION ACCESS:          0  HIT:          0  MISS:          0
cpu0_DTLB PREFETCH  REQUESTED:          0  ISSUED:          0  USEFUL:          0  USELESS:          0
cpu0_DTLB AVERAGE MISS LATENCY: 121.031 cycles
cpu0_ITLB TOTAL     ACCESS:  116206245  HIT:  116206243  MISS:          2
cpu0_ITLB LOAD      ACCESS:  116206245  HIT:  116206243  MISS:          2
cpu0_ITLB RFO       ACCESS:          0  HIT:          0  MISS:          0
cpu0_ITLB PREFETCH  ACCESS:          0  HIT:          0  MISS:          0
cpu0_ITLB WRITEBACK ACCESS:          0  HIT:          0  MISS:          0
cpu0_ITLB TRANSLATION ACCESS:          0  HIT:          0  MISS:          0
cpu0_ITLB PREFETCH  REQUESTED:          0  ISSUED:          0  USEFUL:          0  USELESS:          0
cpu0_ITLB AVERAGE MISS LATENCY: 217 cycles
cpu0_L1I TOTAL     ACCESS:  160514856  HIT:  159761946  MISS:     752910
cpu0_L1I LOAD      ACCESS:  160514856  HIT:  159761946  MISS:     752910
cpu0_L1I RFO       ACCESS:          0  HIT:          0  MISS:          0
cpu0_L1I PREFETCH  ACCESS:          0  HIT:          0  MISS:          0
cpu0_L1I WRITEBACK ACCESS:          0  HIT:          0  MISS:          0
cpu0_L1I TRANSLATION ACCESS:          0  HIT:          0  MISS:          0
cpu0_L1I PREFETCH  REQUESTED:          0  ISSUED:          0  USEFUL:          0  USELESS:          0
cpu0_L1I AVERAGE MISS LATENCY: 12.0092 cycles
cpu0_STLB TOTAL     ACCESS:     432636  HIT:     173522  MISS:     259114
cpu0_STLB LOAD      ACCESS:     412957  HIT:     154161  MISS:     258796
cpu0_STLB RFO       ACCESS:      19679  HIT:      19361  MISS:        318
cpu0_STLB PREFETCH  ACCESS:          0  HIT:          0  MISS:          0
cpu0_STLB WRITEBACK ACCESS:          0  HIT:          0  MISS:          0
cpu0_STLB TRANSLATION ACCESS:          0  HIT:          0  MISS:          0
cpu0_STLB PREFETCH  REQUESTED:          0  ISSUED:          0  USEFUL:          0  USELESS:          0
cpu0_STLB AVERAGE MISS LATENCY: 187.052 cycles
cpu0_L1D TOTAL     ACCESS:  402050435  HIT:  400758426  MISS:    1292009
cpu0_L1D LOAD      ACCESS:  227269913  HIT:  226491973  MISS:     777940
cpu0_L1D RFO       ACCESS:  174523192  HIT:  174221449  MISS:     301743
cpu0_L1D PREFETCH  ACCESS:          0  HIT:          0  MISS:          0
cpu0_L1D WRITEBACK ACCESS:          0  HIT:          0  MISS:          0
cpu0_L1D TRANSLATION ACCESS:     257330  HIT:      45004  MISS:     212326
cpu0_L1D PREFETCH  REQUESTED:          0  ISSUED:          0  USEFUL:          0  USELESS:          0
cpu0_L1D AVERAGE MISS LATENCY: 71.1337 cycles
cpu0_L2C TOTAL     ACCESS:    2684891  HIT:    1996622  MISS:     688269
cpu0_L2C LOAD      ACCESS:    1530848  HIT:    1008508  MISS:     522340
cpu0_L2C RFO       ACCESS:     301738  HIT:     235417  MISS:      66321
cpu0_L2C PREFETCH  ACCESS:          0  HIT:          0  MISS:          0
cpu0_L2C WRITEBACK ACCESS:     639979  HIT:     613545  MISS:      26434
cpu0_L2C TRANSLATION ACCESS:     212326  HIT:     139152  MISS:      73174
cpu0_L2C PREFETCH  REQUESTED:          0  ISSUED:          0  USEFUL:          0  USELESS:          0
cpu0_L2C AVERAGE MISS LATENCY: 113.922 cycles
LLC TOTAL     ACCESS:    1048966  HIT:     656725  MISS:     392241
LLC LOAD      ACCESS:     522340  HIT:     134169  MISS:     388171
LLC RFO       ACCESS:      66321  HIT:      62666  MISS:       3655
LLC PREFETCH  ACCESS:          0  HIT:          0  MISS:          0
LLC WRITEBACK ACCESS:     387131  HIT:     386719  MISS:        412
LLC TRANSLATION ACCESS:      73174  HIT:      73171  MISS:          3
LLC PREFETCH  REQUESTED:          0  ISSUED:          0  USEFUL:          0  USELESS:          0
LLC AVERAGE MISS LATENCY: 164.466 cycles
~~~~~~~~~~Reuse Distance Profiler output~~~~~~~~~~
0	85702736	13616032
1	31975280	12720832
2	25698160	11074096
3	20814224	10773408
4	17775984	10630912
5	13384032	8262928
6	12995952	8316112
7	10203120	6859424
8	8362096	5191584
9	7432224	4740880
10	6264336	4097632
11	5999136	4039280
12	5949120	4187344
13	5360368	3798592
14	5044400	3591984
15	4217472	2977120
16	4701312	3294032
17	4316240	3089120
18	3246576	2241888
19	2914112	2080240
20	2694944	1900752
21	2456304	1737952
22	2411120	1704752
23	2498624	1805904
24	2412704	1721968
25	2227744	1583280
26	2189200	1630208
27	2021696	1487296
28	1832928	1353552
29	1729040	1266496
30	1662928	1216784
31	1545328	1175296
32	1463504	1132384
33	1402272	1120048
34	1268880	983824
35	1199920	962368
36	1086592	879408
37	1025056	840096
38	1037040	859072
39	932848	769328
40	889264	734000
41	887040	724672
42	890240	743312
43	831568	697632
44	863680	720352
45	817024	670032
46	782720	636352
47	763280	618720
48	705872	555376
49	673040	516832
50	665840	513168
51	677984	541008
52	642896	503312
53	616048	476528
54	582448	462560
55	576848	469648
56	569344	468496
57	556032	463952
58	532272	439136
59	495168	402576
60	494912	403936
61	489776	391408
62	472592	383200
63	450656	364240
64	837696	680032
66	844368	693904
68	832464	690496
70	821456	689136
72	847216	719408
74	825120	701776
76	801744	686800
78	793296	684720
80	775008	672624
82	754768	654496
84	750672	659440
86	730944	645280
88	718640	636816
90	709472	628304
92	715568	637552
94	678896	603632
96	652432	580688
98	620176	550592
100	613056	548128
102	600032	536976
104	589232	531088
106	578688	523776
108	558912	508384
110	521472	474560
112	487200	440368
114	469472	424464
116	445056	401552
118	431056	386752
120	414176	370496
122	398864	357968
124	388000	345040
126	382048	334752
128	770320	677872
132	684304	595072
136	716720	625168
140	693984	598832
144	617664	516832
148	641216	530880
152	655552	547792
156	617904	513776
160	547888	451952
164	474992	389856
168	394992	329696
172	334960	281648
176	309840	261360
180	293280	247120
184	278816	231072
188	271088	222640
192	273632	221008
196	270384	216208
200	270512	220160
204	272176	225664
208	273024	232112
212	275440	240192
216	280352	245312
220	283744	249648
224	281168	247744
228	277856	247472
232	276032	248032
236	266000	240016
240	261360	237696
244	258592	235424
248	249264	227392
252	239200	217024
256	477520	433648
264	467680	420000
272	445664	400192
280	430960	388816
288	397728	358640
296	389072	350176
304	378512	339520
312	372688	332288
320	365072	326944
328	355520	317440
336	339504	303776
344	313760	278800
352	296576	262976
360	287072	255568
368	275808	245968
376	264272	237072
384	255520	229616
392	252640	227536
400	243776	218480
408	238112	213296
416	236112	210800
424	234896	209664
432	236992	211776
440	247536	221728
448	249232	224336
456	258736	233632
464	260864	236768
472	262144	239840
480	268128	243792
488	260720	237760
496	264992	242624
504	263088	239504
512	519008	471872
528	497040	451984
544	486160	446224
560	482016	445072
576	469152	431456
592	462736	425984
608	456096	416880
624	439952	399936
640	426768	383344
656	421744	372800
672	423424	369696
688	440608	379072
704	460432	388192
720	491312	410768
736	526480	436560
752	551488	456224
768	561424	466576
784	563616	468096
800	553488	459424
816	550768	454480
832	545200	450208
848	537792	446608
864	538128	453584
880	520320	439760
896	483616	409264
912	439072	372576
928	406400	346560
944	377136	322224
960	353312	304736
976	332928	286640
992	312544	271072
1008	298032	259600
1024	539728	471648
1056	479792	423344
1088	442208	392176
1120	421152	373584
1152	392256	348000
1184	369504	328096
1216	352544	311360
1248	340352	299680
1280	323680	284176
1312	314112	276480
1344	297504	263552
1376	283504	249488
1408	267376	234304
1440	261920	230736
1472	255712	224992
1504	242176	212752
1536	234512	206688
1568	230448	203536
1600	224304	197376
1632	221056	195728
1664	222000	197008
1696	216096	191248
1728	215008	189344
1760	209264	184144
1792	205504	181040
1824	204096	179200
1856	202128	177264
1888	201648	176608
1920	201488	176800
1952	195776	171760
1984	195840	171344
2016	191840	166176
2048	360464	317296
2112	335952	293392
2176	303888	262112
2240	280512	242944
2304	260752	222368
2368	242384	207872
2432	226896	194400
2496	215760	183488
2560	208416	175568
2624	198128	166800
2688	191936	159616
2752	185184	153312
2816	177424	143760
2880	169136	138112
2944	164720	132688
3008	158608	126704
3072	154192	123456
3136	146800	117232
3200	138944	110672
3264	135952	108624
3328	129296	102944
3392	125168	99456
3456	122048	97728
3520	117216	93296
3584	112560	90256
3648	108128	87040
3712	105264	85216
3776	101792	82032
3840	95600	76352
3904	96032	76752
3968	91168	72880
4032	90864	71584
4096	176304	140976
4224	164160	130240
4352	157232	124896
4480	149856	119792
4608	145632	115696
4736	139456	109600
4864	132768	105664
4992	124432	97744
5120	117536	91888
5248	113376	89008
5376	106864	84144
5504	103744	80144
5632	96768	75152
5760	94288	71872
5888	90688	70496
6016	89024	68768
6144	84240	64960
6272	82960	63120
6400	78944	60272
6528	76944	58928
6656	73056	54736
6784	71760	54000
6912	68608	50672
7040	64336	47888
7168	66384	49952
7296	63264	46896
7424	61536	46000
7552	59296	43552
7680	58272	43840
7808	58160	43536
7936	55488	39696
8064	54528	40080
8192	106816	78576
8448	100624	74240
8704	95328	70176
8960	88368	64416
9216	85344	61808
9472	85328	61552
9728	79312	58336
9984	76688	54720
10240	73936	52544
10496	71312	51200
10752	70464	49904
11008	67120	47824
11264	65664	47360
11520	63648	45600
11776	62192	44944
12032	61344	44064
12288	54832	39200
12544	55472	39760
12800	54192	38048
13056	50336	35232
13312	48704	34192
13568	48624	34256
13824	47840	33552
14080	44368	30784
14336	43568	30768
14592	42576	29632
14848	42064	28528
15104	40048	27920
15360	38096	26256
15616	38976	26480
15872	36784	25488
16128	36976	25648
16384	69392	48928
16896	67024	46512
17408	64528	44800
17920	58128	40352
18432	57216	39680
18944	53744	36400
19456	48432	32992
19968	48528	32896
20480	47328	32032
20992	45168	31232
21504	44672	30144
22016	43680	29648
22528	41184	27168
23040	38896	25744
23552	37344	25216
24064	35024	23440
24576	35008	22736
25088	33280	22080
25600	32752	22464
26112	31232	21088
26624	31008	21088
27136	29952	19904
27648	28272	18704
28160	26336	16928
28672	26736	17584
29184	24800	16080
29696	24368	15904
30208	24096	16144
30720	23280	15856
31232	22368	14672
31744	24160	16320
32256	21792	14144
32768	40160	25840
33792	39456	24752
34816	36720	23472
35840	36048	23456
36864	34320	21376
37888	32496	20416
38912	30160	19760
39936	29728	19200
40960	27136	17584
41984	25696	16448
43008	25712	16224
44032	23920	14928
45056	23568	14560
46080	21808	13472
47104	21120	13152
48128	20480	13120
49152	20512	12608
50176	18512	11088
51200	18448	11552
52224	18384	11296
53248	16128	10032
54272	15856	9440
55296	16832	9984
56320	15648	9312
57344	14352	8800
58368	13920	8608
59392	14528	8720
60416	13840	8368
61440	13408	8000
62464	13664	7968
63488	12064	6976
64512	11872	7408
65536	22784	13440
67584	20480	11760
69632	20864	12704
71680	19056	11632
73728	19744	11552
75776	16928	10128
77824	16368	9376
79872	17008	9904
81920	14032	8064
83968	14512	8704
86016	13712	8032
88064	11776	6816
90112	12432	7232
92160	12208	6576
94208	12240	6992
96256	11136	6528
98304	10928	6080
100352	10672	5904
102400	10592	5840
104448	9984	5744
106496	9552	5488
108544	9632	5024
110592	8784	4832
112640	8576	4592
114688	8496	4992
116736	7344	3920
118784	8048	4176
120832	7024	3872
122880	6912	3824
124928	6864	3504
126976	6976	3984
129024	6976	3632
131072	13088	7056
135168	11792	6320
139264	10832	5696
143360	10320	5440
147456	10416	5312
151552	8688	4496
155648	9344	5120
159744	9184	4944
163840	7888	4320
167936	7744	4416
172032	7696	3744
176128	7280	3808
180224	7136	3408
184320	6384	3360
188416	6208	3616
192512	6560	3248
196608	5632	3056
200704	5936	2896
204800	5248	2704
208896	5248	2576
212992	5424	2816
217088	5472	2624
221184	4752	2224
225280	4976	2560
229376	4384	2128
233472	4272	2208
237568	4640	2192
241664	4048	2080
245760	4208	2256
249856	4080	2240
253952	4032	2240
258048	3712	2032
262144	7296	3552
270336	5968	2992
278528	6224	2880
286720	5824	2960
294912	5536	2720
303104	5024	2608
311296	4880	2736
319488	5168	2560
327680	4896	2240
335872	4272	2064
344064	3920	2048
352256	3568	1616
360448	3648	1872
368640	3840	1632
376832	3920	1984
385024	3280	1712
393216	3232	1584
401408	3024	1376
409600	3216	1456
417792	3152	1552
425984	2720	1344
434176	2496	1152
442368	2592	1312
450560	2352	1184
458752	2512	1296
466944	2560	1488
475136	2032	912
483328	2528	1168
491520	2432	1360
499712	2592	1296
507904	2704	1152
516096	2176	1024
524288	3600	1728
540672	3456	1600
557056	3696	1872
573440	3504	1664
589824	3232	1616
606208	3088	1568
622592	2976	1408
638976	2720	1408
655360	2464	1216
671744	2960	1360
688128	2656	1568
704512	2848	1488
720896	2304	1072
737280	2448	1072
753664	2272	1120
770048	1744	848
786432	1888	1072
802816	1632	736
819200	1824	736
835584	1344	720
851968	1648	768
868352	1360	720
884736	1584	784
901120	1328	736
917504	1344	704
933888	1760	912
950272	1296	480
966656	1344	720
983040	1088	576
999424	1232	704
1015808	1216	560
1032192	992	512
1048576	2240	1232
1081344	2480	1584
1114112	2032	976
1146880	1872	1008
1179648	2000	1232
1212416	1552	816
1245184	1776	960
1277952	1920	1008
1310720	1312	768
1343488	1552	928
1376256	1328	768
1409024	1280	768
1441792	1344	864
1474560	1104	528
1507328	1344	656
1540096	1200	544
1572864	960	544
1605632	1280	592
1638400	1184	624
1671168	1168	688
1703936	1104	416
1736704	784	368
1769472	816	496
1802240	912	560
1835008	704	368
1867776	912	448
1900544	944	432
1933312	832	512
1966080	880	384
1998848	624	368
2031616	736	368
2064384	752	352
2097152	1568	832
2162688	1120	528
2228224	1040	496
2293760	1232	672
2359296	1056	720
2424832	1136	752
2490368	1120	560
2555904	928	432
2621440	864	544
2686976	1248	672
2752512	1024	592
2818048	736	352
2883584	896	544
2949120	832	416
3014656	720	400
3080192	640	400
3145728	560	368
3211264	624	336
3276800	816	544
3342336	800	416
3407872	560	288
3473408	592	304
3538944	528	288
3604480	400	224
3670016	688	400
3735552	512	336
3801088	496	304
3866624	352	224
3932160	224	192
3997696	432	240
4063232	560	384
4128768	448	288
4194304	784	480
4325376	752	512
4456448	736	336
4587520	784	528
4718592	560	240
4849664	624	384
4980736	528	288
5111808	784	496
5242880	560	320
5373952	480	288
5505024	432	288
5636096	368	224
5767168	384	240
5898240	480	288
6029312	496	304
6160384	480	304
6291456	544	448
6422528	336	224
6553600	464	304
6684672	448	272
6815744	352	272
6946816	384	256
7077888	512	336
7208960	288	160
7340032	288	144
7471104	336	224
7602176	336	144
7733248	320	256
7864320	320	240
7995392	304	160
8126464	320	256
8257536	336	208
8388608	416	288
8650752	608	336
8912896	448	272
9175040	512	336
9437184	592	304
9699328	320	224
9961472	448	320
10223616	448	272
10485760	240	160
10747904	496	416
11010048	640	528
11272192	656	512
11534336	656	560
11796480	752	624
12058624	752	576
12320768	608	464
12582912	416	336
12845056	816	800
13107200	544	432
13369344	288	176
13631488	576	320
13893632	240	160
14155776	304	176
14417920	144	64
14680064	416	320
14942208	128	32
15204352	224	144
15466496	224	128
15728640	224	176
15990784	208	112
16252928	96	96
16515072	256	208
16777216	640	560
17301504	576	528
17825792	560	480
18350080	496	464
18874368	544	480
19398656	272	240
19922944	416	368
20447232	288	272
20971520	368	272
21495808	432	272
22020096	768	640
22544384	464	416
23068672	336	304
23592960	432	320
24117248	352	272
24641536	224	224
25165824	144	96
25690112	336	304
26214400	448	384
26738688	400	368
27262976	224	192
27787264	160	96
28311552	176	96
28835840	144	96
29360128	272	256
29884416	80	48
30408704	112	96
30932992	144	128
31457280	64	64
31981568	96	96
32505856	48	48
33030144	32	32
33554432	224	176
34603008	272	176
35651584	272	160
36700160	432	304
37748736	256	192
38797312	176	160
39845888	208	192
40894464	272	192
41943040	160	144
42991616	192	128
44040192	176	176
45088768	112	112
46137344	32	32
47185920	144	112
48234496	48	32
49283072	160	64
50331648	96	64
51380224	32	32
52428800	128	112
53477376	32	32
54525952	48	32
55574528	64	64
56623104	96	64
57671680	336	320
58720256	96	96
59768832	160	160
60817408	176	176
61865984	64	64
62914560	80	64
63963136	16	16
65011712	16	16
66060288	32	32
67108864	112	80
69206016	128	128
71303168	80	80
73400320	112	96
75497472	336	336
77594624	480	480
79691776	176	160
81788928	240	240
83886080	688	688
85983232	96	80
88080384	80	80
90177536	64	32
92274688	48	32
94371840	48	48
96468992	64	64
98566144	80	80
100663296	64	32
102760448	208	176
104857600	64	48
106954752	0	0
109051904	16	0
111149056	32	32
113246208	0	0
115343360	48	0
117440512	48	48
119537664	16	16
121634816	16	16
123731968	16	16
125829120	96	80
127926272	32	16
130023424	16	16
132120576	16	16
134217728	96	96
138412032	16	16
142606336	80	64
146800640	0	0
150994944	128	128
155189248	192	176
159383552	80	80
163577856	80	64
167772160	64	48
171966464	112	112
176160768	208	208
180355072	208	208
184549376	112	80
188743680	48	32
192937984	16	16
197132288	16	16
201326592	16	16
205520896	16	16
209715200	0	0
213909504	96	64
218103808	16	16
222298112	0	0
226492416	32	16
230686720	16	16
234881024	0	0
239075328	16	16
243269632	32	32
247463936	0	0
251658240	16	16
255852544	16	16
260046848	32	0
264241152	16	16
268435456	16	16
276824064	0	0
285212672	32	32
293601280	0	0
301989888	16	16
310378496	32	32
318767104	48	48
327155712	32	32
335544320	16	16
343932928	16	16
352321536	0	0
360710144	0	0
369098752	16	16
377487360	0	0
385875968	0	0
394264576	32	32
402653184	0	0
411041792	0	0
419430400	0	0
427819008	0	0
436207616	0	0
444596224	0	0
452984832	0	0
461373440	0	0
469762048	0	0
478150656	0	0
486539264	0	0
494927872	0	0
503316480	0	0
511705088	0	0
520093696	0	0
528482304	0	0
536870912	0	0
553648128	0	0
570425344	0	0
587202560	0	0
603979776	0	0
620756992	0	0
637534208	0	0
654311424	0	0
671088640	0	0
687865856	0	0
704643072	0	0
721420288	0	0
738197504	0	0
754974720	0	0
771751936	0	0
788529152	0	0
805306368	0	0
822083584	0	0
838860800	0	0
855638016	0	0
872415232	0	0
889192448	0	0
905969664	0	0
922746880	0	0
939524096	0	0
956301312	0	0
973078528	0	0
989855744	0	0
1006632960	0	0
1023410176	0	0
1040187392	0	0
1056964608	0	0
1073741824	0	0
1107296256	0	0
1140850688	0	0
1174405120	0	0
1207959552	0	0
1241513984	0	0
1275068416	0	0
1308622848	0	0
1342177280	0	0
1375731712	0	0
1409286144	0	0
1442840576	0	0
1476395008	0	0
1509949440	0	0
1543503872	0	0
1577058304	0	0
1610612736	0	0
1644167168	0	0
1677721600	0	0
1711276032	0	0
1744830464	0	0
1778384896	0	0
1811939328	0	0
1845493760	0	0
1879048192	0	0
1912602624	0	0
1946157056	0	0
1979711488	0	0
2013265920	0	0
2046820352	0	0
2080374784	0	0
2113929216	0	0
2147483648	0	0
2214592512	0	0
2281701376	0	0
2348810240	0	0
2415919104	0	0
2483027968	0	0
2550136832	0	0
2617245696	0	0
2684354560	0	0
2751463424	0	0
2818572288	0	0
2885681152	0	0
2952790016	0	0
3019898880	0	0
3087007744	0	0
3154116608	0	0
3221225472	0	0
3288334336	0	0
3355443200	0	0
3422552064	0	0
3489660928	0	0
3556769792	0	0
3623878656	0	0
3690987520	0	0
3758096384	0	0
3825205248	0	0
3892314112	0	0
3959422976	0	0
4026531840	0	0
4093640704	0	0
4160749568	0	0
4227858432	0	0
~~~~~~~~~~Reuse Distance Profiler output end~~~~~~~~~~

Sampler size:24759

DRAM Statistics
 CHANNEL 0
 RQ ROW_BUFFER_HIT:        174  ROW_BUFFER_MISS:     391655
 DBUS AVG_CONGESTED_CYCLE:    3.84456
 WQ ROW_BUFFER_HIT:       3923  ROW_BUFFER_MISS:     258755  FULL:          0


CPU 0 Branch Prediction Accuracy: 90.3609% MPKI: 14.2454 Average ROB Occupancy at Mispredict: 33.6234
Branch type MPKI
BRANCH_DIRECT_JUMP: 2.2e-05
BRANCH_INDIRECT: 0.00202667
BRANCH_CONDITIONAL: 14.2433
BRANCH_DIRECT_CALL: 4e-06
BRANCH_INDIRECT_CALL: 0
BRANCH_RETURN: 6e-06

