
*** ChampSim Multicore Out-of-Order Simulator ***

Warmup Instructions: 50000000
Simulation Instructions: 1500000000
Number of CPUs: 1
Off-chip DRAM Size: 4 GiB Channels: 1 Width: 64-bit Data Rate: 3200 MT/s

VirtualMemory physical capacity: 8588881920 num_ppages: 2096895
VirtualMemory page size: 4096 log2_page_size: 12

CPU 0 runs /s/traces/champsim_traces/638.imagick_s-10316B.champsimtrace.xz
CPU 0 Bimodal branch predictor
Basic BTB sets: 1024 ways: 8 indirect buffer size: 4096 RAS size: 64
Initializing LRU.
Initializing LRU.
Initializing LRU.
Initializing LRU.
Initializing rdLRU.
Initializing LRU.
Initializing LRU.
Heartbeat CPU 0 instructions: 2000002 cycles: 500064 heartbeat IPC: 3.99949 cumulative IPC: 3.99949 (Simulation time: 0 hr 0 min 50 sec) 
Heartbeat CPU 0 instructions: 4000002 cycles: 1000064 heartbeat IPC: 4 cumulative IPC: 3.99975 (Simulation time: 0 hr 1 min 35 sec) 
Heartbeat CPU 0 instructions: 6000002 cycles: 1500064 heartbeat IPC: 4 cumulative IPC: 3.99983 (Simulation time: 0 hr 2 min 22 sec) 
Heartbeat CPU 0 instructions: 8000002 cycles: 2000064 heartbeat IPC: 4 cumulative IPC: 3.99987 (Simulation time: 0 hr 3 min 5 sec) 
Heartbeat CPU 0 instructions: 10000002 cycles: 2500064 heartbeat IPC: 4 cumulative IPC: 3.9999 (Simulation time: 0 hr 3 min 53 sec) 
Heartbeat CPU 0 instructions: 12000002 cycles: 3000064 heartbeat IPC: 4 cumulative IPC: 3.99992 (Simulation time: 0 hr 4 min 36 sec) 
Heartbeat CPU 0 instructions: 14000002 cycles: 3500064 heartbeat IPC: 4 cumulative IPC: 3.99993 (Simulation time: 0 hr 5 min 21 sec) 
Heartbeat CPU 0 instructions: 16000002 cycles: 4000064 heartbeat IPC: 4 cumulative IPC: 3.99994 (Simulation time: 0 hr 6 min 8 sec) 
Heartbeat CPU 0 instructions: 18000002 cycles: 4500064 heartbeat IPC: 4 cumulative IPC: 3.99994 (Simulation time: 0 hr 6 min 57 sec) 
Heartbeat CPU 0 instructions: 20000002 cycles: 5000064 heartbeat IPC: 4 cumulative IPC: 3.99995 (Simulation time: 0 hr 7 min 45 sec) 
Heartbeat CPU 0 instructions: 22000002 cycles: 5500064 heartbeat IPC: 4 cumulative IPC: 3.99995 (Simulation time: 0 hr 8 min 37 sec) 
Heartbeat CPU 0 instructions: 24000002 cycles: 6000064 heartbeat IPC: 4 cumulative IPC: 3.99996 (Simulation time: 0 hr 9 min 28 sec) 
Heartbeat CPU 0 instructions: 26000002 cycles: 6500064 heartbeat IPC: 4 cumulative IPC: 3.99996 (Simulation time: 0 hr 10 min 20 sec) 
Heartbeat CPU 0 instructions: 28000002 cycles: 7000064 heartbeat IPC: 4 cumulative IPC: 3.99996 (Simulation time: 0 hr 11 min 13 sec) 
Heartbeat CPU 0 instructions: 30000002 cycles: 7500064 heartbeat IPC: 4 cumulative IPC: 3.99997 (Simulation time: 0 hr 12 min 4 sec) 
Heartbeat CPU 0 instructions: 32000002 cycles: 8000064 heartbeat IPC: 4 cumulative IPC: 3.99997 (Simulation time: 0 hr 12 min 55 sec) 
Heartbeat CPU 0 instructions: 34000002 cycles: 8500064 heartbeat IPC: 4 cumulative IPC: 3.99997 (Simulation time: 0 hr 13 min 48 sec) 
Heartbeat CPU 0 instructions: 36000002 cycles: 9000064 heartbeat IPC: 4 cumulative IPC: 3.99997 (Simulation time: 0 hr 14 min 39 sec) 
Heartbeat CPU 0 instructions: 38000002 cycles: 9500064 heartbeat IPC: 4 cumulative IPC: 3.99997 (Simulation time: 0 hr 15 min 29 sec) 
Heartbeat CPU 0 instructions: 40000002 cycles: 10000064 heartbeat IPC: 4 cumulative IPC: 3.99997 (Simulation time: 0 hr 16 min 21 sec) 
Heartbeat CPU 0 instructions: 42000002 cycles: 10500064 heartbeat IPC: 4 cumulative IPC: 3.99998 (Simulation time: 0 hr 17 min 10 sec) 
Heartbeat CPU 0 instructions: 44000002 cycles: 11000064 heartbeat IPC: 4 cumulative IPC: 3.99998 (Simulation time: 0 hr 18 min 0 sec) 
Heartbeat CPU 0 instructions: 46000002 cycles: 11500064 heartbeat IPC: 4 cumulative IPC: 3.99998 (Simulation time: 0 hr 18 min 51 sec) 
Heartbeat CPU 0 instructions: 48000002 cycles: 12000064 heartbeat IPC: 4 cumulative IPC: 3.99998 (Simulation time: 0 hr 19 min 42 sec) 
Heartbeat CPU 0 instructions: 50000002 cycles: 12500064 heartbeat IPC: 4 cumulative IPC: 3.99998 (Simulation time: 0 hr 20 min 34 sec) 

Warmup complete CPU 0 instructions: 50000002 cycles: 12500064 (Simulation time: 0 hr 20 min 34 sec) 

Heartbeat CPU 0 instructions: 52000002 cycles: 13323403 heartbeat IPC: 2.42913 cumulative IPC: 2.42913 (Simulation time: 0 hr 21 min 39 sec) 

Region of Interest Statistics
cpu0_DTLB TOTAL     ACCESS:     171256  HIT:     170326  MISS:        930
cpu0_DTLB LOAD      ACCESS:     171196  HIT:     170278  MISS:        918
cpu0_DTLB RFO       ACCESS:         60  HIT:         48  MISS:         12
cpu0_DTLB PREFETCH  ACCESS:          0  HIT:          0  MISS:          0
cpu0_DTLB WRITEBACK ACCESS:          0  HIT:          0  MISS:          0
cpu0_ITLB TOTAL     ACCESS:      44805  HIT:      44805  MISS:          0
cpu0_ITLB LOAD      ACCESS:      44805  HIT:      44805  MISS:          0
cpu0_ITLB RFO       ACCESS:          0  HIT:          0  MISS:          0
cpu0_ITLB PREFETCH  ACCESS:          0  HIT:          0  MISS:          0
cpu0_ITLB WRITEBACK ACCESS:          0  HIT:          0  MISS:          0
cpu0_STLB TOTAL     ACCESS:        930  HIT:        929  MISS:          1
cpu0_STLB LOAD      ACCESS:        918  HIT:        917  MISS:          1
cpu0_STLB RFO       ACCESS:         12  HIT:         12  MISS:          0
cpu0_STLB PREFETCH  ACCESS:          0  HIT:          0  MISS:          0
cpu0_STLB WRITEBACK ACCESS:          0  HIT:          0  MISS:          0
cpu0_L1D TOTAL     ACCESS:      53173  HIT:      35372  MISS:      17801
cpu0_L1D LOAD      ACCESS:      53076  HIT:      35289  MISS:      17787
cpu0_L1D RFO       ACCESS:         96  HIT:         83  MISS:         13
cpu0_L1D PREFETCH  ACCESS:          0  HIT:          0  MISS:          0
cpu0_L1D WRITEBACK ACCESS:          0  HIT:          0  MISS:          0
cpu0_L2C TOTAL     ACCESS:      17832  HIT:       2046  MISS:      15786
cpu0_L2C LOAD      ACCESS:      17787  HIT:       2009  MISS:      15778
cpu0_L2C RFO       ACCESS:         13  HIT:          6  MISS:          7
cpu0_L2C PREFETCH  ACCESS:          0  HIT:          0  MISS:          0
cpu0_L2C WRITEBACK ACCESS:         31  HIT:         31  MISS:          0
LLC TOTAL     ACCESS:      15806  HIT:      15728  MISS:         78
LLC LOAD      ACCESS:      15778  HIT:      15701  MISS:         77
LLC RFO       ACCESS:          7  HIT:          6  MISS:          1
LLC PREFETCH  ACCESS:          0  HIT:          0  MISS:          0
LLC WRITEBACK ACCESS:         20  HIT:         20  MISS:          0
Heartbeat CPU 0 instructions: 54000002 cycles: 14151421 heartbeat IPC: 2.41541 cumulative IPC: 2.42225 (Simulation time: 0 hr 22 min 44 sec) 

Region of Interest Statistics
cpu0_DTLB TOTAL     ACCESS:     343747  HIT:     341894  MISS:       1853
cpu0_DTLB LOAD      ACCESS:     343643  HIT:     341811  MISS:       1832
cpu0_DTLB RFO       ACCESS:        104  HIT:         83  MISS:         21
cpu0_DTLB PREFETCH  ACCESS:          0  HIT:          0  MISS:          0
cpu0_DTLB WRITEBACK ACCESS:          0  HIT:          0  MISS:          0
cpu0_ITLB TOTAL     ACCESS:      90099  HIT:      90099  MISS:          0
cpu0_ITLB LOAD      ACCESS:      90099  HIT:      90099  MISS:          0
cpu0_ITLB RFO       ACCESS:          0  HIT:          0  MISS:          0
cpu0_ITLB PREFETCH  ACCESS:          0  HIT:          0  MISS:          0
cpu0_ITLB WRITEBACK ACCESS:          0  HIT:          0  MISS:          0
cpu0_STLB TOTAL     ACCESS:       1853  HIT:       1851  MISS:          2
cpu0_STLB LOAD      ACCESS:       1832  HIT:       1830  MISS:          2
cpu0_STLB RFO       ACCESS:         21  HIT:         21  MISS:          0
cpu0_STLB PREFETCH  ACCESS:          0  HIT:          0  MISS:          0
cpu0_STLB WRITEBACK ACCESS:          0  HIT:          0  MISS:          0
cpu0_L1D TOTAL     ACCESS:     105919  HIT:      70329  MISS:      35590
cpu0_L1D LOAD      ACCESS:     105746  HIT:      70181  MISS:      35565
cpu0_L1D RFO       ACCESS:        171  HIT:        148  MISS:         23
cpu0_L1D PREFETCH  ACCESS:          0  HIT:          0  MISS:          0
cpu0_L1D WRITEBACK ACCESS:          0  HIT:          0  MISS:          0
cpu0_L2C TOTAL     ACCESS:      35646  HIT:       4112  MISS:      31534
cpu0_L2C LOAD      ACCESS:      35565  HIT:       4045  MISS:      31520
cpu0_L2C RFO       ACCESS:         23  HIT:         11  MISS:         12
cpu0_L2C PREFETCH  ACCESS:          0  HIT:          0  MISS:          0
cpu0_L2C WRITEBACK ACCESS:         56  HIT:         56  MISS:          0
LLC TOTAL     ACCESS:      31579  HIT:      31423  MISS:        156
LLC LOAD      ACCESS:      31520  HIT:      31365  MISS:        155
LLC RFO       ACCESS:         12  HIT:         11  MISS:          1
LLC PREFETCH  ACCESS:          0  HIT:          0  MISS:          0
LLC WRITEBACK ACCESS:         45  HIT:         45  MISS:          0
Heartbeat CPU 0 instructions: 56000001 cycles: 14977609 heartbeat IPC: 2.42076 cumulative IPC: 2.42175 (Simulation time: 0 hr 23 min 48 sec) 

Region of Interest Statistics
cpu0_DTLB TOTAL     ACCESS:     515971  HIT:     513192  MISS:       2779
cpu0_DTLB LOAD      ACCESS:     515813  HIT:     513066  MISS:       2747
cpu0_DTLB RFO       ACCESS:        158  HIT:        126  MISS:         32
cpu0_DTLB PREFETCH  ACCESS:          0  HIT:          0  MISS:          0
cpu0_DTLB WRITEBACK ACCESS:          0  HIT:          0  MISS:          0
cpu0_ITLB TOTAL     ACCESS:     134972  HIT:     134972  MISS:          0
cpu0_ITLB LOAD      ACCESS:     134972  HIT:     134972  MISS:          0
cpu0_ITLB RFO       ACCESS:          0  HIT:          0  MISS:          0
cpu0_ITLB PREFETCH  ACCESS:          0  HIT:          0  MISS:          0
cpu0_ITLB WRITEBACK ACCESS:          0  HIT:          0  MISS:          0
cpu0_STLB TOTAL     ACCESS:       2779  HIT:       2775  MISS:          4
cpu0_STLB LOAD      ACCESS:       2747  HIT:       2743  MISS:          4
cpu0_STLB RFO       ACCESS:         32  HIT:         32  MISS:          0
cpu0_STLB PREFETCH  ACCESS:          0  HIT:          0  MISS:          0
cpu0_STLB WRITEBACK ACCESS:          0  HIT:          0  MISS:          0
cpu0_L1D TOTAL     ACCESS:     159635  HIT:     106240  MISS:      53395
cpu0_L1D LOAD      ACCESS:     159370  HIT:     106015  MISS:      53355
cpu0_L1D RFO       ACCESS:        261  HIT:        225  MISS:         36
cpu0_L1D PREFETCH  ACCESS:          0  HIT:          0  MISS:          0
cpu0_L1D WRITEBACK ACCESS:          0  HIT:          0  MISS:          0
cpu0_L2C TOTAL     ACCESS:      53482  HIT:       6255  MISS:      47227
cpu0_L2C LOAD      ACCESS:      53355  HIT:       6150  MISS:      47205
cpu0_L2C RFO       ACCESS:         36  HIT:         17  MISS:         19
cpu0_L2C PREFETCH  ACCESS:          0  HIT:          0  MISS:          0
cpu0_L2C WRITEBACK ACCESS:         87  HIT:         87  MISS:          0
LLC TOTAL     ACCESS:      47295  HIT:      47060  MISS:        235
LLC LOAD      ACCESS:      47205  HIT:      46972  MISS:        233
LLC RFO       ACCESS:         19  HIT:         17  MISS:          2
LLC PREFETCH  ACCESS:          0  HIT:          0  MISS:          0
LLC WRITEBACK ACCESS:         68  HIT:         68  MISS:          0
Heartbeat CPU 0 instructions: 58000004 cycles: 15802703 heartbeat IPC: 2.42397 cumulative IPC: 2.42231 (Simulation time: 0 hr 24 min 52 sec) 

Region of Interest Statistics
cpu0_DTLB TOTAL     ACCESS:     687367  HIT:     683666  MISS:       3701
cpu0_DTLB LOAD      ACCESS:     687154  HIT:     683497  MISS:       3657
cpu0_DTLB RFO       ACCESS:        213  HIT:        169  MISS:         44
cpu0_DTLB PREFETCH  ACCESS:          0  HIT:          0  MISS:          0
cpu0_DTLB WRITEBACK ACCESS:          0  HIT:          0  MISS:          0
cpu0_ITLB TOTAL     ACCESS:     179443  HIT:     179443  MISS:          0
cpu0_ITLB LOAD      ACCESS:     179443  HIT:     179443  MISS:          0
cpu0_ITLB RFO       ACCESS:          0  HIT:          0  MISS:          0
cpu0_ITLB PREFETCH  ACCESS:          0  HIT:          0  MISS:          0
cpu0_ITLB WRITEBACK ACCESS:          0  HIT:          0  MISS:          0
cpu0_STLB TOTAL     ACCESS:       3701  HIT:       3697  MISS:          4
cpu0_STLB LOAD      ACCESS:       3657  HIT:       3653  MISS:          4
cpu0_STLB RFO       ACCESS:         44  HIT:         44  MISS:          0
cpu0_STLB PREFETCH  ACCESS:          0  HIT:          0  MISS:          0
cpu0_STLB WRITEBACK ACCESS:          0  HIT:          0  MISS:          0
cpu0_L1D TOTAL     ACCESS:     212466  HIT:     141268  MISS:      71198
cpu0_L1D LOAD      ACCESS:     212111  HIT:     140966  MISS:      71145
cpu0_L1D RFO       ACCESS:        351  HIT:        302  MISS:         49
cpu0_L1D PREFETCH  ACCESS:          0  HIT:          0  MISS:          0
cpu0_L1D WRITEBACK ACCESS:          0  HIT:          0  MISS:          0
cpu0_L2C TOTAL     ACCESS:      71311  HIT:       8344  MISS:      62967
cpu0_L2C LOAD      ACCESS:      71145  HIT:       8207  MISS:      62938
cpu0_L2C RFO       ACCESS:         49  HIT:         23  MISS:         26
cpu0_L2C PREFETCH  ACCESS:          0  HIT:          0  MISS:          0
cpu0_L2C WRITEBACK ACCESS:        113  HIT:        113  MISS:          0
LLC TOTAL     ACCESS:      63056  HIT:      62743  MISS:        313
LLC LOAD      ACCESS:      62938  HIT:      62628  MISS:        310
LLC RFO       ACCESS:         26  HIT:         23  MISS:          3
LLC PREFETCH  ACCESS:          0  HIT:          0  MISS:          0
LLC WRITEBACK ACCESS:         89  HIT:         89  MISS:          0
Heartbeat CPU 0 instructions: 60000000 cycles: 16630087 heartbeat IPC: 2.41725 cumulative IPC: 2.42129 (Simulation time: 0 hr 25 min 57 sec) 

Region of Interest Statistics
cpu0_DTLB TOTAL     ACCESS:     859832  HIT:     855209  MISS:       4623
cpu0_DTLB LOAD      ACCESS:     859575  HIT:     855005  MISS:       4570
cpu0_DTLB RFO       ACCESS:        257  HIT:        204  MISS:         53
cpu0_DTLB PREFETCH  ACCESS:          0  HIT:          0  MISS:          0
cpu0_DTLB WRITEBACK ACCESS:          0  HIT:          0  MISS:          0
cpu0_ITLB TOTAL     ACCESS:     224086  HIT:     224086  MISS:          0
cpu0_ITLB LOAD      ACCESS:     224086  HIT:     224086  MISS:          0
cpu0_ITLB RFO       ACCESS:          0  HIT:          0  MISS:          0
cpu0_ITLB PREFETCH  ACCESS:          0  HIT:          0  MISS:          0
cpu0_ITLB WRITEBACK ACCESS:          0  HIT:          0  MISS:          0
cpu0_STLB TOTAL     ACCESS:       4623  HIT:       4617  MISS:          6
cpu0_STLB LOAD      ACCESS:       4570  HIT:       4564  MISS:          6
cpu0_STLB RFO       ACCESS:         53  HIT:         53  MISS:          0
cpu0_STLB PREFETCH  ACCESS:          0  HIT:          0  MISS:          0
cpu0_STLB WRITEBACK ACCESS:          0  HIT:          0  MISS:          0
cpu0_L1D TOTAL     ACCESS:     265632  HIT:     176641  MISS:      88991
cpu0_L1D LOAD      ACCESS:     265200  HIT:     176274  MISS:      88926
cpu0_L1D RFO       ACCESS:        426  HIT:        367  MISS:         59
cpu0_L1D PREFETCH  ACCESS:          0  HIT:          0  MISS:          0
cpu0_L1D WRITEBACK ACCESS:          0  HIT:          0  MISS:          0
cpu0_L2C TOTAL     ACCESS:      89134  HIT:      10476  MISS:      78658
cpu0_L2C LOAD      ACCESS:      88926  HIT:      10303  MISS:      78623
cpu0_L2C RFO       ACCESS:         59  HIT:         28  MISS:         31
cpu0_L2C PREFETCH  ACCESS:          0  HIT:          0  MISS:          0
cpu0_L2C WRITEBACK ACCESS:        143  HIT:        143  MISS:          0
LLC TOTAL     ACCESS:      78771  HIT:      78380  MISS:        391
LLC LOAD      ACCESS:      78623  HIT:      78235  MISS:        388
LLC RFO       ACCESS:         31  HIT:         28  MISS:          3
LLC PREFETCH  ACCESS:          0  HIT:          0  MISS:          0
LLC WRITEBACK ACCESS:        113  HIT:        113  MISS:          0
Heartbeat CPU 0 instructions: 62000001 cycles: 17454325 heartbeat IPC: 2.42648 cumulative IPC: 2.42216 (Simulation time: 0 hr 27 min 2 sec) 

Region of Interest Statistics
cpu0_DTLB TOTAL     ACCESS:    1031680  HIT:    1026122  MISS:       5558
cpu0_DTLB LOAD      ACCESS:    1031369  HIT:    1025875  MISS:       5494
cpu0_DTLB RFO       ACCESS:        311  HIT:        247  MISS:         64
cpu0_DTLB PREFETCH  ACCESS:          0  HIT:          0  MISS:          0
cpu0_DTLB WRITEBACK ACCESS:          0  HIT:          0  MISS:          0
cpu0_ITLB TOTAL     ACCESS:     268836  HIT:     268836  MISS:          0
cpu0_ITLB LOAD      ACCESS:     268836  HIT:     268836  MISS:          0
cpu0_ITLB RFO       ACCESS:          0  HIT:          0  MISS:          0
cpu0_ITLB PREFETCH  ACCESS:          0  HIT:          0  MISS:          0
cpu0_ITLB WRITEBACK ACCESS:          0  HIT:          0  MISS:          0
cpu0_STLB TOTAL     ACCESS:       5558  HIT:       5550  MISS:          8
cpu0_STLB LOAD      ACCESS:       5494  HIT:       5486  MISS:          8
cpu0_STLB RFO       ACCESS:         64  HIT:         64  MISS:          0
cpu0_STLB PREFETCH  ACCESS:          0  HIT:          0  MISS:          0
cpu0_STLB WRITEBACK ACCESS:          0  HIT:          0  MISS:          0
cpu0_L1D TOTAL     ACCESS:     319130  HIT:     212339  MISS:     106791
cpu0_L1D LOAD      ACCESS:     318606  HIT:     211895  MISS:     106711
cpu0_L1D RFO       ACCESS:        516  HIT:        444  MISS:         72
cpu0_L1D PREFETCH  ACCESS:          0  HIT:          0  MISS:          0
cpu0_L1D WRITEBACK ACCESS:          0  HIT:          0  MISS:          0
cpu0_L2C TOTAL     ACCESS:     106965  HIT:      12618  MISS:      94347
cpu0_L2C LOAD      ACCESS:     106711  HIT:      12407  MISS:      94304
cpu0_L2C RFO       ACCESS:         72  HIT:         34  MISS:         38
cpu0_L2C PREFETCH  ACCESS:          0  HIT:          0  MISS:          0
cpu0_L2C WRITEBACK ACCESS:        174  HIT:        174  MISS:          0
LLC TOTAL     ACCESS:      94480  HIT:      94011  MISS:        469
LLC LOAD      ACCESS:      94304  HIT:      93839  MISS:        465
LLC RFO       ACCESS:         38  HIT:         34  MISS:          4
LLC PREFETCH  ACCESS:          0  HIT:          0  MISS:          0
LLC WRITEBACK ACCESS:        133  HIT:        133  MISS:          0
Heartbeat CPU 0 instructions: 64000002 cycles: 18285472 heartbeat IPC: 2.40631 cumulative IPC: 2.41988 (Simulation time: 0 hr 28 min 5 sec) 

Region of Interest Statistics
cpu0_DTLB TOTAL     ACCESS:    1204515  HIT:    1198028  MISS:       6487
cpu0_DTLB LOAD      ACCESS:    1204158  HIT:    1197745  MISS:       6413
cpu0_DTLB RFO       ACCESS:        357  HIT:        283  MISS:         74
cpu0_DTLB PREFETCH  ACCESS:          0  HIT:          0  MISS:          0
cpu0_DTLB WRITEBACK ACCESS:          0  HIT:          0  MISS:          0
cpu0_ITLB TOTAL     ACCESS:     313374  HIT:     313374  MISS:          0
cpu0_ITLB LOAD      ACCESS:     313374  HIT:     313374  MISS:          0
cpu0_ITLB RFO       ACCESS:          0  HIT:          0  MISS:          0
cpu0_ITLB PREFETCH  ACCESS:          0  HIT:          0  MISS:          0
cpu0_ITLB WRITEBACK ACCESS:          0  HIT:          0  MISS:          0
cpu0_STLB TOTAL     ACCESS:       6487  HIT:       6478  MISS:          9
cpu0_STLB LOAD      ACCESS:       6413  HIT:       6404  MISS:          9
cpu0_STLB RFO       ACCESS:         74  HIT:         74  MISS:          0
cpu0_STLB PREFETCH  ACCESS:          0  HIT:          0  MISS:          0
cpu0_STLB WRITEBACK ACCESS:          0  HIT:          0  MISS:          0
cpu0_L1D TOTAL     ACCESS:     371444  HIT:     246860  MISS:     124584
cpu0_L1D LOAD      ACCESS:     370844  HIT:     246352  MISS:     124492
cpu0_L1D RFO       ACCESS:        591  HIT:        508  MISS:         83
cpu0_L1D PREFETCH  ACCESS:          0  HIT:          0  MISS:          0
cpu0_L1D WRITEBACK ACCESS:          0  HIT:          0  MISS:          0
cpu0_L2C TOTAL     ACCESS:     124784  HIT:      14633  MISS:     110151
cpu0_L2C LOAD      ACCESS:     124492  HIT:      14391  MISS:     110101
cpu0_L2C RFO       ACCESS:         83  HIT:         39  MISS:         44
cpu0_L2C PREFETCH  ACCESS:          0  HIT:          0  MISS:          0
cpu0_L2C WRITEBACK ACCESS:        200  HIT:        200  MISS:          0
LLC TOTAL     ACCESS:     110308  HIT:     109761  MISS:        547
LLC LOAD      ACCESS:     110101  HIT:     109559  MISS:        542
LLC RFO       ACCESS:         44  HIT:         39  MISS:          5
LLC PREFETCH  ACCESS:          0  HIT:          0  MISS:          0
LLC WRITEBACK ACCESS:        157  HIT:        157  MISS:          0
Heartbeat CPU 0 instructions: 66000000 cycles: 19109378 heartbeat IPC: 2.42746 cumulative IPC: 2.42083 (Simulation time: 0 hr 29 min 6 sec) 

Region of Interest Statistics
cpu0_DTLB TOTAL     ACCESS:    1376127  HIT:    1368707  MISS:       7420
cpu0_DTLB LOAD      ACCESS:    1375717  HIT:    1368382  MISS:       7335
cpu0_DTLB RFO       ACCESS:        410  HIT:        325  MISS:         85
cpu0_DTLB PREFETCH  ACCESS:          0  HIT:          0  MISS:          0
cpu0_DTLB WRITEBACK ACCESS:          0  HIT:          0  MISS:          0
cpu0_ITLB TOTAL     ACCESS:     357547  HIT:     357547  MISS:          0
cpu0_ITLB LOAD      ACCESS:     357547  HIT:     357547  MISS:          0
cpu0_ITLB RFO       ACCESS:          0  HIT:          0  MISS:          0
cpu0_ITLB PREFETCH  ACCESS:          0  HIT:          0  MISS:          0
cpu0_ITLB WRITEBACK ACCESS:          0  HIT:          0  MISS:          0
cpu0_STLB TOTAL     ACCESS:       7420  HIT:       7410  MISS:         10
cpu0_STLB LOAD      ACCESS:       7335  HIT:       7325  MISS:         10
cpu0_STLB RFO       ACCESS:         85  HIT:         85  MISS:          0
cpu0_STLB PREFETCH  ACCESS:          0  HIT:          0  MISS:          0
cpu0_STLB WRITEBACK ACCESS:          0  HIT:          0  MISS:          0
cpu0_L1D TOTAL     ACCESS:     425048  HIT:     282660  MISS:     142388
cpu0_L1D LOAD      ACCESS:     424357  HIT:     282075  MISS:     142282
cpu0_L1D RFO       ACCESS:        681  HIT:        585  MISS:         96
cpu0_L1D PREFETCH  ACCESS:          0  HIT:          0  MISS:          0
cpu0_L1D WRITEBACK ACCESS:          0  HIT:          0  MISS:          0
cpu0_L2C TOTAL     ACCESS:     142619  HIT:      16633  MISS:     125986
cpu0_L2C LOAD      ACCESS:     142282  HIT:      16354  MISS:     125928
cpu0_L2C RFO       ACCESS:         96  HIT:         45  MISS:         51
cpu0_L2C PREFETCH  ACCESS:          0  HIT:          0  MISS:          0
cpu0_L2C WRITEBACK ACCESS:        231  HIT:        231  MISS:          0
LLC TOTAL     ACCESS:     126163  HIT:     125537  MISS:        626
LLC LOAD      ACCESS:     125928  HIT:     125308  MISS:        620
LLC RFO       ACCESS:         51  HIT:         45  MISS:          6
LLC PREFETCH  ACCESS:          0  HIT:          0  MISS:          0
LLC WRITEBACK ACCESS:        177  HIT:        177  MISS:          0
Heartbeat CPU 0 instructions: 68000001 cycles: 19936104 heartbeat IPC: 2.41918 cumulative IPC: 2.42064 (Simulation time: 0 hr 30 min 9 sec) 

Region of Interest Statistics
cpu0_DTLB TOTAL     ACCESS:    1547551  HIT:    1539201  MISS:       8350
cpu0_DTLB LOAD      ACCESS:    1547087  HIT:    1538833  MISS:       8254
cpu0_DTLB RFO       ACCESS:        464  HIT:        368  MISS:         96
cpu0_DTLB PREFETCH  ACCESS:          0  HIT:          0  MISS:          0
cpu0_DTLB WRITEBACK ACCESS:          0  HIT:          0  MISS:          0
cpu0_ITLB TOTAL     ACCESS:     402415  HIT:     402415  MISS:          0
cpu0_ITLB LOAD      ACCESS:     402415  HIT:     402415  MISS:          0
cpu0_ITLB RFO       ACCESS:          0  HIT:          0  MISS:          0
cpu0_ITLB PREFETCH  ACCESS:          0  HIT:          0  MISS:          0
cpu0_ITLB WRITEBACK ACCESS:          0  HIT:          0  MISS:          0
cpu0_STLB TOTAL     ACCESS:       8350  HIT:       8340  MISS:         10
cpu0_STLB LOAD      ACCESS:       8254  HIT:       8244  MISS:         10
cpu0_STLB RFO       ACCESS:         96  HIT:         96  MISS:          0
cpu0_STLB PREFETCH  ACCESS:          0  HIT:          0  MISS:          0
cpu0_STLB WRITEBACK ACCESS:          0  HIT:          0  MISS:          0
cpu0_L1D TOTAL     ACCESS:     478132  HIT:     317947  MISS:     160185
cpu0_L1D LOAD      ACCESS:     477351  HIT:     317284  MISS:     160067
cpu0_L1D RFO       ACCESS:        771  HIT:        663  MISS:        108
cpu0_L1D PREFETCH  ACCESS:          0  HIT:          0  MISS:          0
cpu0_L1D WRITEBACK ACCESS:          0  HIT:          0  MISS:          0
cpu0_L2C TOTAL     ACCESS:     160441  HIT:      18613  MISS:     141828
cpu0_L2C LOAD      ACCESS:     160067  HIT:      18303  MISS:     141764
cpu0_L2C RFO       ACCESS:        108  HIT:         51  MISS:         57
cpu0_L2C PREFETCH  ACCESS:          0  HIT:          0  MISS:          0
cpu0_L2C WRITEBACK ACCESS:        256  HIT:        256  MISS:          0
LLC TOTAL     ACCESS:     142029  HIT:     141326  MISS:        703
LLC LOAD      ACCESS:     141764  HIT:     141067  MISS:        697
LLC RFO       ACCESS:         57  HIT:         51  MISS:          6
LLC PREFETCH  ACCESS:          0  HIT:          0  MISS:          0
LLC WRITEBACK ACCESS:        201  HIT:        201  MISS:          0
Heartbeat CPU 0 instructions: 70000001 cycles: 20768027 heartbeat IPC: 2.40407 cumulative IPC: 2.41898 (Simulation time: 0 hr 31 min 9 sec) 

Region of Interest Statistics
cpu0_DTLB TOTAL     ACCESS:    1721090  HIT:    1711821  MISS:       9269
cpu0_DTLB LOAD      ACCESS:    1720580  HIT:    1711417  MISS:       9163
cpu0_DTLB RFO       ACCESS:        510  HIT:        404  MISS:        106
cpu0_DTLB PREFETCH  ACCESS:          0  HIT:          0  MISS:          0
cpu0_DTLB WRITEBACK ACCESS:          0  HIT:          0  MISS:          0
cpu0_ITLB TOTAL     ACCESS:     447002  HIT:     447002  MISS:          0
cpu0_ITLB LOAD      ACCESS:     447002  HIT:     447002  MISS:          0
cpu0_ITLB RFO       ACCESS:          0  HIT:          0  MISS:          0
cpu0_ITLB PREFETCH  ACCESS:          0  HIT:          0  MISS:          0
cpu0_ITLB WRITEBACK ACCESS:          0  HIT:          0  MISS:          0
cpu0_STLB TOTAL     ACCESS:       9269  HIT:       9258  MISS:         11
cpu0_STLB LOAD      ACCESS:       9163  HIT:       9152  MISS:         11
cpu0_STLB RFO       ACCESS:        106  HIT:        106  MISS:          0
cpu0_STLB PREFETCH  ACCESS:          0  HIT:          0  MISS:          0
cpu0_STLB WRITEBACK ACCESS:          0  HIT:          0  MISS:          0
cpu0_L1D TOTAL     ACCESS:     530838  HIT:     352860  MISS:     177978
cpu0_L1D LOAD      ACCESS:     529981  HIT:     352133  MISS:     177848
cpu0_L1D RFO       ACCESS:        846  HIT:        727  MISS:        119
cpu0_L1D PREFETCH  ACCESS:          0  HIT:          0  MISS:          0
cpu0_L1D WRITEBACK ACCESS:          0  HIT:          0  MISS:          0
cpu0_L2C TOTAL     ACCESS:     178265  HIT:      20611  MISS:     157654
cpu0_L2C LOAD      ACCESS:     177848  HIT:      20265  MISS:     157583
cpu0_L2C RFO       ACCESS:        119  HIT:         56  MISS:         63
cpu0_L2C PREFETCH  ACCESS:          0  HIT:          0  MISS:          0
cpu0_L2C WRITEBACK ACCESS:        287  HIT:        287  MISS:          0
LLC TOTAL     ACCESS:     157879  HIT:     157098  MISS:        781
LLC LOAD      ACCESS:     157583  HIT:     156809  MISS:        774
LLC RFO       ACCESS:         63  HIT:         56  MISS:          7
LLC PREFETCH  ACCESS:          0  HIT:          0  MISS:          0
LLC WRITEBACK ACCESS:        225  HIT:        225  MISS:          0
Heartbeat CPU 0 instructions: 72000001 cycles: 21591845 heartbeat IPC: 2.42772 cumulative IPC: 2.41977 (Simulation time: 0 hr 32 min 9 sec) 

Region of Interest Statistics
cpu0_DTLB TOTAL     ACCESS:    1892556  HIT:    1882360  MISS:      10196
cpu0_DTLB LOAD      ACCESS:    1891993  HIT:    1881914  MISS:      10079
cpu0_DTLB RFO       ACCESS:        563  HIT:        446  MISS:        117
cpu0_DTLB PREFETCH  ACCESS:          0  HIT:          0  MISS:          0
cpu0_DTLB WRITEBACK ACCESS:          0  HIT:          0  MISS:          0
cpu0_ITLB TOTAL     ACCESS:     491347  HIT:     491347  MISS:          0
cpu0_ITLB LOAD      ACCESS:     491347  HIT:     491347  MISS:          0
cpu0_ITLB RFO       ACCESS:          0  HIT:          0  MISS:          0
cpu0_ITLB PREFETCH  ACCESS:          0  HIT:          0  MISS:          0
cpu0_ITLB WRITEBACK ACCESS:          0  HIT:          0  MISS:          0
cpu0_L1I TOTAL     ACCESS:          1  HIT:          1  MISS:          0
cpu0_L1I LOAD      ACCESS:          1  HIT:          1  MISS:          0
cpu0_L1I RFO       ACCESS:          0  HIT:          0  MISS:          0
cpu0_L1I PREFETCH  ACCESS:          0  HIT:          0  MISS:          0
cpu0_L1I WRITEBACK ACCESS:          0  HIT:          0  MISS:          0
cpu0_STLB TOTAL     ACCESS:      10196  HIT:      10183  MISS:         13
cpu0_STLB LOAD      ACCESS:      10079  HIT:      10066  MISS:         13
cpu0_STLB RFO       ACCESS:        117  HIT:        117  MISS:          0
cpu0_STLB PREFETCH  ACCESS:          0  HIT:          0  MISS:          0
cpu0_STLB WRITEBACK ACCESS:          0  HIT:          0  MISS:          0
cpu0_L1D TOTAL     ACCESS:     584184  HIT:     388398  MISS:     195786
cpu0_L1D LOAD      ACCESS:     583231  HIT:     387590  MISS:     195641
cpu0_L1D RFO       ACCESS:        940  HIT:        808  MISS:        132
cpu0_L1D PREFETCH  ACCESS:          0  HIT:          0  MISS:          0
cpu0_L1D WRITEBACK ACCESS:          0  HIT:          0  MISS:          0
cpu0_L2C TOTAL     ACCESS:     196099  HIT:      22616  MISS:     173483
cpu0_L2C LOAD      ACCESS:     195641  HIT:      22237  MISS:     173404
cpu0_L2C RFO       ACCESS:        132  HIT:         62  MISS:         70
cpu0_L2C PREFETCH  ACCESS:          0  HIT:          0  MISS:          0
cpu0_L2C WRITEBACK ACCESS:        313  HIT:        313  MISS:          0
LLC TOTAL     ACCESS:     173728  HIT:     172869  MISS:        859
LLC LOAD      ACCESS:     173404  HIT:     172553  MISS:        851
LLC RFO       ACCESS:         70  HIT:         62  MISS:          8
LLC PREFETCH  ACCESS:          0  HIT:          0  MISS:          0
LLC WRITEBACK ACCESS:        245  HIT:        245  MISS:          0
Heartbeat CPU 0 instructions: 74000002 cycles: 22422229 heartbeat IPC: 2.40853 cumulative IPC: 2.41883 (Simulation time: 0 hr 33 min 10 sec) 

Region of Interest Statistics
cpu0_DTLB TOTAL     ACCESS:    2064751  HIT:    2053630  MISS:      11121
cpu0_DTLB LOAD      ACCESS:    2064140  HIT:    2053146  MISS:      10994
cpu0_DTLB RFO       ACCESS:        611  HIT:        484  MISS:        127
cpu0_DTLB PREFETCH  ACCESS:          0  HIT:          0  MISS:          0
cpu0_DTLB WRITEBACK ACCESS:          0  HIT:          0  MISS:          0
cpu0_ITLB TOTAL     ACCESS:     536289  HIT:     536289  MISS:          0
cpu0_ITLB LOAD      ACCESS:     536289  HIT:     536289  MISS:          0
cpu0_ITLB RFO       ACCESS:          0  HIT:          0  MISS:          0
cpu0_ITLB PREFETCH  ACCESS:          0  HIT:          0  MISS:          0
cpu0_ITLB WRITEBACK ACCESS:          0  HIT:          0  MISS:          0
cpu0_L1I TOTAL     ACCESS:          1  HIT:          1  MISS:          0
cpu0_L1I LOAD      ACCESS:          1  HIT:          1  MISS:          0
cpu0_L1I RFO       ACCESS:          0  HIT:          0  MISS:          0
cpu0_L1I PREFETCH  ACCESS:          0  HIT:          0  MISS:          0
cpu0_L1I WRITEBACK ACCESS:          0  HIT:          0  MISS:          0
cpu0_STLB TOTAL     ACCESS:      11121  HIT:      11106  MISS:         15
cpu0_STLB LOAD      ACCESS:      10994  HIT:      10979  MISS:         15
cpu0_STLB RFO       ACCESS:        127  HIT:        127  MISS:          0
cpu0_STLB PREFETCH  ACCESS:          0  HIT:          0  MISS:          0
cpu0_STLB WRITEBACK ACCESS:          0  HIT:          0  MISS:          0
cpu0_L1D TOTAL     ACCESS:     636926  HIT:     423346  MISS:     213580
cpu0_L1D LOAD      ACCESS:     635888  HIT:     422465  MISS:     213423
cpu0_L1D RFO       ACCESS:       1023  HIT:        881  MISS:        142
cpu0_L1D PREFETCH  ACCESS:          0  HIT:          0  MISS:          0
cpu0_L1D WRITEBACK ACCESS:          0  HIT:          0  MISS:          0
cpu0_L2C TOTAL     ACCESS:     213923  HIT:      24679  MISS:     189244
cpu0_L2C LOAD      ACCESS:     213423  HIT:      24264  MISS:     189159
cpu0_L2C RFO       ACCESS:        142  HIT:         67  MISS:         75
cpu0_L2C PREFETCH  ACCESS:          0  HIT:          0  MISS:          0
cpu0_L2C WRITEBACK ACCESS:        343  HIT:        343  MISS:          0
LLC TOTAL     ACCESS:     189514  HIT:     188577  MISS:        937
LLC LOAD      ACCESS:     189159  HIT:     188230  MISS:        929
LLC RFO       ACCESS:         75  HIT:         67  MISS:          8
LLC PREFETCH  ACCESS:          0  HIT:          0  MISS:          0
LLC WRITEBACK ACCESS:        270  HIT:        270  MISS:          0
Heartbeat CPU 0 instructions: 76000003 cycles: 23251686 heartbeat IPC: 2.41122 cumulative IPC: 2.41824 (Simulation time: 0 hr 34 min 12 sec) 

Region of Interest Statistics
cpu0_DTLB TOTAL     ACCESS:    2237332  HIT:    2225273  MISS:      12059
cpu0_DTLB LOAD      ACCESS:    2236670  HIT:    2224747  MISS:      11923
cpu0_DTLB RFO       ACCESS:        662  HIT:        526  MISS:        136
cpu0_DTLB PREFETCH  ACCESS:          0  HIT:          0  MISS:          0
cpu0_DTLB WRITEBACK ACCESS:          0  HIT:          0  MISS:          0
cpu0_ITLB TOTAL     ACCESS:     581083  HIT:     581083  MISS:          0
cpu0_ITLB LOAD      ACCESS:     581083  HIT:     581083  MISS:          0
cpu0_ITLB RFO       ACCESS:          0  HIT:          0  MISS:          0
cpu0_ITLB PREFETCH  ACCESS:          0  HIT:          0  MISS:          0
cpu0_ITLB WRITEBACK ACCESS:          0  HIT:          0  MISS:          0
cpu0_L1I TOTAL     ACCESS:          1  HIT:          1  MISS:          0
cpu0_L1I LOAD      ACCESS:          1  HIT:          1  MISS:          0
cpu0_L1I RFO       ACCESS:          0  HIT:          0  MISS:          0
cpu0_L1I PREFETCH  ACCESS:          0  HIT:          0  MISS:          0
cpu0_L1I WRITEBACK ACCESS:          0  HIT:          0  MISS:          0
cpu0_STLB TOTAL     ACCESS:      12059  HIT:      12043  MISS:         16
cpu0_STLB LOAD      ACCESS:      11923  HIT:      11907  MISS:         16
cpu0_STLB RFO       ACCESS:        136  HIT:        136  MISS:          0
cpu0_STLB PREFETCH  ACCESS:          0  HIT:          0  MISS:          0
cpu0_STLB WRITEBACK ACCESS:          0  HIT:          0  MISS:          0
cpu0_L1D TOTAL     ACCESS:     690436  HIT:     459048  MISS:     231388
cpu0_L1D LOAD      ACCESS:     689295  HIT:     458078  MISS:     231217
cpu0_L1D RFO       ACCESS:       1125  HIT:        970  MISS:        155
cpu0_L1D PREFETCH  ACCESS:          0  HIT:          0  MISS:          0
cpu0_L1D WRITEBACK ACCESS:          0  HIT:          0  MISS:          0
cpu0_L2C TOTAL     ACCESS:     231762  HIT:      26728  MISS:     205034
cpu0_L2C LOAD      ACCESS:     231217  HIT:      26276  MISS:     204941
cpu0_L2C RFO       ACCESS:        155  HIT:         73  MISS:         82
cpu0_L2C PREFETCH  ACCESS:          0  HIT:          0  MISS:          0
cpu0_L2C WRITEBACK ACCESS:        374  HIT:        374  MISS:          0
LLC TOTAL     ACCESS:     205324  HIT:     204308  MISS:       1016
LLC LOAD      ACCESS:     204941  HIT:     203934  MISS:       1007
LLC RFO       ACCESS:         82  HIT:         73  MISS:          9
LLC PREFETCH  ACCESS:          0  HIT:          0  MISS:          0
LLC WRITEBACK ACCESS:        290  HIT:        290  MISS:          0
Heartbeat CPU 0 instructions: 78000002 cycles: 24078398 heartbeat IPC: 2.41922 cumulative IPC: 2.41831 (Simulation time: 0 hr 35 min 12 sec) 

Region of Interest Statistics
cpu0_DTLB TOTAL     ACCESS:    2408833  HIT:    2395846  MISS:      12987
cpu0_DTLB LOAD      ACCESS:    2408128  HIT:    2395285  MISS:      12843
cpu0_DTLB RFO       ACCESS:        705  HIT:        561  MISS:        144
cpu0_DTLB PREFETCH  ACCESS:          0  HIT:          0  MISS:          0
cpu0_DTLB WRITEBACK ACCESS:          0  HIT:          0  MISS:          0
cpu0_ITLB TOTAL     ACCESS:     625292  HIT:     625292  MISS:          0
cpu0_ITLB LOAD      ACCESS:     625292  HIT:     625292  MISS:          0
cpu0_ITLB RFO       ACCESS:          0  HIT:          0  MISS:          0
cpu0_ITLB PREFETCH  ACCESS:          0  HIT:          0  MISS:          0
cpu0_ITLB WRITEBACK ACCESS:          0  HIT:          0  MISS:          0
cpu0_L1I TOTAL     ACCESS:          1  HIT:          1  MISS:          0
cpu0_L1I LOAD      ACCESS:          1  HIT:          1  MISS:          0
cpu0_L1I RFO       ACCESS:          0  HIT:          0  MISS:          0
cpu0_L1I PREFETCH  ACCESS:          0  HIT:          0  MISS:          0
cpu0_L1I WRITEBACK ACCESS:          0  HIT:          0  MISS:          0
cpu0_STLB TOTAL     ACCESS:      12987  HIT:      12970  MISS:         17
cpu0_STLB LOAD      ACCESS:      12843  HIT:      12826  MISS:         17
cpu0_STLB RFO       ACCESS:        144  HIT:        144  MISS:          0
cpu0_STLB PREFETCH  ACCESS:          0  HIT:          0  MISS:          0
cpu0_STLB WRITEBACK ACCESS:          0  HIT:          0  MISS:          0
cpu0_L1D TOTAL     ACCESS:     743205  HIT:     494019  MISS:     249186
cpu0_L1D LOAD      ACCESS:     741978  HIT:     492975  MISS:     249003
cpu0_L1D RFO       ACCESS:       1210  HIT:       1044  MISS:        166
cpu0_L1D PREFETCH  ACCESS:          0  HIT:          0  MISS:          0
cpu0_L1D WRITEBACK ACCESS:          0  HIT:          0  MISS:          0
cpu0_L2C TOTAL     ACCESS:     249586  HIT:      28754  MISS:     220832
cpu0_L2C LOAD      ACCESS:     249003  HIT:      28271  MISS:     220732
cpu0_L2C RFO       ACCESS:        166  HIT:         78  MISS:         88
cpu0_L2C PREFETCH  ACCESS:          0  HIT:          0  MISS:          0
cpu0_L2C WRITEBACK ACCESS:        400  HIT:        400  MISS:          0
LLC TOTAL     ACCESS:     221147  HIT:     220053  MISS:       1094
LLC LOAD      ACCESS:     220732  HIT:     219648  MISS:       1084
LLC RFO       ACCESS:         88  HIT:         78  MISS:         10
LLC PREFETCH  ACCESS:          0  HIT:          0  MISS:          0
LLC WRITEBACK ACCESS:        315  HIT:        315  MISS:          0
Heartbeat CPU 0 instructions: 80000001 cycles: 24908268 heartbeat IPC: 2.41001 cumulative IPC: 2.41776 (Simulation time: 0 hr 36 min 12 sec) 

Region of Interest Statistics
cpu0_DTLB TOTAL     ACCESS:    2581389  HIT:    2567468  MISS:      13921
cpu0_DTLB LOAD      ACCESS:    2580631  HIT:    2566866  MISS:      13765
cpu0_DTLB RFO       ACCESS:        758  HIT:        602  MISS:        156
cpu0_DTLB PREFETCH  ACCESS:          0  HIT:          0  MISS:          0
cpu0_DTLB WRITEBACK ACCESS:          0  HIT:          0  MISS:          0
cpu0_ITLB TOTAL     ACCESS:     669913  HIT:     669913  MISS:          0
cpu0_ITLB LOAD      ACCESS:     669913  HIT:     669913  MISS:          0
cpu0_ITLB RFO       ACCESS:          0  HIT:          0  MISS:          0
cpu0_ITLB PREFETCH  ACCESS:          0  HIT:          0  MISS:          0
cpu0_ITLB WRITEBACK ACCESS:          0  HIT:          0  MISS:          0
cpu0_L1I TOTAL     ACCESS:          2  HIT:          2  MISS:          0
cpu0_L1I LOAD      ACCESS:          2  HIT:          2  MISS:          0
cpu0_L1I RFO       ACCESS:          0  HIT:          0  MISS:          0
cpu0_L1I PREFETCH  ACCESS:          0  HIT:          0  MISS:          0
cpu0_L1I WRITEBACK ACCESS:          0  HIT:          0  MISS:          0
cpu0_STLB TOTAL     ACCESS:      13921  HIT:      13904  MISS:         17
cpu0_STLB LOAD      ACCESS:      13765  HIT:      13748  MISS:         17
cpu0_STLB RFO       ACCESS:        156  HIT:        156  MISS:          0
cpu0_STLB PREFETCH  ACCESS:          0  HIT:          0  MISS:          0
cpu0_STLB WRITEBACK ACCESS:          0  HIT:          0  MISS:          0
cpu0_L1D TOTAL     ACCESS:     796207  HIT:     529214  MISS:     266993
cpu0_L1D LOAD      ACCESS:     794878  HIT:     528080  MISS:     266798
cpu0_L1D RFO       ACCESS:       1312  HIT:       1134  MISS:        178
cpu0_L1D PREFETCH  ACCESS:          0  HIT:          0  MISS:          0
cpu0_L1D WRITEBACK ACCESS:          0  HIT:          0  MISS:          0
cpu0_L2C TOTAL     ACCESS:     267423  HIT:      30821  MISS:     236602
cpu0_L2C LOAD      ACCESS:     266798  HIT:      30302  MISS:     236496
cpu0_L2C RFO       ACCESS:        178  HIT:         84  MISS:         94
cpu0_L2C PREFETCH  ACCESS:          0  HIT:          0  MISS:          0
cpu0_L2C WRITEBACK ACCESS:        430  HIT:        430  MISS:          0
LLC TOTAL     ACCESS:     236938  HIT:     235766  MISS:       1172
LLC LOAD      ACCESS:     236496  HIT:     235334  MISS:       1162
LLC RFO       ACCESS:         94  HIT:         84  MISS:         10
LLC PREFETCH  ACCESS:          0  HIT:          0  MISS:          0
LLC WRITEBACK ACCESS:        336  HIT:        336  MISS:          0
Heartbeat CPU 0 instructions: 82000003 cycles: 25733162 heartbeat IPC: 2.42456 cumulative IPC: 2.41818 (Simulation time: 0 hr 37 min 15 sec) 

Region of Interest Statistics
cpu0_DTLB TOTAL     ACCESS:    2753487  HIT:    2738635  MISS:      14852
cpu0_DTLB LOAD      ACCESS:    2752678  HIT:    2737991  MISS:      14687
cpu0_DTLB RFO       ACCESS:        809  HIT:        644  MISS:        165
cpu0_DTLB PREFETCH  ACCESS:          0  HIT:          0  MISS:          0
cpu0_DTLB WRITEBACK ACCESS:          0  HIT:          0  MISS:          0
cpu0_ITLB TOTAL     ACCESS:     714935  HIT:     714935  MISS:          0
cpu0_ITLB LOAD      ACCESS:     714935  HIT:     714935  MISS:          0
cpu0_ITLB RFO       ACCESS:          0  HIT:          0  MISS:          0
cpu0_ITLB PREFETCH  ACCESS:          0  HIT:          0  MISS:          0
cpu0_ITLB WRITEBACK ACCESS:          0  HIT:          0  MISS:          0
cpu0_L1I TOTAL     ACCESS:          2  HIT:          2  MISS:          0
cpu0_L1I LOAD      ACCESS:          2  HIT:          2  MISS:          0
cpu0_L1I RFO       ACCESS:          0  HIT:          0  MISS:          0
cpu0_L1I PREFETCH  ACCESS:          0  HIT:          0  MISS:          0
cpu0_L1I WRITEBACK ACCESS:          0  HIT:          0  MISS:          0
cpu0_STLB TOTAL     ACCESS:      14852  HIT:      14834  MISS:         18
cpu0_STLB LOAD      ACCESS:      14687  HIT:      14669  MISS:         18
cpu0_STLB RFO       ACCESS:        165  HIT:        165  MISS:          0
cpu0_STLB PREFETCH  ACCESS:          0  HIT:          0  MISS:          0
cpu0_STLB WRITEBACK ACCESS:          0  HIT:          0  MISS:          0
cpu0_L1D TOTAL     ACCESS:     849826  HIT:     565027  MISS:     284799
cpu0_L1D LOAD      ACCESS:     848394  HIT:     563804  MISS:     284590
cpu0_L1D RFO       ACCESS:       1414  HIT:       1223  MISS:        191
cpu0_L1D PREFETCH  ACCESS:          0  HIT:          0  MISS:          0
cpu0_L1D WRITEBACK ACCESS:          0  HIT:          0  MISS:          0
cpu0_L2C TOTAL     ACCESS:     285255  HIT:      32931  MISS:     252324
cpu0_L2C LOAD      ACCESS:     284590  HIT:      32380  MISS:     252210
cpu0_L2C RFO       ACCESS:        191  HIT:         90  MISS:        101
cpu0_L2C PREFETCH  ACCESS:          0  HIT:          0  MISS:          0
cpu0_L2C WRITEBACK ACCESS:        456  HIT:        456  MISS:          0
LLC TOTAL     ACCESS:     252684  HIT:     251433  MISS:       1251
LLC LOAD      ACCESS:     252210  HIT:     250970  MISS:       1240
LLC RFO       ACCESS:        101  HIT:         90  MISS:         11
LLC PREFETCH  ACCESS:          0  HIT:          0  MISS:          0
LLC WRITEBACK ACCESS:        360  HIT:        360  MISS:          0
Heartbeat CPU 0 instructions: 84000004 cycles: 26564654 heartbeat IPC: 2.40532 cumulative IPC: 2.41742 (Simulation time: 0 hr 38 min 16 sec) 

Region of Interest Statistics
cpu0_DTLB TOTAL     ACCESS:    2926124  HIT:    2910349  MISS:      15775
cpu0_DTLB LOAD      ACCESS:    2925272  HIT:    2909670  MISS:      15602
cpu0_DTLB RFO       ACCESS:        852  HIT:        679  MISS:        173
cpu0_DTLB PREFETCH  ACCESS:          0  HIT:          0  MISS:          0
cpu0_DTLB WRITEBACK ACCESS:          0  HIT:          0  MISS:          0
cpu0_ITLB TOTAL     ACCESS:     759546  HIT:     759546  MISS:          0
cpu0_ITLB LOAD      ACCESS:     759546  HIT:     759546  MISS:          0
cpu0_ITLB RFO       ACCESS:          0  HIT:          0  MISS:          0
cpu0_ITLB PREFETCH  ACCESS:          0  HIT:          0  MISS:          0
cpu0_ITLB WRITEBACK ACCESS:          0  HIT:          0  MISS:          0
cpu0_L1I TOTAL     ACCESS:          2  HIT:          2  MISS:          0
cpu0_L1I LOAD      ACCESS:          2  HIT:          2  MISS:          0
cpu0_L1I RFO       ACCESS:          0  HIT:          0  MISS:          0
cpu0_L1I PREFETCH  ACCESS:          0  HIT:          0  MISS:          0
cpu0_L1I WRITEBACK ACCESS:          0  HIT:          0  MISS:          0
cpu0_STLB TOTAL     ACCESS:      15775  HIT:      15755  MISS:         20
cpu0_STLB LOAD      ACCESS:      15602  HIT:      15582  MISS:         20
cpu0_STLB RFO       ACCESS:        173  HIT:        173  MISS:          0
cpu0_STLB PREFETCH  ACCESS:          0  HIT:          0  MISS:          0
cpu0_STLB WRITEBACK ACCESS:          0  HIT:          0  MISS:          0
cpu0_L1D TOTAL     ACCESS:     902270  HIT:     599673  MISS:     302597
cpu0_L1D LOAD      ACCESS:     900751  HIT:     598376  MISS:     302375
cpu0_L1D RFO       ACCESS:       1499  HIT:       1297  MISS:        202
cpu0_L1D PREFETCH  ACCESS:          0  HIT:          0  MISS:          0
cpu0_L1D WRITEBACK ACCESS:          0  HIT:          0  MISS:          0
cpu0_L2C TOTAL     ACCESS:     303084  HIT:      35027  MISS:     268057
cpu0_L2C LOAD      ACCESS:     302375  HIT:      34439  MISS:     267936
cpu0_L2C RFO       ACCESS:        202  HIT:         95  MISS:        107
cpu0_L2C PREFETCH  ACCESS:          0  HIT:          0  MISS:          0
cpu0_L2C WRITEBACK ACCESS:        487  HIT:        487  MISS:          0
LLC TOTAL     ACCESS:     268442  HIT:     267114  MISS:       1328
LLC LOAD      ACCESS:     267936  HIT:     266620  MISS:       1316
LLC RFO       ACCESS:        107  HIT:         95  MISS:         12
LLC PREFETCH  ACCESS:          0  HIT:          0  MISS:          0
LLC WRITEBACK ACCESS:        385  HIT:        385  MISS:          0
Heartbeat CPU 0 instructions: 86000000 cycles: 27391729 heartbeat IPC: 2.41816 cumulative IPC: 2.41746 (Simulation time: 0 hr 39 min 20 sec) 

Region of Interest Statistics
cpu0_DTLB TOTAL     ACCESS:    3097928  HIT:    3081222  MISS:      16706
cpu0_DTLB LOAD      ACCESS:    3097024  HIT:    3080501  MISS:      16523
cpu0_DTLB RFO       ACCESS:        904  HIT:        721  MISS:        183
cpu0_DTLB PREFETCH  ACCESS:          0  HIT:          0  MISS:          0
cpu0_DTLB WRITEBACK ACCESS:          0  HIT:          0  MISS:          0
cpu0_ITLB TOTAL     ACCESS:     803972  HIT:     803972  MISS:          0
cpu0_ITLB LOAD      ACCESS:     803972  HIT:     803972  MISS:          0
cpu0_ITLB RFO       ACCESS:          0  HIT:          0  MISS:          0
cpu0_ITLB PREFETCH  ACCESS:          0  HIT:          0  MISS:          0
cpu0_ITLB WRITEBACK ACCESS:          0  HIT:          0  MISS:          0
cpu0_L1I TOTAL     ACCESS:          2  HIT:          2  MISS:          0
cpu0_L1I LOAD      ACCESS:          2  HIT:          2  MISS:          0
cpu0_L1I RFO       ACCESS:          0  HIT:          0  MISS:          0
cpu0_L1I PREFETCH  ACCESS:          0  HIT:          0  MISS:          0
cpu0_L1I WRITEBACK ACCESS:          0  HIT:          0  MISS:          0
cpu0_STLB TOTAL     ACCESS:      16706  HIT:      16684  MISS:         22
cpu0_STLB LOAD      ACCESS:      16523  HIT:      16501  MISS:         22
cpu0_STLB RFO       ACCESS:        183  HIT:        183  MISS:          0
cpu0_STLB PREFETCH  ACCESS:          0  HIT:          0  MISS:          0
cpu0_STLB WRITEBACK ACCESS:          0  HIT:          0  MISS:          0
cpu0_L1D TOTAL     ACCESS:     955784  HIT:     635379  MISS:     320405
cpu0_L1D LOAD      ACCESS:     954161  HIT:     633993  MISS:     320168
cpu0_L1D RFO       ACCESS:       1601  HIT:       1386  MISS:        215
cpu0_L1D PREFETCH  ACCESS:          0  HIT:          0  MISS:          0
cpu0_L1D WRITEBACK ACCESS:          0  HIT:          0  MISS:          0
cpu0_L2C TOTAL     ACCESS:     320923  HIT:      37143  MISS:     283780
cpu0_L2C LOAD      ACCESS:     320168  HIT:      36517  MISS:     283651
cpu0_L2C RFO       ACCESS:        215  HIT:        101  MISS:        114
cpu0_L2C PREFETCH  ACCESS:          0  HIT:          0  MISS:          0
cpu0_L2C WRITEBACK ACCESS:        518  HIT:        518  MISS:          0
LLC TOTAL     ACCESS:     284186  HIT:     282779  MISS:       1407
LLC LOAD      ACCESS:     283651  HIT:     282257  MISS:       1394
LLC RFO       ACCESS:        114  HIT:        101  MISS:         13
LLC PREFETCH  ACCESS:          0  HIT:          0  MISS:          0
LLC WRITEBACK ACCESS:        406  HIT:        406  MISS:          0
Heartbeat CPU 0 instructions: 88000002 cycles: 28219542 heartbeat IPC: 2.41601 cumulative IPC: 2.41738 (Simulation time: 0 hr 40 min 22 sec) 

Region of Interest Statistics
cpu0_DTLB TOTAL     ACCESS:    3269605  HIT:    3251974  MISS:      17631
cpu0_DTLB LOAD      ACCESS:    3268659  HIT:    3251219  MISS:      17440
cpu0_DTLB RFO       ACCESS:        946  HIT:        755  MISS:        191
cpu0_DTLB PREFETCH  ACCESS:          0  HIT:          0  MISS:          0
cpu0_DTLB WRITEBACK ACCESS:          0  HIT:          0  MISS:          0
cpu0_ITLB TOTAL     ACCESS:     849002  HIT:     849002  MISS:          0
cpu0_ITLB LOAD      ACCESS:     849002  HIT:     849002  MISS:          0
cpu0_ITLB RFO       ACCESS:          0  HIT:          0  MISS:          0
cpu0_ITLB PREFETCH  ACCESS:          0  HIT:          0  MISS:          0
cpu0_ITLB WRITEBACK ACCESS:          0  HIT:          0  MISS:          0
cpu0_L1I TOTAL     ACCESS:          2  HIT:          2  MISS:          0
cpu0_L1I LOAD      ACCESS:          2  HIT:          2  MISS:          0
cpu0_L1I RFO       ACCESS:          0  HIT:          0  MISS:          0
cpu0_L1I PREFETCH  ACCESS:          0  HIT:          0  MISS:          0
cpu0_L1I WRITEBACK ACCESS:          0  HIT:          0  MISS:          0
cpu0_STLB TOTAL     ACCESS:      17631  HIT:      17607  MISS:         24
cpu0_STLB LOAD      ACCESS:      17440  HIT:      17416  MISS:         24
cpu0_STLB RFO       ACCESS:        191  HIT:        191  MISS:          0
cpu0_STLB PREFETCH  ACCESS:          0  HIT:          0  MISS:          0
cpu0_STLB WRITEBACK ACCESS:          0  HIT:          0  MISS:          0
cpu0_L1D TOTAL     ACCESS:    1008860  HIT:     670660  MISS:     338200
cpu0_L1D LOAD      ACCESS:    1007150  HIT:     669199  MISS:     337951
cpu0_L1D RFO       ACCESS:       1686  HIT:       1461  MISS:        225
cpu0_L1D PREFETCH  ACCESS:          0  HIT:          0  MISS:          0
cpu0_L1D WRITEBACK ACCESS:          0  HIT:          0  MISS:          0
cpu0_L2C TOTAL     ACCESS:     338743  HIT:      39286  MISS:     299457
cpu0_L2C LOAD      ACCESS:     337951  HIT:      38629  MISS:     299322
cpu0_L2C RFO       ACCESS:        225  HIT:        106  MISS:        119
cpu0_L2C PREFETCH  ACCESS:          0  HIT:          0  MISS:          0
cpu0_L2C WRITEBACK ACCESS:        543  HIT:        543  MISS:          0
LLC TOTAL     ACCESS:     299887  HIT:     298402  MISS:       1485
LLC LOAD      ACCESS:     299322  HIT:     297850  MISS:       1472
LLC RFO       ACCESS:        119  HIT:        106  MISS:         13
LLC PREFETCH  ACCESS:          0  HIT:          0  MISS:          0
LLC WRITEBACK ACCESS:        430  HIT:        430  MISS:          0
Heartbeat CPU 0 instructions: 90000002 cycles: 29049879 heartbeat IPC: 2.40866 cumulative IPC: 2.41695 (Simulation time: 0 hr 41 min 24 sec) 

Region of Interest Statistics
cpu0_DTLB TOTAL     ACCESS:    3443019  HIT:    3424453  MISS:      18566
cpu0_DTLB LOAD      ACCESS:    3442022  HIT:    3423657  MISS:      18365
cpu0_DTLB RFO       ACCESS:        997  HIT:        796  MISS:        201
cpu0_DTLB PREFETCH  ACCESS:          0  HIT:          0  MISS:          0
cpu0_DTLB WRITEBACK ACCESS:          0  HIT:          0  MISS:          0
cpu0_ITLB TOTAL     ACCESS:     893682  HIT:     893682  MISS:          0
cpu0_ITLB LOAD      ACCESS:     893682  HIT:     893682  MISS:          0
cpu0_ITLB RFO       ACCESS:          0  HIT:          0  MISS:          0
cpu0_ITLB PREFETCH  ACCESS:          0  HIT:          0  MISS:          0
cpu0_ITLB WRITEBACK ACCESS:          0  HIT:          0  MISS:          0
cpu0_L1I TOTAL     ACCESS:          2  HIT:          2  MISS:          0
cpu0_L1I LOAD      ACCESS:          2  HIT:          2  MISS:          0
cpu0_L1I RFO       ACCESS:          0  HIT:          0  MISS:          0
cpu0_L1I PREFETCH  ACCESS:          0  HIT:          0  MISS:          0
cpu0_L1I WRITEBACK ACCESS:          0  HIT:          0  MISS:          0
cpu0_STLB TOTAL     ACCESS:      18566  HIT:      18542  MISS:         24
cpu0_STLB LOAD      ACCESS:      18365  HIT:      18341  MISS:         24
cpu0_STLB RFO       ACCESS:        201  HIT:        201  MISS:          0
cpu0_STLB PREFETCH  ACCESS:          0  HIT:          0  MISS:          0
cpu0_STLB WRITEBACK ACCESS:          0  HIT:          0  MISS:          0
cpu0_L1D TOTAL     ACCESS:    1061602  HIT:     705594  MISS:     356008
cpu0_L1D LOAD      ACCESS:    1059790  HIT:     704044  MISS:     355746
cpu0_L1D RFO       ACCESS:       1788  HIT:       1550  MISS:        238
cpu0_L1D PREFETCH  ACCESS:          0  HIT:          0  MISS:          0
cpu0_L1D WRITEBACK ACCESS:          0  HIT:          0  MISS:          0
cpu0_L2C TOTAL     ACCESS:     356582  HIT:      41433  MISS:     315149
cpu0_L2C LOAD      ACCESS:     355746  HIT:      40739  MISS:     315007
cpu0_L2C RFO       ACCESS:        238  HIT:        112  MISS:        126
cpu0_L2C PREFETCH  ACCESS:          0  HIT:          0  MISS:          0
cpu0_L2C WRITEBACK ACCESS:        574  HIT:        574  MISS:          0
LLC TOTAL     ACCESS:     315599  HIT:     314037  MISS:       1562
LLC LOAD      ACCESS:     315007  HIT:     313459  MISS:       1548
LLC RFO       ACCESS:        126  HIT:        112  MISS:         14
LLC PREFETCH  ACCESS:          0  HIT:          0  MISS:          0
LLC WRITEBACK ACCESS:        450  HIT:        450  MISS:          0
Heartbeat CPU 0 instructions: 92000001 cycles: 29872397 heartbeat IPC: 2.43156 cumulative IPC: 2.41764 (Simulation time: 0 hr 42 min 26 sec) 

Region of Interest Statistics
cpu0_DTLB TOTAL     ACCESS:    3614421  HIT:    3594928  MISS:      19493
cpu0_DTLB LOAD      ACCESS:    3613381  HIT:    3594097  MISS:      19284
cpu0_DTLB RFO       ACCESS:       1040  HIT:        831  MISS:        209
cpu0_DTLB PREFETCH  ACCESS:          0  HIT:          0  MISS:          0
cpu0_DTLB WRITEBACK ACCESS:          0  HIT:          0  MISS:          0
cpu0_ITLB TOTAL     ACCESS:     938184  HIT:     938184  MISS:          0
cpu0_ITLB LOAD      ACCESS:     938184  HIT:     938184  MISS:          0
cpu0_ITLB RFO       ACCESS:          0  HIT:          0  MISS:          0
cpu0_ITLB PREFETCH  ACCESS:          0  HIT:          0  MISS:          0
cpu0_ITLB WRITEBACK ACCESS:          0  HIT:          0  MISS:          0
cpu0_L1I TOTAL     ACCESS:          2  HIT:          2  MISS:          0
cpu0_L1I LOAD      ACCESS:          2  HIT:          2  MISS:          0
cpu0_L1I RFO       ACCESS:          0  HIT:          0  MISS:          0
cpu0_L1I PREFETCH  ACCESS:          0  HIT:          0  MISS:          0
cpu0_L1I WRITEBACK ACCESS:          0  HIT:          0  MISS:          0
cpu0_STLB TOTAL     ACCESS:      19493  HIT:      19468  MISS:         25
cpu0_STLB LOAD      ACCESS:      19284  HIT:      19259  MISS:         25
cpu0_STLB RFO       ACCESS:        209  HIT:        209  MISS:          0
cpu0_STLB PREFETCH  ACCESS:          0  HIT:          0  MISS:          0
cpu0_STLB WRITEBACK ACCESS:          0  HIT:          0  MISS:          0
cpu0_L1D TOTAL     ACCESS:    1115179  HIT:     741374  MISS:     373805
cpu0_L1D LOAD      ACCESS:    1113281  HIT:     739750  MISS:     373531
cpu0_L1D RFO       ACCESS:       1873  HIT:       1624  MISS:        249
cpu0_L1D PREFETCH  ACCESS:          0  HIT:          0  MISS:          0
cpu0_L1D WRITEBACK ACCESS:          0  HIT:          0  MISS:          0
cpu0_L2C TOTAL     ACCESS:     374405  HIT:      43556  MISS:     330849
cpu0_L2C LOAD      ACCESS:     373531  HIT:      42831  MISS:     330700
cpu0_L2C RFO       ACCESS:        249  HIT:        117  MISS:        132
cpu0_L2C PREFETCH  ACCESS:          0  HIT:          0  MISS:          0
cpu0_L2C WRITEBACK ACCESS:        600  HIT:        600  MISS:          0
LLC TOTAL     ACCESS:     331324  HIT:     329683  MISS:       1641
LLC LOAD      ACCESS:     330700  HIT:     329074  MISS:       1626
LLC RFO       ACCESS:        132  HIT:        117  MISS:         15
LLC PREFETCH  ACCESS:          0  HIT:          0  MISS:          0
LLC WRITEBACK ACCESS:        475  HIT:        475  MISS:          0
Heartbeat CPU 0 instructions: 94000003 cycles: 30700791 heartbeat IPC: 2.41431 cumulative IPC: 2.41749 (Simulation time: 0 hr 43 min 26 sec) 

Region of Interest Statistics
cpu0_DTLB TOTAL     ACCESS:    3786114  HIT:    3765684  MISS:      20430
cpu0_DTLB LOAD      ACCESS:    3785023  HIT:    3764812  MISS:      20211
cpu0_DTLB RFO       ACCESS:       1091  HIT:        872  MISS:        219
cpu0_DTLB PREFETCH  ACCESS:          0  HIT:          0  MISS:          0
cpu0_DTLB WRITEBACK ACCESS:          0  HIT:          0  MISS:          0
cpu0_ITLB TOTAL     ACCESS:     983160  HIT:     983160  MISS:          0
cpu0_ITLB LOAD      ACCESS:     983160  HIT:     983160  MISS:          0
cpu0_ITLB RFO       ACCESS:          0  HIT:          0  MISS:          0
cpu0_ITLB PREFETCH  ACCESS:          0  HIT:          0  MISS:          0
cpu0_ITLB WRITEBACK ACCESS:          0  HIT:          0  MISS:          0
cpu0_L1I TOTAL     ACCESS:          2  HIT:          2  MISS:          0
cpu0_L1I LOAD      ACCESS:          2  HIT:          2  MISS:          0
cpu0_L1I RFO       ACCESS:          0  HIT:          0  MISS:          0
cpu0_L1I PREFETCH  ACCESS:          0  HIT:          0  MISS:          0
cpu0_L1I WRITEBACK ACCESS:          0  HIT:          0  MISS:          0
cpu0_STLB TOTAL     ACCESS:      20430  HIT:      20404  MISS:         26
cpu0_STLB LOAD      ACCESS:      20211  HIT:      20185  MISS:         26
cpu0_STLB RFO       ACCESS:        219  HIT:        219  MISS:          0
cpu0_STLB PREFETCH  ACCESS:          0  HIT:          0  MISS:          0
cpu0_STLB WRITEBACK ACCESS:          0  HIT:          0  MISS:          0
cpu0_L1D TOTAL     ACCESS:    1168125  HIT:     776513  MISS:     391612
cpu0_L1D LOAD      ACCESS:    1166124  HIT:     774799  MISS:     391325
cpu0_L1D RFO       ACCESS:       1975  HIT:       1714  MISS:        261
cpu0_L1D PREFETCH  ACCESS:          0  HIT:          0  MISS:          0
cpu0_L1D WRITEBACK ACCESS:          0  HIT:          0  MISS:          0
cpu0_L2C TOTAL     ACCESS:     392242  HIT:      45753  MISS:     346489
cpu0_L2C LOAD      ACCESS:     391325  HIT:      44992  MISS:     346333
cpu0_L2C RFO       ACCESS:        261  HIT:        123  MISS:        138
cpu0_L2C PREFETCH  ACCESS:          0  HIT:          0  MISS:          0
cpu0_L2C WRITEBACK ACCESS:        630  HIT:        630  MISS:          0
LLC TOTAL     ACCESS:     346985  HIT:     345266  MISS:       1719
LLC LOAD      ACCESS:     346333  HIT:     344629  MISS:       1704
LLC RFO       ACCESS:        138  HIT:        123  MISS:         15
LLC PREFETCH  ACCESS:          0  HIT:          0  MISS:          0
LLC WRITEBACK ACCESS:        496  HIT:        496  MISS:          0
Heartbeat CPU 0 instructions: 96000001 cycles: 31528794 heartbeat IPC: 2.41545 cumulative IPC: 2.4174 (Simulation time: 0 hr 44 min 27 sec) 

Region of Interest Statistics
cpu0_DTLB TOTAL     ACCESS:    3959068  HIT:    3937704  MISS:      21364
cpu0_DTLB LOAD      ACCESS:    3957925  HIT:    3936790  MISS:      21135
cpu0_DTLB RFO       ACCESS:       1143  HIT:        914  MISS:        229
cpu0_DTLB PREFETCH  ACCESS:          0  HIT:          0  MISS:          0
cpu0_DTLB WRITEBACK ACCESS:          0  HIT:          0  MISS:          0
cpu0_ITLB TOTAL     ACCESS:    1027797  HIT:    1027797  MISS:          0
cpu0_ITLB LOAD      ACCESS:    1027797  HIT:    1027797  MISS:          0
cpu0_ITLB RFO       ACCESS:          0  HIT:          0  MISS:          0
cpu0_ITLB PREFETCH  ACCESS:          0  HIT:          0  MISS:          0
cpu0_ITLB WRITEBACK ACCESS:          0  HIT:          0  MISS:          0
cpu0_L1I TOTAL     ACCESS:          2  HIT:          2  MISS:          0
cpu0_L1I LOAD      ACCESS:          2  HIT:          2  MISS:          0
cpu0_L1I RFO       ACCESS:          0  HIT:          0  MISS:          0
cpu0_L1I PREFETCH  ACCESS:          0  HIT:          0  MISS:          0
cpu0_L1I WRITEBACK ACCESS:          0  HIT:          0  MISS:          0
cpu0_STLB TOTAL     ACCESS:      21364  HIT:      21337  MISS:         27
cpu0_STLB LOAD      ACCESS:      21135  HIT:      21108  MISS:         27
cpu0_STLB RFO       ACCESS:        229  HIT:        229  MISS:          0
cpu0_STLB PREFETCH  ACCESS:          0  HIT:          0  MISS:          0
cpu0_STLB WRITEBACK ACCESS:          0  HIT:          0  MISS:          0
cpu0_L1D TOTAL     ACCESS:    1221594  HIT:     812175  MISS:     409419
cpu0_L1D LOAD      ACCESS:    1219490  HIT:     810372  MISS:     409118
cpu0_L1D RFO       ACCESS:       2077  HIT:       1803  MISS:        274
cpu0_L1D PREFETCH  ACCESS:          0  HIT:          0  MISS:          0
cpu0_L1D WRITEBACK ACCESS:          0  HIT:          0  MISS:          0
cpu0_L2C TOTAL     ACCESS:     410075  HIT:      47903  MISS:     362172
cpu0_L2C LOAD      ACCESS:     409118  HIT:      47110  MISS:     362008
cpu0_L2C RFO       ACCESS:        274  HIT:        129  MISS:        145
cpu0_L2C PREFETCH  ACCESS:          0  HIT:          0  MISS:          0
cpu0_L2C WRITEBACK ACCESS:        656  HIT:        656  MISS:          0
LLC TOTAL     ACCESS:     362692  HIT:     360895  MISS:       1797
LLC LOAD      ACCESS:     362008  HIT:     360227  MISS:       1781
LLC RFO       ACCESS:        145  HIT:        129  MISS:         16
LLC PREFETCH  ACCESS:          0  HIT:          0  MISS:          0
LLC WRITEBACK ACCESS:        520  HIT:        520  MISS:          0
Heartbeat CPU 0 instructions: 98000004 cycles: 32352134 heartbeat IPC: 2.42913 cumulative IPC: 2.41788 (Simulation time: 0 hr 45 min 30 sec) 

Region of Interest Statistics
cpu0_DTLB TOTAL     ACCESS:    4130499  HIT:    4108212  MISS:      22287
cpu0_DTLB LOAD      ACCESS:    4129313  HIT:    4107263  MISS:      22050
cpu0_DTLB RFO       ACCESS:       1186  HIT:        949  MISS:        237
cpu0_DTLB PREFETCH  ACCESS:          0  HIT:          0  MISS:          0
cpu0_DTLB WRITEBACK ACCESS:          0  HIT:          0  MISS:          0
cpu0_ITLB TOTAL     ACCESS:    1072103  HIT:    1072103  MISS:          0
cpu0_ITLB LOAD      ACCESS:    1072103  HIT:    1072103  MISS:          0
cpu0_ITLB RFO       ACCESS:          0  HIT:          0  MISS:          0
cpu0_ITLB PREFETCH  ACCESS:          0  HIT:          0  MISS:          0
cpu0_ITLB WRITEBACK ACCESS:          0  HIT:          0  MISS:          0
cpu0_L1I TOTAL     ACCESS:          2  HIT:          2  MISS:          0
cpu0_L1I LOAD      ACCESS:          2  HIT:          2  MISS:          0
cpu0_L1I RFO       ACCESS:          0  HIT:          0  MISS:          0
cpu0_L1I PREFETCH  ACCESS:          0  HIT:          0  MISS:          0
cpu0_L1I WRITEBACK ACCESS:          0  HIT:          0  MISS:          0
cpu0_STLB TOTAL     ACCESS:      22287  HIT:      22258  MISS:         29
cpu0_STLB LOAD      ACCESS:      22050  HIT:      22021  MISS:         29
cpu0_STLB RFO       ACCESS:        237  HIT:        237  MISS:          0
cpu0_STLB PREFETCH  ACCESS:          0  HIT:          0  MISS:          0
cpu0_STLB WRITEBACK ACCESS:          0  HIT:          0  MISS:          0
cpu0_L1D TOTAL     ACCESS:    1274669  HIT:     847451  MISS:     427218
cpu0_L1D LOAD      ACCESS:    1272478  HIT:     845574  MISS:     426904
cpu0_L1D RFO       ACCESS:       2162  HIT:       1877  MISS:        285
cpu0_L1D PREFETCH  ACCESS:          0  HIT:          0  MISS:          0
cpu0_L1D WRITEBACK ACCESS:          0  HIT:          0  MISS:          0
cpu0_L2C TOTAL     ACCESS:     427905  HIT:      50089  MISS:     377816
cpu0_L2C LOAD      ACCESS:     426904  HIT:      49259  MISS:     377645
cpu0_L2C RFO       ACCESS:        285  HIT:        134  MISS:        151
cpu0_L2C PREFETCH  ACCESS:          0  HIT:          0  MISS:          0
cpu0_L2C WRITEBACK ACCESS:        687  HIT:        687  MISS:          0
LLC TOTAL     ACCESS:     378361  HIT:     376486  MISS:       1875
LLC LOAD      ACCESS:     377645  HIT:     375787  MISS:       1858
LLC RFO       ACCESS:        151  HIT:        134  MISS:         17
LLC PREFETCH  ACCESS:          0  HIT:          0  MISS:          0
LLC WRITEBACK ACCESS:        545  HIT:        545  MISS:          0
Heartbeat CPU 0 instructions: 100000000 cycles: 33179733 heartbeat IPC: 2.41662 cumulative IPC: 2.41783 (Simulation time: 0 hr 46 min 31 sec) 

Region of Interest Statistics
cpu0_DTLB TOTAL     ACCESS:    4302863  HIT:    4279645  MISS:      23218
cpu0_DTLB LOAD      ACCESS:    4301624  HIT:    4278654  MISS:      22970
cpu0_DTLB RFO       ACCESS:       1239  HIT:        991  MISS:        248
cpu0_DTLB PREFETCH  ACCESS:          0  HIT:          0  MISS:          0
cpu0_DTLB WRITEBACK ACCESS:          0  HIT:          0  MISS:          0
cpu0_ITLB TOTAL     ACCESS:    1116818  HIT:    1116818  MISS:          0
cpu0_ITLB LOAD      ACCESS:    1116818  HIT:    1116818  MISS:          0
cpu0_ITLB RFO       ACCESS:          0  HIT:          0  MISS:          0
cpu0_ITLB PREFETCH  ACCESS:          0  HIT:          0  MISS:          0
cpu0_ITLB WRITEBACK ACCESS:          0  HIT:          0  MISS:          0
cpu0_L1I TOTAL     ACCESS:          2  HIT:          2  MISS:          0
cpu0_L1I LOAD      ACCESS:          2  HIT:          2  MISS:          0
cpu0_L1I RFO       ACCESS:          0  HIT:          0  MISS:          0
cpu0_L1I PREFETCH  ACCESS:          0  HIT:          0  MISS:          0
cpu0_L1I WRITEBACK ACCESS:          0  HIT:          0  MISS:          0
cpu0_STLB TOTAL     ACCESS:      23218  HIT:      23187  MISS:         31
cpu0_STLB LOAD      ACCESS:      22970  HIT:      22939  MISS:         31
cpu0_STLB RFO       ACCESS:        248  HIT:        248  MISS:          0
cpu0_STLB PREFETCH  ACCESS:          0  HIT:          0  MISS:          0
cpu0_STLB WRITEBACK ACCESS:          0  HIT:          0  MISS:          0
cpu0_L1D TOTAL     ACCESS:    1327828  HIT:     882801  MISS:     445027
cpu0_L1D LOAD      ACCESS:    1325533  HIT:     880834  MISS:     444699
cpu0_L1D RFO       ACCESS:       2264  HIT:       1967  MISS:        297
cpu0_L1D PREFETCH  ACCESS:          0  HIT:          0  MISS:          0
cpu0_L1D WRITEBACK ACCESS:          0  HIT:          0  MISS:          0
cpu0_L2C TOTAL     ACCESS:     445744  HIT:      52370  MISS:     393374
cpu0_L2C LOAD      ACCESS:     444699  HIT:      51503  MISS:     393196
cpu0_L2C RFO       ACCESS:        297  HIT:        140  MISS:        157
cpu0_L2C PREFETCH  ACCESS:          0  HIT:          0  MISS:          0
cpu0_L2C WRITEBACK ACCESS:        717  HIT:        717  MISS:          0
LLC TOTAL     ACCESS:     393940  HIT:     391987  MISS:       1953
LLC LOAD      ACCESS:     393196  HIT:     391260  MISS:       1936
LLC RFO       ACCESS:        157  HIT:        140  MISS:         17
LLC PREFETCH  ACCESS:          0  HIT:          0  MISS:          0
LLC WRITEBACK ACCESS:        566  HIT:        566  MISS:          0
Heartbeat CPU 0 instructions: 102000001 cycles: 34003600 heartbeat IPC: 2.42758 cumulative IPC: 2.41821 (Simulation time: 0 hr 47 min 34 sec) 

Region of Interest Statistics
cpu0_DTLB TOTAL     ACCESS:    4475015  HIT:    4450875  MISS:      24140
cpu0_DTLB LOAD      ACCESS:    4473734  HIT:    4449849  MISS:      23885
cpu0_DTLB RFO       ACCESS:       1281  HIT:       1026  MISS:        255
cpu0_DTLB PREFETCH  ACCESS:          0  HIT:          0  MISS:          0
cpu0_DTLB WRITEBACK ACCESS:          0  HIT:          0  MISS:          0
cpu0_ITLB TOTAL     ACCESS:    1161603  HIT:    1161603  MISS:          0
cpu0_ITLB LOAD      ACCESS:    1161603  HIT:    1161603  MISS:          0
cpu0_ITLB RFO       ACCESS:          0  HIT:          0  MISS:          0
cpu0_ITLB PREFETCH  ACCESS:          0  HIT:          0  MISS:          0
cpu0_ITLB WRITEBACK ACCESS:          0  HIT:          0  MISS:          0
cpu0_L1I TOTAL     ACCESS:          2  HIT:          2  MISS:          0
cpu0_L1I LOAD      ACCESS:          2  HIT:          2  MISS:          0
cpu0_L1I RFO       ACCESS:          0  HIT:          0  MISS:          0
cpu0_L1I PREFETCH  ACCESS:          0  HIT:          0  MISS:          0
cpu0_L1I WRITEBACK ACCESS:          0  HIT:          0  MISS:          0
cpu0_STLB TOTAL     ACCESS:      24140  HIT:      24109  MISS:         31
cpu0_STLB LOAD      ACCESS:      23885  HIT:      23854  MISS:         31
cpu0_STLB RFO       ACCESS:        255  HIT:        255  MISS:          0
cpu0_STLB PREFETCH  ACCESS:          0  HIT:          0  MISS:          0
cpu0_STLB WRITEBACK ACCESS:          0  HIT:          0  MISS:          0
cpu0_L1D TOTAL     ACCESS:    1381538  HIT:     918718  MISS:     462820
cpu0_L1D LOAD      ACCESS:    1379158  HIT:     916677  MISS:     462481
cpu0_L1D RFO       ACCESS:       2349  HIT:       2041  MISS:        308
cpu0_L1D PREFETCH  ACCESS:          0  HIT:          0  MISS:          0
cpu0_L1D WRITEBACK ACCESS:          0  HIT:          0  MISS:          0
cpu0_L2C TOTAL     ACCESS:     463563  HIT:      54639  MISS:     408924
cpu0_L2C LOAD      ACCESS:     462481  HIT:      53741  MISS:     408740
cpu0_L2C RFO       ACCESS:        308  HIT:        145  MISS:        163
cpu0_L2C PREFETCH  ACCESS:          0  HIT:          0  MISS:          0
cpu0_L2C WRITEBACK ACCESS:        743  HIT:        743  MISS:          0
LLC TOTAL     ACCESS:     409514  HIT:     407483  MISS:       2031
LLC LOAD      ACCESS:     408740  HIT:     406727  MISS:       2013
LLC RFO       ACCESS:        163  HIT:        145  MISS:         18
LLC PREFETCH  ACCESS:          0  HIT:          0  MISS:          0
LLC WRITEBACK ACCESS:        590  HIT:        590  MISS:          0
Heartbeat CPU 0 instructions: 104000002 cycles: 34831509 heartbeat IPC: 2.41573 cumulative IPC: 2.41811 (Simulation time: 0 hr 48 min 36 sec) 

Region of Interest Statistics
cpu0_DTLB TOTAL     ACCESS:    4647231  HIT:    4622155  MISS:      25076
cpu0_DTLB LOAD      ACCESS:    4645898  HIT:    4621089  MISS:      24809
cpu0_DTLB RFO       ACCESS:       1333  HIT:       1066  MISS:        267
cpu0_DTLB PREFETCH  ACCESS:          0  HIT:          0  MISS:          0
cpu0_DTLB WRITEBACK ACCESS:          0  HIT:          0  MISS:          0
cpu0_ITLB TOTAL     ACCESS:    1206044  HIT:    1206044  MISS:          0
cpu0_ITLB LOAD      ACCESS:    1206044  HIT:    1206044  MISS:          0
cpu0_ITLB RFO       ACCESS:          0  HIT:          0  MISS:          0
cpu0_ITLB PREFETCH  ACCESS:          0  HIT:          0  MISS:          0
cpu0_ITLB WRITEBACK ACCESS:          0  HIT:          0  MISS:          0
cpu0_L1I TOTAL     ACCESS:          2  HIT:          2  MISS:          0
cpu0_L1I LOAD      ACCESS:          2  HIT:          2  MISS:          0
cpu0_L1I RFO       ACCESS:          0  HIT:          0  MISS:          0
cpu0_L1I PREFETCH  ACCESS:          0  HIT:          0  MISS:          0
cpu0_L1I WRITEBACK ACCESS:          0  HIT:          0  MISS:          0
cpu0_STLB TOTAL     ACCESS:      25076  HIT:      25043  MISS:         33
cpu0_STLB LOAD      ACCESS:      24809  HIT:      24776  MISS:         33
cpu0_STLB RFO       ACCESS:        267  HIT:        267  MISS:          0
cpu0_STLB PREFETCH  ACCESS:          0  HIT:          0  MISS:          0
cpu0_STLB WRITEBACK ACCESS:          0  HIT:          0  MISS:          0
cpu0_L1D TOTAL     ACCESS:    1434322  HIT:     953692  MISS:     480630
cpu0_L1D LOAD      ACCESS:    1431838  HIT:     951562  MISS:     480276
cpu0_L1D RFO       ACCESS:       2451  HIT:       2130  MISS:        321
cpu0_L1D PREFETCH  ACCESS:          0  HIT:          0  MISS:          0
cpu0_L1D WRITEBACK ACCESS:          0  HIT:          0  MISS:          0
cpu0_L2C TOTAL     ACCESS:     481404  HIT:      56886  MISS:     424518
cpu0_L2C LOAD      ACCESS:     480276  HIT:      55950  MISS:     424326
cpu0_L2C RFO       ACCESS:        321  HIT:        151  MISS:        170
cpu0_L2C PREFETCH  ACCESS:          0  HIT:          0  MISS:          0
cpu0_L2C WRITEBACK ACCESS:        774  HIT:        774  MISS:          0
LLC TOTAL     ACCESS:     425130  HIT:     423020  MISS:       2110
LLC LOAD      ACCESS:     424326  HIT:     422235  MISS:       2091
LLC RFO       ACCESS:        170  HIT:        151  MISS:         19
LLC PREFETCH  ACCESS:          0  HIT:          0  MISS:          0
LLC WRITEBACK ACCESS:        612  HIT:        612  MISS:          0
Heartbeat CPU 0 instructions: 106000002 cycles: 35658031 heartbeat IPC: 2.41978 cumulative IPC: 2.41817 (Simulation time: 0 hr 49 min 37 sec) 

Region of Interest Statistics
cpu0_DTLB TOTAL     ACCESS:    4819441  HIT:    4793431  MISS:      26010
cpu0_DTLB LOAD      ACCESS:    4818056  HIT:    4792323  MISS:      25733
cpu0_DTLB RFO       ACCESS:       1385  HIT:       1108  MISS:        277
cpu0_DTLB PREFETCH  ACCESS:          0  HIT:          0  MISS:          0
cpu0_DTLB WRITEBACK ACCESS:          0  HIT:          0  MISS:          0
cpu0_ITLB TOTAL     ACCESS:    1250431  HIT:    1250431  MISS:          0
cpu0_ITLB LOAD      ACCESS:    1250431  HIT:    1250431  MISS:          0
cpu0_ITLB RFO       ACCESS:          0  HIT:          0  MISS:          0
cpu0_ITLB PREFETCH  ACCESS:          0  HIT:          0  MISS:          0
cpu0_ITLB WRITEBACK ACCESS:          0  HIT:          0  MISS:          0
cpu0_L1I TOTAL     ACCESS:          2  HIT:          2  MISS:          0
cpu0_L1I LOAD      ACCESS:          2  HIT:          2  MISS:          0
cpu0_L1I RFO       ACCESS:          0  HIT:          0  MISS:          0
cpu0_L1I PREFETCH  ACCESS:          0  HIT:          0  MISS:          0
cpu0_L1I WRITEBACK ACCESS:          0  HIT:          0  MISS:          0
cpu0_STLB TOTAL     ACCESS:      26010  HIT:      25976  MISS:         34
cpu0_STLB LOAD      ACCESS:      25733  HIT:      25699  MISS:         34
cpu0_STLB RFO       ACCESS:        277  HIT:        277  MISS:          0
cpu0_STLB PREFETCH  ACCESS:          0  HIT:          0  MISS:          0
cpu0_STLB WRITEBACK ACCESS:          0  HIT:          0  MISS:          0
cpu0_L1D TOTAL     ACCESS:    1487872  HIT:     989433  MISS:     498439
cpu0_L1D LOAD      ACCESS:    1485285  HIT:     987214  MISS:     498071
cpu0_L1D RFO       ACCESS:       2553  HIT:       2219  MISS:        334
cpu0_L1D PREFETCH  ACCESS:          0  HIT:          0  MISS:          0
cpu0_L1D WRITEBACK ACCESS:          0  HIT:          0  MISS:          0
cpu0_L2C TOTAL     ACCESS:     499238  HIT:      59150  MISS:     440088
cpu0_L2C LOAD      ACCESS:     498071  HIT:      58183  MISS:     439888
cpu0_L2C RFO       ACCESS:        334  HIT:        157  MISS:        177
cpu0_L2C PREFETCH  ACCESS:          0  HIT:          0  MISS:          0
cpu0_L2C WRITEBACK ACCESS:        799  HIT:        799  MISS:          0
LLC TOTAL     ACCESS:     440724  HIT:     438536  MISS:       2188
LLC LOAD      ACCESS:     439888  HIT:     437720  MISS:       2168
LLC RFO       ACCESS:        177  HIT:        157  MISS:         20
LLC PREFETCH  ACCESS:          0  HIT:          0  MISS:          0
LLC WRITEBACK ACCESS:        636  HIT:        636  MISS:          0
Heartbeat CPU 0 instructions: 108000001 cycles: 36482040 heartbeat IPC: 2.42716 cumulative IPC: 2.41848 (Simulation time: 0 hr 50 min 38 sec) 

Region of Interest Statistics
cpu0_DTLB TOTAL     ACCESS:    4991155  HIT:    4964217  MISS:      26938
cpu0_DTLB LOAD      ACCESS:    4989727  HIT:    4963074  MISS:      26653
cpu0_DTLB RFO       ACCESS:       1428  HIT:       1143  MISS:        285
cpu0_DTLB PREFETCH  ACCESS:          0  HIT:          0  MISS:          0
cpu0_DTLB WRITEBACK ACCESS:          0  HIT:          0  MISS:          0
cpu0_ITLB TOTAL     ACCESS:    1295206  HIT:    1295206  MISS:          0
cpu0_ITLB LOAD      ACCESS:    1295206  HIT:    1295206  MISS:          0
cpu0_ITLB RFO       ACCESS:          0  HIT:          0  MISS:          0
cpu0_ITLB PREFETCH  ACCESS:          0  HIT:          0  MISS:          0
cpu0_ITLB WRITEBACK ACCESS:          0  HIT:          0  MISS:          0
cpu0_L1I TOTAL     ACCESS:          2  HIT:          2  MISS:          0
cpu0_L1I LOAD      ACCESS:          2  HIT:          2  MISS:          0
cpu0_L1I RFO       ACCESS:          0  HIT:          0  MISS:          0
cpu0_L1I PREFETCH  ACCESS:          0  HIT:          0  MISS:          0
cpu0_L1I WRITEBACK ACCESS:          0  HIT:          0  MISS:          0
cpu0_STLB TOTAL     ACCESS:      26938  HIT:      26903  MISS:         35
cpu0_STLB LOAD      ACCESS:      26653  HIT:      26618  MISS:         35
cpu0_STLB RFO       ACCESS:        285  HIT:        285  MISS:          0
cpu0_STLB PREFETCH  ACCESS:          0  HIT:          0  MISS:          0
cpu0_STLB WRITEBACK ACCESS:          0  HIT:          0  MISS:          0
cpu0_L1D TOTAL     ACCESS:    1541251  HIT:    1025018  MISS:     516233
cpu0_L1D LOAD      ACCESS:    1538578  HIT:    1022724  MISS:     515854
cpu0_L1D RFO       ACCESS:       2638  HIT:       2294  MISS:        344
cpu0_L1D PREFETCH  ACCESS:          0  HIT:          0  MISS:          0
cpu0_L1D WRITEBACK ACCESS:          0  HIT:          0  MISS:          0
cpu0_L2C TOTAL     ACCESS:     517063  HIT:      61440  MISS:     455623
cpu0_L2C LOAD      ACCESS:     515854  HIT:      60437  MISS:     455417
cpu0_L2C RFO       ACCESS:        344  HIT:        162  MISS:        182
cpu0_L2C PREFETCH  ACCESS:          0  HIT:          0  MISS:          0
cpu0_L2C WRITEBACK ACCESS:        830  HIT:        830  MISS:          0
LLC TOTAL     ACCESS:     456282  HIT:     454016  MISS:       2266
LLC LOAD      ACCESS:     455417  HIT:     453171  MISS:       2246
LLC RFO       ACCESS:        182  HIT:        162  MISS:         20
LLC PREFETCH  ACCESS:          0  HIT:          0  MISS:          0
LLC WRITEBACK ACCESS:        659  HIT:        659  MISS:          0
Heartbeat CPU 0 instructions: 110000001 cycles: 37311937 heartbeat IPC: 2.40994 cumulative IPC: 2.4182 (Simulation time: 0 hr 51 min 40 sec) 

Region of Interest Statistics
cpu0_DTLB TOTAL     ACCESS:    5164582  HIT:    5136708  MISS:      27874
cpu0_DTLB LOAD      ACCESS:    5163098  HIT:    5135519  MISS:      27579
cpu0_DTLB RFO       ACCESS:       1484  HIT:       1189  MISS:        295
cpu0_DTLB PREFETCH  ACCESS:          0  HIT:          0  MISS:          0
cpu0_DTLB WRITEBACK ACCESS:          0  HIT:          0  MISS:          0
cpu0_ITLB TOTAL     ACCESS:    1339771  HIT:    1339771  MISS:          0
cpu0_ITLB LOAD      ACCESS:    1339771  HIT:    1339771  MISS:          0
[...]
cpu0_ITLB WRITEBACK ACCESS:          0  HIT:          0  MISS:          0
cpu0_L1I TOTAL     ACCESS:          2  HIT:          2  MISS:          0
cpu0_L1I LOAD      ACCESS:          2  HIT:          2  MISS:          0
cpu0_L1I RFO       ACCESS:          0  HIT:          0  MISS:          0
cpu0_L1I PREFETCH  ACCESS:          0  HIT:          0  MISS:          0
cpu0_L1I WRITEBACK ACCESS:          0  HIT:          0  MISS:          0
cpu0_STLB TOTAL     ACCESS:     694744  HIT:     693831  MISS:        913
cpu0_STLB LOAD      ACCESS:     687153  HIT:     686248  MISS:        905
cpu0_STLB RFO       ACCESS:       7591  HIT:       7583  MISS:          8
cpu0_STLB PREFETCH  ACCESS:          0  HIT:          0  MISS:          0
cpu0_STLB WRITEBACK ACCESS:          0  HIT:          0  MISS:          0
cpu0_L1D TOTAL     ACCESS:   39604284  HIT:   26271436  MISS:   13332848
cpu0_L1D LOAD      ACCESS:   39539312  HIT:   26216257  MISS:   13323055
cpu0_L1D RFO       ACCESS:      64059  HIT:      55179  MISS:       8880
cpu0_L1D PREFETCH  ACCESS:          0  HIT:          0  MISS:          0
cpu0_L1D WRITEBACK ACCESS:          0  HIT:          0  MISS:          0
cpu0_L2C TOTAL     ACCESS:   13354262  HIT:    1272271  MISS:   12081991
cpu0_L2C LOAD      ACCESS:   13323055  HIT:    1249596  MISS:   12073459
cpu0_L2C RFO       ACCESS:       8880  HIT:       1178  MISS:       7702
cpu0_L2C PREFETCH  ACCESS:          0  HIT:          0  MISS:          0
cpu0_L2C WRITEBACK ACCESS:      21414  HIT:      21210  MISS:        204
LLC TOTAL     ACCESS:   12102018  HIT:   12043510  MISS:      58508
LLC LOAD      ACCESS:   12073459  HIT:   12015473  MISS:      57986
LLC RFO       ACCESS:       7680  HIT:       7158  MISS:        522
LLC PREFETCH  ACCESS:          0  HIT:          0  MISS:          0
LLC WRITEBACK ACCESS:      20253  HIT:      20253  MISS:          0
Heartbeat CPU 0 instructions: 1550000004 cycles: 634818694 heartbeat IPC: 2.39059 cumulative IPC: 2.41034 (Simulation time: 12 hr 29 min 31 sec) 

Region of Interest Statistics
cpu0_DTLB TOTAL     ACCESS:  128881109  HIT:  128185439  MISS:     695670
cpu0_DTLB LOAD      ACCESS:  128844048  HIT:  128155981  MISS:     688067
cpu0_DTLB RFO       ACCESS:      37061  HIT:      29458  MISS:       7603
cpu0_DTLB PREFETCH  ACCESS:          0  HIT:          0  MISS:          0
cpu0_DTLB WRITEBACK ACCESS:          0  HIT:          0  MISS:          0
cpu0_ITLB TOTAL     ACCESS:   33756637  HIT:   33756637  MISS:          0
cpu0_ITLB LOAD      ACCESS:   33756637  HIT:   33756637  MISS:          0
cpu0_ITLB RFO       ACCESS:          0  HIT:          0  MISS:          0
cpu0_ITLB PREFETCH  ACCESS:          0  HIT:          0  MISS:          0
cpu0_ITLB WRITEBACK ACCESS:          0  HIT:          0  MISS:          0
cpu0_L1I TOTAL     ACCESS:          2  HIT:          2  MISS:          0
cpu0_L1I LOAD      ACCESS:          2  HIT:          2  MISS:          0
cpu0_L1I RFO       ACCESS:          0  HIT:          0  MISS:          0
cpu0_L1I PREFETCH  ACCESS:          0  HIT:          0  MISS:          0
cpu0_L1I WRITEBACK ACCESS:          0  HIT:          0  MISS:          0
cpu0_STLB TOTAL     ACCESS:     695670  HIT:     694756  MISS:        914
cpu0_STLB LOAD      ACCESS:     688067  HIT:     687161  MISS:        906
cpu0_STLB RFO       ACCESS:       7603  HIT:       7595  MISS:          8
cpu0_STLB PREFETCH  ACCESS:          0  HIT:          0  MISS:          0
cpu0_STLB WRITEBACK ACCESS:          0  HIT:          0  MISS:          0
cpu0_L1D TOTAL     ACCESS:   39656931  HIT:   26306274  MISS:   13350657
cpu0_L1D LOAD      ACCESS:   39591867  HIT:   26251017  MISS:   13340850
cpu0_L1D RFO       ACCESS:      64150  HIT:      55257  MISS:       8893
cpu0_L1D PREFETCH  ACCESS:          0  HIT:          0  MISS:          0
cpu0_L1D WRITEBACK ACCESS:          0  HIT:          0  MISS:          0
cpu0_L2C TOTAL     ACCESS:   13372102  HIT:    1273267  MISS:   12098835
cpu0_L2C LOAD      ACCESS:   13340850  HIT:    1250561  MISS:   12090289
cpu0_L2C RFO       ACCESS:       8893  HIT:       1178  MISS:       7715
cpu0_L2C PREFETCH  ACCESS:          0  HIT:          0  MISS:          0
cpu0_L2C WRITEBACK ACCESS:      21445  HIT:      21241  MISS:        204
LLC TOTAL     ACCESS:   12118892  HIT:   12060305  MISS:      58587
LLC LOAD      ACCESS:   12090289  HIT:   12032225  MISS:      58064
LLC RFO       ACCESS:       7693  HIT:       7170  MISS:        523
LLC PREFETCH  ACCESS:          0  HIT:          0  MISS:          0
LLC WRITEBACK ACCESS:      20283  HIT:      20283  MISS:          0
Finished CPU 0 instructions: 1500000002 cycles: 622318630 cumulative IPC: 2.41034 (Simulation time: 12 hr 29 min 31 sec) 

ChampSim completed all CPUs

Region of Interest Statistics

CPU 0 cumulative IPC: 2.41034 instructions: 1500000002 cycles: 622318630
cpu0_DTLB TOTAL     ACCESS:  128881109  HIT:  128185439  MISS:     695670
cpu0_DTLB LOAD      ACCESS:  128844048  HIT:  128155981  MISS:     688067
cpu0_DTLB RFO       ACCESS:      37061  HIT:      29458  MISS:       7603
cpu0_DTLB PREFETCH  ACCESS:          0  HIT:          0  MISS:          0
cpu0_DTLB WRITEBACK ACCESS:          0  HIT:          0  MISS:          0
cpu0_DTLB TRANSLATION ACCESS:          0  HIT:          0  MISS:          0
cpu0_DTLB PREFETCH  REQUESTED:          0  ISSUED:          0  USEFUL:          0  USELESS:          0
cpu0_DTLB AVERAGE MISS LATENCY: 9.31149 cycles
cpu0_ITLB TOTAL     ACCESS:   33756637  HIT:   33756637  MISS:          0
cpu0_ITLB LOAD      ACCESS:   33756637  HIT:   33756637  MISS:          0
cpu0_ITLB RFO       ACCESS:          0  HIT:          0  MISS:          0
cpu0_ITLB PREFETCH  ACCESS:          0  HIT:          0  MISS:          0
cpu0_ITLB WRITEBACK ACCESS:          0  HIT:          0  MISS:          0
cpu0_ITLB TRANSLATION ACCESS:          0  HIT:          0  MISS:          0
cpu0_ITLB PREFETCH  REQUESTED:          0  ISSUED:          0  USEFUL:          0  USELESS:          0
cpu0_ITLB AVERAGE MISS LATENCY: -nan cycles
cpu0_L1I TOTAL     ACCESS:          2  HIT:          2  MISS:          0
cpu0_L1I LOAD      ACCESS:          2  HIT:          2  MISS:          0
cpu0_L1I RFO       ACCESS:          0  HIT:          0  MISS:          0
cpu0_L1I PREFETCH  ACCESS:          0  HIT:          0  MISS:          0
cpu0_L1I WRITEBACK ACCESS:          0  HIT:          0  MISS:          0
cpu0_L1I TRANSLATION ACCESS:          0  HIT:          0  MISS:          0
cpu0_L1I PREFETCH  REQUESTED:          0  ISSUED:          0  USEFUL:          0  USELESS:          0
cpu0_L1I AVERAGE MISS LATENCY: -nan cycles
cpu0_STLB TOTAL     ACCESS:     695670  HIT:     694756  MISS:        914
cpu0_STLB LOAD      ACCESS:     688067  HIT:     687161  MISS:        906
cpu0_STLB RFO       ACCESS:       7603  HIT:       7595  MISS:          8
cpu0_STLB PREFETCH  ACCESS:          0  HIT:          0  MISS:          0
cpu0_STLB WRITEBACK ACCESS:          0  HIT:          0  MISS:          0
cpu0_STLB TRANSLATION ACCESS:          0  HIT:          0  MISS:          0
cpu0_STLB PREFETCH  REQUESTED:          0  ISSUED:          0  USEFUL:          0  USELESS:          0
cpu0_STLB AVERAGE MISS LATENCY: 233.406 cycles
cpu0_L1D TOTAL     ACCESS:   39656931  HIT:   26306274  MISS:   13350657
cpu0_L1D LOAD      ACCESS:   39591867  HIT:   26251017  MISS:   13340850
cpu0_L1D RFO       ACCESS:      64150  HIT:      55257  MISS:       8893
cpu0_L1D PREFETCH  ACCESS:          0  HIT:          0  MISS:          0
cpu0_L1D WRITEBACK ACCESS:          0  HIT:          0  MISS:          0
cpu0_L1D TRANSLATION ACCESS:        914  HIT:          0  MISS:        914
cpu0_L1D PREFETCH  REQUESTED:          0  ISSUED:          0  USEFUL:          0  USELESS:          0
cpu0_L1D AVERAGE MISS LATENCY: 30.7767 cycles
cpu0_L2C TOTAL     ACCESS:   13372102  HIT:    1273267  MISS:   12098835
cpu0_L2C LOAD      ACCESS:   13340850  HIT:    1250561  MISS:   12090289
cpu0_L2C RFO       ACCESS:       8893  HIT:       1178  MISS:       7715
cpu0_L2C PREFETCH  ACCESS:          0  HIT:          0  MISS:          0
cpu0_L2C WRITEBACK ACCESS:      21445  HIT:      21241  MISS:        204
cpu0_L2C TRANSLATION ACCESS:        914  HIT:        287  MISS:        627
cpu0_L2C PREFETCH  REQUESTED:          0  ISSUED:          0  USEFUL:          0  USELESS:          0
cpu0_L2C AVERAGE MISS LATENCY: 21.7851 cycles
LLC TOTAL     ACCESS:   12118892  HIT:   12060305  MISS:      58587
LLC LOAD      ACCESS:   12090289  HIT:   12032225  MISS:      58064
LLC RFO       ACCESS:       7693  HIT:       7170  MISS:        523
LLC PREFETCH  ACCESS:          0  HIT:          0  MISS:          0
LLC WRITEBACK ACCESS:      20283  HIT:      20283  MISS:          0
LLC TRANSLATION ACCESS:        627  HIT:        627  MISS:          0
LLC PREFETCH  REQUESTED:          0  ISSUED:          0  USEFUL:          0  USELESS:          0
LLC AVERAGE MISS LATENCY: 162.199 cycles
~~~~~~~~~~Reuse Distance Profiler output~~~~~~~~~~
0	17384112	17374912
1	9161456	9151200
2	2728832	2724448
3	975568	972912
4	24688	23216
5	6656	3248
6	3296	432
7	1392	320
8	3184	464
9	1280	416
10	1296	48
11	1312	80
12	1952	64
13	2096	48
14	2192	352
15	1552	432
16	3088	304
17	2304	368
18	1088	128
19	1664	80
20	384	96
21	272	64
22	0	0
23	0	0
24	0	0
25	0	0
26	0	0
27	0	0
28	0	0
29	0	0
30	0	0
31	0	0
32	0	0
33	0	0
34	0	0
35	0	0
36	80	0
37	32	0
38	16	0
39	48	0
40	160	0
41	112	0
42	48	0
43	16	0
44	16	0
45	32	0
46	48	0
47	80	0
48	80	0
49	32	0
50	0	0
51	0	0
52	0	0
53	0	0
54	0	0
55	0	0
56	0	0
57	0	0
58	0	0
59	0	0
60	0	0
61	0	0
62	0	0
63	0	0
64	0	0
66	0	0
68	32	32
70	17632	17632
72	64560	64560
74	90416	90416
76	107600	107600
78	114640	114640
80	72496	72496
82	33904	33904
84	30624	30624
86	62400	62400
88	70112	70112
90	91008	91008
92	32064	32064
94	41600	41600
96	14688	14688
98	12496	12496
100	22032	22032
102	9584	9584
104	9824	9824
106	9360	9360
108	8240	8240
110	5216	5216
112	4112	4112
114	3456	3456
116	1872	1872
118	928	928
120	288	288
122	224	224
124	128	128
126	128	128
128	48	48
132	0	0
136	0	0
140	0	0
144	0	0
148	0	0
152	0	0
156	0	0
160	0	0
164	0	0
168	0	0
172	0	0
176	0	0
180	0	0
184	0	0
188	0	0
192	0	0
196	0	0
200	0	0
204	0	0
208	0	0
212	0	0
216	0	0
220	0	0
224	0	0
228	0	0
232	0	0
236	0	0
240	0	0
244	0	0
248	0	0
252	0	0
256	0	0
264	0	0
272	0	0
280	0	0
288	0	0
296	0	0
304	0	0
312	288	288
320	0	0
328	96	96
336	16	16
344	24656	24656
352	4208	4208
360	1248	1248
368	0	0
376	0	0
384	0	0
392	0	0
400	0	0
408	0	0
416	0	0
424	0	0
432	0	0
440	0	0
448	0	0
456	0	0
464	0	0
472	0	0
480	0	0
488	0	0
496	0	0
504	0	0
512	0	0
528	0	0
544	0	0
560	0	0
576	0	0
592	0	0
608	0	0
624	0	0
640	0	0
656	0	0
672	0	0
688	0	0
704	0	0
720	0	0
736	0	0
752	0	0
768	0	0
784	0	0
800	0	0
816	0	0
832	0	0
848	0	0
864	0	0
880	0	0
896	0	0
912	0	0
928	0	0
944	0	0
960	0	0
976	0	0
992	0	0
1008	0	0
1024	0	0
1056	0	0
1088	0	0
1120	0	0
1152	0	0
1184	0	0
1216	0	0
1248	0	0
1280	0	0
1312	0	0
1344	0	0
1376	0	0
1408	0	0
1440	0	0
1472	0	0
1504	0	0
1536	0	0
1568	0	0
1600	0	0
1632	0	0
1664	0	0
1696	0	0
1728	0	0
1760	0	0
1792	0	0
1824	0	0
1856	0	0
1888	0	0
1920	0	0
1952	0	0
1984	0	0
2016	0	0
2048	0	0
2112	0	0
2176	0	0
2240	0	0
2304	0	0
2368	0	0
2432	0	0
2496	0	0
2560	0	0
2624	0	0
2688	0	0
2752	0	0
2816	0	0
2880	0	0
2944	0	0
3008	0	0
3072	0	0
3136	0	0
3200	0	0
3264	0	0
3328	0	0
3392	0	0
3456	0	0
3520	0	0
3584	0	0
3648	0	0
3712	0	0
3776	0	0
3840	0	0
3904	0	0
3968	0	0
4032	0	0
4096	0	0
4224	0	0
4352	864	864
4480	2512	2512
4608	1568	1568
4736	1616	1616
4864	2384	2384
4992	688	688
5120	0	0
5248	0	0
5376	0	0
5504	0	0
5632	0	0
5760	0	0
5888	0	0
6016	0	0
6144	0	0
6272	0	0
6400	0	0
6528	0	0
6656	0	0
6784	0	0
6912	0	0
7040	0	0
7168	0	0
7296	0	0
7424	0	0
7552	0	0
7680	0	0
7808	0	0
7936	0	0
8064	0	0
8192	0	0
8448	0	0
8704	423040	422656
8960	2768448	2766464
9216	3578288	3576832
9472	3204800	3203488
9728	2825376	2823536
9984	486784	485920
10240	0	0
10496	48	48
10752	16	16
11008	16	16
11264	32	32
11520	16	16
11776	48	48
12032	16	16
12288	32	32
12544	32	32
12800	16	16
13056	32	32
13312	16	16
13568	48	48
13824	32	32
14080	16	16
14336	32	32
14592	32	32
14848	16	16
15104	16	16
15360	32	32
15616	48	48
15872	32	32
16128	16	16
16384	96	96
16896	64	64
17408	96	96
17920	48	48
18432	64	64
18944	368	368
19456	64	64
19968	48	48
20480	80	80
20992	16	16
21504	48	48
22016	32	32
22528	64	64
23040	96	96
23552	32	32
24064	48	48
24576	48	48
25088	48	48
25600	48	48
26112	80	80
26624	32	32
27136	80	80
27648	80	80
28160	16	16
28672	48	48
29184	64	64
29696	48	48
30208	48	48
30720	64	64
31232	48	48
31744	80	80
32256	64	64
32768	80	80
33792	112	112
34816	112	112
35840	128	128
36864	128	128
37888	439952	439616
38912	1136	1104
39936	0	0
40960	0	0
41984	0	0
43008	0	0
44032	0	0
45056	0	0
46080	0	0
47104	0	0
48128	0	0
49152	0	0
50176	0	0
51200	0	0
52224	0	0
53248	0	0
54272	0	0
55296	0	0
56320	0	0
57344	0	0
58368	0	0
59392	0	0
60416	0	0
61440	0	0
62464	0	0
63488	0	0
64512	0	0
65536	0	0
67584	0	0
69632	0	0
71680	0	0
73728	0	0
75776	0	0
77824	0	0
79872	0	0
81920	0	0
83968	0	0
86016	0	0
88064	0	0
90112	0	0
92160	0	0
94208	0	0
96256	0	0
98304	0	0
100352	0	0
102400	0	0
104448	0	0
106496	0	0
108544	0	0
110592	0	0
112640	0	0
114688	0	0
116736	0	0
118784	0	0
120832	0	0
122880	0	0
124928	0	0
126976	0	0
129024	0	0
131072	0	0
135168	0	0
139264	0	0
143360	0	0
147456	0	0
151552	0	0
155648	0	0
159744	16	16
163840	0	0
167936	0	0
172032	0	0
176128	0	0
180224	16	16
184320	0	0
188416	0	0
192512	0	0
196608	0	0
200704	0	0
204800	0	0
208896	0	0
212992	0	0
217088	0	0
221184	0	0
225280	0	0
229376	0	0
233472	0	0
237568	0	0
241664	0	0
245760	0	0
249856	0	0
253952	0	0
258048	0	0
262144	0	0
270336	0	0
278528	0	0
286720	0	0
294912	0	0
303104	0	0
311296	0	0
319488	0	0
327680	0	0
335872	0	0
344064	0	0
352256	0	0
360448	0	0
368640	0	0
376832	0	0
385024	0	0
393216	0	0
401408	0	0
409600	0	0
417792	0	0
425984	0	0
434176	0	0
442368	0	0
450560	0	0
458752	16	16
466944	0	0
475136	0	0
483328	0	0
491520	0	0
499712	0	0
507904	0	0
516096	16	16
524288	0	0
540672	0	0
557056	0	0
573440	0	0
589824	0	0
606208	0	0
622592	0	0
638976	0	0
655360	0	0
671744	0	0
688128	0	0
704512	0	0
720896	0	0
737280	0	0
753664	0	0
770048	0	0
786432	0	0
802816	0	0
819200	0	0
835584	0	0
851968	0	0
868352	0	0
884736	0	0
901120	0	0
917504	0	0
933888	0	0
950272	0	0
966656	0	0
983040	0	0
999424	0	0
1015808	0	0
1032192	0	0
1048576	0	0
1081344	0	0
1114112	0	0
1146880	0	0
1179648	0	0
1212416	0	0
1245184	0	0
1277952	0	0
1310720	0	0
1343488	0	0
1376256	0	0
1409024	0	0
1441792	0	0
1474560	0	0
1507328	0	0
1540096	0	0
1572864	0	0
1605632	0	0
1638400	0	0
1671168	0	0
1703936	0	0
1736704	0	0
1769472	0	0
1802240	0	0
1835008	0	0
1867776	0	0
1900544	0	0
1933312	0	0
1966080	0	0
1998848	0	0
2031616	0	0
2064384	0	0
2097152	0	0
2162688	0	0
2228224	0	0
2293760	0	0
2359296	0	0
2424832	0	0
2490368	0	0
2555904	0	0
2621440	0	0
2686976	0	0
2752512	0	0
2818048	0	0
2883584	0	0
2949120	0	0
3014656	0	0
3080192	0	0
3145728	0	0
3211264	0	0
3276800	0	0
3342336	0	0
3407872	0	0
3473408	0	0
3538944	0	0
3604480	0	0
3670016	0	0
3735552	0	0
3801088	0	0
3866624	0	0
3932160	0	0
3997696	0	0
4063232	0	0
4128768	0	0
4194304	0	0
4325376	0	0
4456448	0	0
4587520	0	0
4718592	0	0
4849664	0	0
4980736	0	0
5111808	0	0
5242880	0	0
5373952	0	0
5505024	0	0
5636096	0	0
5767168	0	0
5898240	0	0
6029312	0	0
6160384	0	0
6291456	0	0
6422528	0	0
6553600	0	0
6684672	0	0
6815744	0	0
6946816	0	0
7077888	0	0
7208960	0	0
7340032	0	0
7471104	0	0
7602176	0	0
7733248	0	0
7864320	0	0
7995392	0	0
8126464	0	0
8257536	0	0
8388608	0	0
8650752	0	0
8912896	0	0
9175040	0	0
9437184	0	0
9699328	0	0
9961472	0	0
10223616	0	0
10485760	0	0
10747904	0	0
11010048	0	0
11272192	0	0
11534336	0	0
11796480	0	0
12058624	0	0
12320768	0	0
12582912	0	0
12845056	0	0
13107200	0	0
13369344	0	0
13631488	0	0
13893632	0	0
14155776	0	0
14417920	0	0
14680064	0	0
14942208	0	0
15204352	0	0
15466496	0	0
15728640	0	0
15990784	0	0
16252928	0	0
16515072	0	0
16777216	0	0
17301504	0	0
17825792	0	0
18350080	0	0
18874368	0	0
19398656	0	0
19922944	0	0
20447232	0	0
20971520	0	0
21495808	0	0
22020096	0	0
22544384	0	0
23068672	0	0
23592960	0	0
24117248	0	0
24641536	0	0
25165824	0	0
25690112	0	0
26214400	0	0
26738688	0	0
27262976	0	0
27787264	0	0
28311552	0	0
28835840	0	0
29360128	0	0
29884416	0	0
30408704	0	0
30932992	0	0
31457280	0	0
31981568	0	0
32505856	0	0
33030144	0	0
33554432	0	0
34603008	0	0
35651584	0	0
36700160	0	0
37748736	0	0
38797312	0	0
39845888	0	0
40894464	0	0
41943040	0	0
42991616	0	0
44040192	0	0
45088768	0	0
46137344	0	0
47185920	0	0
48234496	0	0
49283072	0	0
50331648	0	0
51380224	0	0
52428800	0	0
53477376	0	0
54525952	0	0
55574528	0	0
56623104	0	0
57671680	0	0
58720256	0	0
59768832	0	0
60817408	0	0
61865984	0	0
62914560	0	0
63963136	0	0
65011712	0	0
66060288	0	0
67108864	0	0
69206016	0	0
71303168	0	0
73400320	0	0
75497472	0	0
77594624	0	0
79691776	0	0
81788928	0	0
83886080	0	0
85983232	0	0
88080384	0	0
90177536	0	0
92274688	0	0
94371840	0	0
96468992	0	0
98566144	0	0
100663296	0	0
102760448	0	0
104857600	0	0
106954752	0	0
109051904	0	0
111149056	0	0
113246208	0	0
115343360	0	0
117440512	0	0
119537664	0	0
121634816	0	0
123731968	0	0
125829120	0	0
127926272	0	0
130023424	0	0
132120576	0	0
134217728	0	0
138412032	0	0
142606336	0	0
146800640	0	0
150994944	0	0
155189248	0	0
159383552	0	0
163577856	0	0
167772160	0	0
171966464	0	0
176160768	0	0
180355072	0	0
184549376	0	0
188743680	0	0
192937984	0	0
197132288	0	0
201326592	0	0
205520896	0	0
209715200	0	0
213909504	0	0
218103808	0	0
222298112	0	0
226492416	0	0
230686720	0	0
234881024	0	0
239075328	0	0
243269632	0	0
247463936	0	0
251658240	0	0
255852544	0	0
260046848	0	0
264241152	0	0
268435456	0	0
276824064	0	0
285212672	0	0
293601280	0	0
301989888	0	0
310378496	0	0
318767104	0	0
327155712	0	0
335544320	0	0
343932928	0	0
352321536	0	0
360710144	0	0
369098752	0	0
377487360	0	0
385875968	0	0
394264576	0	0
402653184	0	0
411041792	0	0
419430400	0	0
427819008	0	0
436207616	0	0
444596224	0	0
452984832	0	0
461373440	0	0
469762048	0	0
478150656	0	0
486539264	0	0
494927872	0	0
503316480	0	0
511705088	0	0
520093696	0	0
528482304	0	0
536870912	0	0
553648128	0	0
570425344	0	0
587202560	0	0
603979776	0	0
620756992	0	0
637534208	0	0
654311424	0	0
671088640	0	0
687865856	0	0
704643072	0	0
721420288	0	0
738197504	0	0
754974720	0	0
771751936	0	0
788529152	0	0
805306368	0	0
822083584	0	0
838860800	0	0
855638016	0	0
872415232	0	0
889192448	0	0
905969664	0	0
922746880	0	0
939524096	0	0
956301312	0	0
973078528	0	0
989855744	0	0
1006632960	0	0
1023410176	0	0
1040187392	0	0
1056964608	0	0
1073741824	0	0
1107296256	0	0
1140850688	0	0
1174405120	0	0
1207959552	0	0
1241513984	0	0
1275068416	0	0
1308622848	0	0
1342177280	0	0
1375731712	0	0
1409286144	0	0
1442840576	0	0
1476395008	0	0
1509949440	0	0
1543503872	0	0
1577058304	0	0
1610612736	0	0
1644167168	0	0
1677721600	0	0
1711276032	0	0
1744830464	0	0
1778384896	0	0
1811939328	0	0
1845493760	0	0
1879048192	0	0
1912602624	0	0
1946157056	0	0
1979711488	0	0
2013265920	0	0
2046820352	0	0
2080374784	0	0
2113929216	0	0
2147483648	0	0
2214592512	0	0
2281701376	0	0
2348810240	0	0
2415919104	0	0
2483027968	0	0
2550136832	0	0
2617245696	0	0
2684354560	0	0
2751463424	0	0
2818572288	0	0
2885681152	0	0
2952790016	0	0
3019898880	0	0
3087007744	0	0
3154116608	0	0
3221225472	0	0
3288334336	0	0
3355443200	0	0
3422552064	0	0
3489660928	0	0
3556769792	0	0
3623878656	0	0
3690987520	0	0
3758096384	0	0
3825205248	0	0
3892314112	0	0
3959422976	0	0
4026531840	0	0
4093640704	0	0
4160749568	0	0
4227858432	0	0
~~~~~~~~~~Reuse Distance Profiler output end~~~~~~~~~~

Sampler size:3868

DRAM Statistics
 CHANNEL 0
 RQ ROW_BUFFER_HIT:          0  ROW_BUFFER_MISS:      58587
 DBUS AVG_CONGESTED_CYCLE: -
 WQ ROW_BUFFER_HIT:          0  ROW_BUFFER_MISS:        209  FULL:          0


CPU 0 Branch Prediction Accuracy: 99.396% MPKI: 0.625164 Average ROB Occupancy at Mispredict: 197.136
Branch type MPKI
BRANCH_DIRECT_JUMP: 1.33333e-06
BRANCH_INDIRECT: 0
BRANCH_CONDITIONAL: 0.625163
BRANCH_DIRECT_CALL: 0
BRANCH_INDIRECT_CALL: 0
BRANCH_RETURN: 0

