
*** ChampSim Multicore Out-of-Order Simulator ***

Warmup Instructions: 50000000
Simulation Instructions: 1500000000
Number of CPUs: 1
Off-chip DRAM Size: 4 GiB Channels: 1 Width: 64-bit Data Rate: 3200 MT/s

VirtualMemory physical capacity: 8588881920 num_ppages: 2096895
VirtualMemory page size: 4096 log2_page_size: 12

CPU 0 runs /s/traces/champsim_traces/641.leela_s-1083B.champsimtrace.xz
CPU 0 Bimodal branch predictor
Basic BTB sets: 1024 ways: 8 indirect buffer size: 4096 RAS size: 64
Initializing LRU.
Initializing LRU.
Initializing LRU.
Initializing LRU.
Initializing rdLRU.
Initializing LRU.
Initializing LRU.
Heartbeat CPU 0 instructions: 2000000 cycles: 501550 heartbeat IPC: 3.98764 cumulative IPC: 3.98764 (Simulation time: 0 hr 1 min 3 sec) 
Heartbeat CPU 0 instructions: 4000003 cycles: 1003573 heartbeat IPC: 3.98389 cumulative IPC: 3.98576 (Simulation time: 0 hr 2 min 6 sec) 
Heartbeat CPU 0 instructions: 6000001 cycles: 1506287 heartbeat IPC: 3.9784 cumulative IPC: 3.98331 (Simulation time: 0 hr 3 min 7 sec) 
Heartbeat CPU 0 instructions: 8000000 cycles: 2008298 heartbeat IPC: 3.98397 cumulative IPC: 3.98347 (Simulation time: 0 hr 4 min 5 sec) 
Heartbeat CPU 0 instructions: 10000001 cycles: 2510311 heartbeat IPC: 3.98396 cumulative IPC: 3.98357 (Simulation time: 0 hr 5 min 5 sec) 
Heartbeat CPU 0 instructions: 12000003 cycles: 3012321 heartbeat IPC: 3.98399 cumulative IPC: 3.98364 (Simulation time: 0 hr 6 min 7 sec) 
Heartbeat CPU 0 instructions: 14000002 cycles: 3514333 heartbeat IPC: 3.98397 cumulative IPC: 3.98369 (Simulation time: 0 hr 7 min 9 sec) 
Heartbeat CPU 0 instructions: 16000001 cycles: 4017010 heartbeat IPC: 3.9787 cumulative IPC: 3.98306 (Simulation time: 0 hr 8 min 13 sec) 
Heartbeat CPU 0 instructions: 18000001 cycles: 4519104 heartbeat IPC: 3.98332 cumulative IPC: 3.98309 (Simulation time: 0 hr 9 min 17 sec) 
Heartbeat CPU 0 instructions: 20000001 cycles: 5020442 heartbeat IPC: 3.98932 cumulative IPC: 3.98371 (Simulation time: 0 hr 10 min 19 sec) 
Heartbeat CPU 0 instructions: 22000001 cycles: 5522453 heartbeat IPC: 3.98398 cumulative IPC: 3.98374 (Simulation time: 0 hr 11 min 22 sec) 
Heartbeat CPU 0 instructions: 24000000 cycles: 6025135 heartbeat IPC: 3.97866 cumulative IPC: 3.98331 (Simulation time: 0 hr 12 min 25 sec) 
Heartbeat CPU 0 instructions: 26000001 cycles: 6527201 heartbeat IPC: 3.98354 cumulative IPC: 3.98333 (Simulation time: 0 hr 13 min 27 sec) 
Heartbeat CPU 0 instructions: 28000002 cycles: 7029213 heartbeat IPC: 3.98397 cumulative IPC: 3.98338 (Simulation time: 0 hr 14 min 31 sec) 
Heartbeat CPU 0 instructions: 30000002 cycles: 7531225 heartbeat IPC: 3.98397 cumulative IPC: 3.98342 (Simulation time: 0 hr 15 min 32 sec) 
Heartbeat CPU 0 instructions: 32000000 cycles: 8033246 heartbeat IPC: 3.98389 cumulative IPC: 3.98345 (Simulation time: 0 hr 16 min 34 sec) 
Heartbeat CPU 0 instructions: 34000001 cycles: 8534587 heartbeat IPC: 3.9893 cumulative IPC: 3.98379 (Simulation time: 0 hr 17 min 37 sec) 
Heartbeat CPU 0 instructions: 36000002 cycles: 9037272 heartbeat IPC: 3.97864 cumulative IPC: 3.9835 (Simulation time: 0 hr 18 min 40 sec) 
Heartbeat CPU 0 instructions: 38000001 cycles: 9538613 heartbeat IPC: 3.9893 cumulative IPC: 3.98381 (Simulation time: 0 hr 19 min 41 sec) 
Heartbeat CPU 0 instructions: 40000002 cycles: 10040622 heartbeat IPC: 3.98399 cumulative IPC: 3.98382 (Simulation time: 0 hr 20 min 44 sec) 
Heartbeat CPU 0 instructions: 42000003 cycles: 10542635 heartbeat IPC: 3.98396 cumulative IPC: 3.98382 (Simulation time: 0 hr 22 min 0 sec) 
Heartbeat CPU 0 instructions: 44000003 cycles: 11044697 heartbeat IPC: 3.98357 cumulative IPC: 3.98381 (Simulation time: 0 hr 23 min 23 sec) 
Heartbeat CPU 0 instructions: 46000000 cycles: 11546070 heartbeat IPC: 3.98904 cumulative IPC: 3.98404 (Simulation time: 0 hr 24 min 48 sec) 
Heartbeat CPU 0 instructions: 48000002 cycles: 12048780 heartbeat IPC: 3.97844 cumulative IPC: 3.98381 (Simulation time: 0 hr 25 min 52 sec) 
Heartbeat CPU 0 instructions: 50000000 cycles: 12550805 heartbeat IPC: 3.98386 cumulative IPC: 3.98381 (Simulation time: 0 hr 26 min 56 sec) 

Warmup complete CPU 0 instructions: 50000004 cycles: 12550806 (Simulation time: 0 hr 26 min 56 sec) 

Heartbeat CPU 0 instructions: 52000002 cycles: 14574794 heartbeat IPC: 0.988149 cumulative IPC: 0.988147 (Simulation time: 0 hr 27 min 59 sec) 

Region of Interest Statistics
cpu0_DTLB TOTAL     ACCESS:     389635  HIT:     388736  MISS:        899
cpu0_DTLB LOAD      ACCESS:     273817  HIT:     272956  MISS:        861
cpu0_DTLB RFO       ACCESS:     115818  HIT:     115780  MISS:         38
cpu0_DTLB PREFETCH  ACCESS:          0  HIT:          0  MISS:          0
cpu0_DTLB WRITEBACK ACCESS:          0  HIT:          0  MISS:          0
cpu0_ITLB TOTAL     ACCESS:     221750  HIT:     221750  MISS:          0
cpu0_ITLB LOAD      ACCESS:     221750  HIT:     221750  MISS:          0
cpu0_ITLB RFO       ACCESS:          0  HIT:          0  MISS:          0
cpu0_ITLB PREFETCH  ACCESS:          0  HIT:          0  MISS:          0
cpu0_ITLB WRITEBACK ACCESS:          0  HIT:          0  MISS:          0
cpu0_L1I TOTAL     ACCESS:     122736  HIT:     122628  MISS:        108
cpu0_L1I LOAD      ACCESS:     122736  HIT:     122628  MISS:        108
cpu0_L1I RFO       ACCESS:          0  HIT:          0  MISS:          0
cpu0_L1I PREFETCH  ACCESS:          0  HIT:          0  MISS:          0
cpu0_L1I WRITEBACK ACCESS:          0  HIT:          0  MISS:          0
cpu0_STLB TOTAL     ACCESS:        899  HIT:        892  MISS:          7
cpu0_STLB LOAD      ACCESS:        861  HIT:        854  MISS:          7
cpu0_STLB RFO       ACCESS:         38  HIT:         38  MISS:          0
cpu0_STLB PREFETCH  ACCESS:          0  HIT:          0  MISS:          0
cpu0_STLB WRITEBACK ACCESS:          0  HIT:          0  MISS:          0
cpu0_L1D TOTAL     ACCESS:     531117  HIT:     525150  MISS:       5967
cpu0_L1D LOAD      ACCESS:     311642  HIT:     306435  MISS:       5207
cpu0_L1D RFO       ACCESS:     219468  HIT:     218711  MISS:        757
cpu0_L1D PREFETCH  ACCESS:          0  HIT:          0  MISS:          0
cpu0_L1D WRITEBACK ACCESS:          0  HIT:          0  MISS:          0
cpu0_L2C TOTAL     ACCESS:       7481  HIT:       5616  MISS:       1865
cpu0_L2C LOAD      ACCESS:       5315  HIT:       3553  MISS:       1762
cpu0_L2C RFO       ACCESS:        757  HIT:        682  MISS:         75
cpu0_L2C PREFETCH  ACCESS:          0  HIT:          0  MISS:          0
cpu0_L2C WRITEBACK ACCESS:       1406  HIT:       1380  MISS:         26
LLC TOTAL     ACCESS:       2148  HIT:       1961  MISS:        187
LLC LOAD      ACCESS:       1762  HIT:       1575  MISS:        187
LLC RFO       ACCESS:         75  HIT:         75  MISS:          0
LLC PREFETCH  ACCESS:          0  HIT:          0  MISS:          0
LLC WRITEBACK ACCESS:        309  HIT:        309  MISS:          0
Heartbeat CPU 0 instructions: 54000000 cycles: 16565175 heartbeat IPC: 1.00483 cumulative IPC: 0.99642 (Simulation time: 0 hr 29 min 2 sec) 

Region of Interest Statistics
cpu0_DTLB TOTAL     ACCESS:     778495  HIT:     776729  MISS:       1766
cpu0_DTLB LOAD      ACCESS:     543867  HIT:     542192  MISS:       1675
cpu0_DTLB RFO       ACCESS:     234628  HIT:     234537  MISS:         91
cpu0_DTLB PREFETCH  ACCESS:          0  HIT:          0  MISS:          0
cpu0_DTLB WRITEBACK ACCESS:          0  HIT:          0  MISS:          0
cpu0_ITLB TOTAL     ACCESS:     439931  HIT:     439931  MISS:          0
cpu0_ITLB LOAD      ACCESS:     439931  HIT:     439931  MISS:          0
cpu0_ITLB RFO       ACCESS:          0  HIT:          0  MISS:          0
cpu0_ITLB PREFETCH  ACCESS:          0  HIT:          0  MISS:          0
cpu0_ITLB WRITEBACK ACCESS:          0  HIT:          0  MISS:          0
cpu0_L1I TOTAL     ACCESS:     253247  HIT:     253043  MISS:        204
cpu0_L1I LOAD      ACCESS:     253247  HIT:     253043  MISS:        204
cpu0_L1I RFO       ACCESS:          0  HIT:          0  MISS:          0
cpu0_L1I PREFETCH  ACCESS:          0  HIT:          0  MISS:          0
cpu0_L1I WRITEBACK ACCESS:          0  HIT:          0  MISS:          0
cpu0_STLB TOTAL     ACCESS:       1766  HIT:       1748  MISS:         18
cpu0_STLB LOAD      ACCESS:       1675  HIT:       1658  MISS:         17
cpu0_STLB RFO       ACCESS:         91  HIT:         90  MISS:          1
cpu0_STLB PREFETCH  ACCESS:          0  HIT:          0  MISS:          0
cpu0_STLB WRITEBACK ACCESS:          0  HIT:          0  MISS:          0
cpu0_L1D TOTAL     ACCESS:    1067040  HIT:    1055971  MISS:      11069
cpu0_L1D LOAD      ACCESS:     619001  HIT:     609470  MISS:       9531
cpu0_L1D RFO       ACCESS:     448021  HIT:     446492  MISS:       1529
cpu0_L1D PREFETCH  ACCESS:          0  HIT:          0  MISS:          0
cpu0_L1D WRITEBACK ACCESS:          0  HIT:          0  MISS:          0
cpu0_L2C TOTAL     ACCESS:      13819  HIT:      10273  MISS:       3546
cpu0_L2C LOAD      ACCESS:       9735  HIT:       6549  MISS:       3186
cpu0_L2C RFO       ACCESS:       1529  HIT:       1232  MISS:        297
cpu0_L2C PREFETCH  ACCESS:          0  HIT:          0  MISS:          0
cpu0_L2C WRITEBACK ACCESS:       2546  HIT:       2487  MISS:         59
LLC TOTAL     ACCESS:       4080  HIT:       3576  MISS:        504
LLC LOAD      ACCESS:       3186  HIT:       2803  MISS:        383
LLC RFO       ACCESS:        297  HIT:        176  MISS:        121
LLC PREFETCH  ACCESS:          0  HIT:          0  MISS:          0
LLC WRITEBACK ACCESS:        593  HIT:        593  MISS:          0
Heartbeat CPU 0 instructions: 56000001 cycles: 18594561 heartbeat IPC: 0.98552 cumulative IPC: 0.99276 (Simulation time: 0 hr 30 min 6 sec) 

Region of Interest Statistics
cpu0_DTLB TOTAL     ACCESS:    1174414  HIT:    1171785  MISS:       2629
cpu0_DTLB LOAD      ACCESS:     822173  HIT:     819669  MISS:       2504
cpu0_DTLB RFO       ACCESS:     352241  HIT:     352116  MISS:        125
cpu0_DTLB PREFETCH  ACCESS:          0  HIT:          0  MISS:          0
cpu0_DTLB WRITEBACK ACCESS:          0  HIT:          0  MISS:          0
cpu0_ITLB TOTAL     ACCESS:     663773  HIT:     663773  MISS:          0
cpu0_ITLB LOAD      ACCESS:     663773  HIT:     663773  MISS:          0
cpu0_ITLB RFO       ACCESS:          0  HIT:          0  MISS:          0
cpu0_ITLB PREFETCH  ACCESS:          0  HIT:          0  MISS:          0
cpu0_ITLB WRITEBACK ACCESS:          0  HIT:          0  MISS:          0
cpu0_L1I TOTAL     ACCESS:     376046  HIT:     375747  MISS:        299
cpu0_L1I LOAD      ACCESS:     376046  HIT:     375747  MISS:        299
cpu0_L1I RFO       ACCESS:          0  HIT:          0  MISS:          0
cpu0_L1I PREFETCH  ACCESS:          0  HIT:          0  MISS:          0
cpu0_L1I WRITEBACK ACCESS:          0  HIT:          0  MISS:          0
cpu0_STLB TOTAL     ACCESS:       2629  HIT:       2607  MISS:         22
cpu0_STLB LOAD      ACCESS:       2504  HIT:       2485  MISS:         19
cpu0_STLB RFO       ACCESS:        125  HIT:        122  MISS:          3
cpu0_STLB PREFETCH  ACCESS:          0  HIT:          0  MISS:          0
cpu0_STLB WRITEBACK ACCESS:          0  HIT:          0  MISS:          0
cpu0_L1D TOTAL     ACCESS:    1605896  HIT:    1589883  MISS:      16013
cpu0_L1D LOAD      ACCESS:     935948  HIT:     922074  MISS:      13874
cpu0_L1D RFO       ACCESS:     669927  HIT:     667800  MISS:       2127
cpu0_L1D PREFETCH  ACCESS:          0  HIT:          0  MISS:          0
cpu0_L1D WRITEBACK ACCESS:          0  HIT:          0  MISS:          0
cpu0_L2C TOTAL     ACCESS:      20082  HIT:      15356  MISS:       4726
cpu0_L2C LOAD      ACCESS:      14173  HIT:       9953  MISS:       4220
cpu0_L2C RFO       ACCESS:       2127  HIT:       1731  MISS:        396
cpu0_L2C PREFETCH  ACCESS:          0  HIT:          0  MISS:          0
cpu0_L2C WRITEBACK ACCESS:       3770  HIT:       3666  MISS:        104
LLC TOTAL     ACCESS:       5490  HIT:       4939  MISS:        551
LLC LOAD      ACCESS:       4220  HIT:       3816  MISS:        404
LLC RFO       ACCESS:        396  HIT:        249  MISS:        147
LLC PREFETCH  ACCESS:          0  HIT:          0  MISS:          0
LLC WRITEBACK ACCESS:        868  HIT:        868  MISS:          0
Heartbeat CPU 0 instructions: 58000001 cycles: 20570662 heartbeat IPC: 1.01209 cumulative IPC: 0.997524 (Simulation time: 0 hr 31 min 7 sec) 

Region of Interest Statistics
cpu0_DTLB TOTAL     ACCESS:    1565103  HIT:    1561591  MISS:       3512
cpu0_DTLB LOAD      ACCESS:    1096386  HIT:    1093032  MISS:       3354
cpu0_DTLB RFO       ACCESS:     468717  HIT:     468559  MISS:        158
cpu0_DTLB PREFETCH  ACCESS:          0  HIT:          0  MISS:          0
cpu0_DTLB WRITEBACK ACCESS:          0  HIT:          0  MISS:          0
cpu0_ITLB TOTAL     ACCESS:     885841  HIT:     885841  MISS:          0
cpu0_ITLB LOAD      ACCESS:     885841  HIT:     885841  MISS:          0
cpu0_ITLB RFO       ACCESS:          0  HIT:          0  MISS:          0
cpu0_ITLB PREFETCH  ACCESS:          0  HIT:          0  MISS:          0
cpu0_ITLB WRITEBACK ACCESS:          0  HIT:          0  MISS:          0
cpu0_L1I TOTAL     ACCESS:     498302  HIT:     497912  MISS:        390
cpu0_L1I LOAD      ACCESS:     498302  HIT:     497912  MISS:        390
cpu0_L1I RFO       ACCESS:          0  HIT:          0  MISS:          0
cpu0_L1I PREFETCH  ACCESS:          0  HIT:          0  MISS:          0
cpu0_L1I WRITEBACK ACCESS:          0  HIT:          0  MISS:          0
cpu0_STLB TOTAL     ACCESS:       3512  HIT:       3488  MISS:         24
cpu0_STLB LOAD      ACCESS:       3354  HIT:       3333  MISS:         21
cpu0_STLB RFO       ACCESS:        158  HIT:        155  MISS:          3
cpu0_STLB PREFETCH  ACCESS:          0  HIT:          0  MISS:          0
cpu0_STLB WRITEBACK ACCESS:          0  HIT:          0  MISS:          0
cpu0_L1D TOTAL     ACCESS:    2139383  HIT:    2118243  MISS:      21140
cpu0_L1D LOAD      ACCESS:    1247856  HIT:    1229461  MISS:      18395
cpu0_L1D RFO       ACCESS:     891504  HIT:     888772  MISS:       2732
cpu0_L1D PREFETCH  ACCESS:          0  HIT:          0  MISS:          0
cpu0_L1D WRITEBACK ACCESS:          0  HIT:          0  MISS:          0
cpu0_L2C TOTAL     ACCESS:      26455  HIT:      20364  MISS:       6091
cpu0_L2C LOAD      ACCESS:      18785  HIT:      13321  MISS:       5464
cpu0_L2C RFO       ACCESS:       2732  HIT:       2258  MISS:        474
cpu0_L2C PREFETCH  ACCESS:          0  HIT:          0  MISS:          0
cpu0_L2C WRITEBACK ACCESS:       4925  HIT:       4778  MISS:        147
LLC TOTAL     ACCESS:       7081  HIT:       6345  MISS:        736
LLC LOAD      ACCESS:       5464  HIT:       4875  MISS:        589
LLC RFO       ACCESS:        474  HIT:        327  MISS:        147
LLC PREFETCH  ACCESS:          0  HIT:          0  MISS:          0
LLC WRITEBACK ACCESS:       1137  HIT:       1137  MISS:          0
Heartbeat CPU 0 instructions: 60000003 cycles: 22549062 heartbeat IPC: 1.01092 cumulative IPC: 1.00017 (Simulation time: 0 hr 32 min 8 sec) 

Region of Interest Statistics
cpu0_DTLB TOTAL     ACCESS:    1957463  HIT:    1953098  MISS:       4365
cpu0_DTLB LOAD      ACCESS:    1371156  HIT:    1366986  MISS:       4170
cpu0_DTLB RFO       ACCESS:     586307  HIT:     586112  MISS:        195
cpu0_DTLB PREFETCH  ACCESS:          0  HIT:          0  MISS:          0
cpu0_DTLB WRITEBACK ACCESS:          0  HIT:          0  MISS:          0
cpu0_ITLB TOTAL     ACCESS:    1108590  HIT:    1108590  MISS:          0
cpu0_ITLB LOAD      ACCESS:    1108590  HIT:    1108590  MISS:          0
cpu0_ITLB RFO       ACCESS:          0  HIT:          0  MISS:          0
cpu0_ITLB PREFETCH  ACCESS:          0  HIT:          0  MISS:          0
cpu0_ITLB WRITEBACK ACCESS:          0  HIT:          0  MISS:          0
cpu0_L1I TOTAL     ACCESS:     620963  HIT:     620483  MISS:        480
cpu0_L1I LOAD      ACCESS:     620963  HIT:     620483  MISS:        480
cpu0_L1I RFO       ACCESS:          0  HIT:          0  MISS:          0
cpu0_L1I PREFETCH  ACCESS:          0  HIT:          0  MISS:          0
cpu0_L1I WRITEBACK ACCESS:          0  HIT:          0  MISS:          0
cpu0_STLB TOTAL     ACCESS:       4365  HIT:       4341  MISS:         24
cpu0_STLB LOAD      ACCESS:       4170  HIT:       4149  MISS:         21
cpu0_STLB RFO       ACCESS:        195  HIT:        192  MISS:          3
cpu0_STLB PREFETCH  ACCESS:          0  HIT:          0  MISS:          0
cpu0_STLB WRITEBACK ACCESS:          0  HIT:          0  MISS:          0
cpu0_L1D TOTAL     ACCESS:    2677034  HIT:    2651136  MISS:      25898
cpu0_L1D LOAD      ACCESS:    1560720  HIT:    1538120  MISS:      22600
cpu0_L1D RFO       ACCESS:    1116291  HIT:    1113006  MISS:       3285
cpu0_L1D PREFETCH  ACCESS:          0  HIT:          0  MISS:          0
cpu0_L1D WRITEBACK ACCESS:          0  HIT:          0  MISS:          0
cpu0_L2C TOTAL     ACCESS:      32349  HIT:      25271  MISS:       7078
cpu0_L2C LOAD      ACCESS:      23080  HIT:      16715  MISS:       6365
cpu0_L2C RFO       ACCESS:       3285  HIT:       2753  MISS:        532
cpu0_L2C PREFETCH  ACCESS:          0  HIT:          0  MISS:          0
cpu0_L2C WRITEBACK ACCESS:       5971  HIT:       5796  MISS:        175
LLC TOTAL     ACCESS:       8218  HIT:       7471  MISS:        747
LLC LOAD      ACCESS:       6365  HIT:       5765  MISS:        600
LLC RFO       ACCESS:        532  HIT:        385  MISS:        147
LLC PREFETCH  ACCESS:          0  HIT:          0  MISS:          0
LLC WRITEBACK ACCESS:       1315  HIT:       1315  MISS:          0
Heartbeat CPU 0 instructions: 62000002 cycles: 24510861 heartbeat IPC: 1.01947 cumulative IPC: 1.00334 (Simulation time: 0 hr 33 min 8 sec) 

Region of Interest Statistics
cpu0_DTLB TOTAL     ACCESS:    2340681  HIT:    2335394  MISS:       5287
cpu0_DTLB LOAD      ACCESS:    1636910  HIT:    1631861  MISS:       5049
cpu0_DTLB RFO       ACCESS:     703771  HIT:     703533  MISS:        238
cpu0_DTLB PREFETCH  ACCESS:          0  HIT:          0  MISS:          0
cpu0_DTLB WRITEBACK ACCESS:          0  HIT:          0  MISS:          0
cpu0_ITLB TOTAL     ACCESS:    1327515  HIT:    1327515  MISS:          0
cpu0_ITLB LOAD      ACCESS:    1327515  HIT:    1327515  MISS:          0
cpu0_ITLB RFO       ACCESS:          0  HIT:          0  MISS:          0
cpu0_ITLB PREFETCH  ACCESS:          0  HIT:          0  MISS:          0
cpu0_ITLB WRITEBACK ACCESS:          0  HIT:          0  MISS:          0
cpu0_L1I TOTAL     ACCESS:     746957  HIT:     746386  MISS:        571
cpu0_L1I LOAD      ACCESS:     746957  HIT:     746386  MISS:        571
cpu0_L1I RFO       ACCESS:          0  HIT:          0  MISS:          0
cpu0_L1I PREFETCH  ACCESS:          0  HIT:          0  MISS:          0
cpu0_L1I WRITEBACK ACCESS:          0  HIT:          0  MISS:          0
cpu0_STLB TOTAL     ACCESS:       5287  HIT:       5262  MISS:         25
cpu0_STLB LOAD      ACCESS:       5049  HIT:       5027  MISS:         22
cpu0_STLB RFO       ACCESS:        238  HIT:        235  MISS:          3
cpu0_STLB PREFETCH  ACCESS:          0  HIT:          0  MISS:          0
cpu0_STLB WRITEBACK ACCESS:          0  HIT:          0  MISS:          0
cpu0_L1D TOTAL     ACCESS:    3204536  HIT:    3172598  MISS:      31938
cpu0_L1D LOAD      ACCESS:    1862954  HIT:    1835004  MISS:      27950
cpu0_L1D RFO       ACCESS:    1341558  HIT:    1337584  MISS:       3974
cpu0_L1D PREFETCH  ACCESS:          0  HIT:          0  MISS:          0
cpu0_L1D WRITEBACK ACCESS:          0  HIT:          0  MISS:          0
cpu0_L2C TOTAL     ACCESS:      39757  HIT:      30406  MISS:       9351
cpu0_L2C LOAD      ACCESS:      28521  HIT:      20041  MISS:       8480
cpu0_L2C RFO       ACCESS:       3974  HIT:       3324  MISS:        650
cpu0_L2C PREFETCH  ACCESS:          0  HIT:          0  MISS:          0
cpu0_L2C WRITEBACK ACCESS:       7248  HIT:       7034  MISS:        214
LLC TOTAL     ACCESS:      10881  HIT:      10116  MISS:        765
LLC LOAD      ACCESS:       8480  HIT:       7863  MISS:        617
LLC RFO       ACCESS:        650  HIT:        502  MISS:        148
LLC PREFETCH  ACCESS:          0  HIT:          0  MISS:          0
LLC WRITEBACK ACCESS:       1744  HIT:       1744  MISS:          0
Heartbeat CPU 0 instructions: 64000002 cycles: 26527564 heartbeat IPC: 0.991718 cumulative IPC: 1.00166 (Simulation time: 0 hr 34 min 10 sec) 

Region of Interest Statistics
cpu0_DTLB TOTAL     ACCESS:    2735210  HIT:    2729071  MISS:       6139
cpu0_DTLB LOAD      ACCESS:    1912326  HIT:    1906456  MISS:       5870
cpu0_DTLB RFO       ACCESS:     822884  HIT:     822615  MISS:        269
cpu0_DTLB PREFETCH  ACCESS:          0  HIT:          0  MISS:          0
cpu0_DTLB WRITEBACK ACCESS:          0  HIT:          0  MISS:          0
cpu0_ITLB TOTAL     ACCESS:    1552867  HIT:    1552867  MISS:          0
cpu0_ITLB LOAD      ACCESS:    1552867  HIT:    1552867  MISS:          0
cpu0_ITLB RFO       ACCESS:          0  HIT:          0  MISS:          0
cpu0_ITLB PREFETCH  ACCESS:          0  HIT:          0  MISS:          0
cpu0_ITLB WRITEBACK ACCESS:          0  HIT:          0  MISS:          0
cpu0_L1I TOTAL     ACCESS:     872811  HIT:     872150  MISS:        661
cpu0_L1I LOAD      ACCESS:     872811  HIT:     872150  MISS:        661
cpu0_L1I RFO       ACCESS:          0  HIT:          0  MISS:          0
cpu0_L1I PREFETCH  ACCESS:          0  HIT:          0  MISS:          0
cpu0_L1I WRITEBACK ACCESS:          0  HIT:          0  MISS:          0
cpu0_STLB TOTAL     ACCESS:       6139  HIT:       6113  MISS:         26
cpu0_STLB LOAD      ACCESS:       5870  HIT:       5847  MISS:         23
cpu0_STLB RFO       ACCESS:        269  HIT:        266  MISS:          3
cpu0_STLB PREFETCH  ACCESS:          0  HIT:          0  MISS:          0
cpu0_STLB WRITEBACK ACCESS:          0  HIT:          0  MISS:          0
cpu0_L1D TOTAL     ACCESS:    3747562  HIT:    3711078  MISS:      36484
cpu0_L1D LOAD      ACCESS:    2177373  HIT:    2145367  MISS:      32006
cpu0_L1D RFO       ACCESS:    1570164  HIT:    1565701  MISS:       4463
cpu0_L1D PREFETCH  ACCESS:          0  HIT:          0  MISS:          0
cpu0_L1D WRITEBACK ACCESS:          0  HIT:          0  MISS:          0
cpu0_L2C TOTAL     ACCESS:      45326  HIT:      34033  MISS:      11293
cpu0_L2C LOAD      ACCESS:      32667  HIT:      22361  MISS:      10306
cpu0_L2C RFO       ACCESS:       4463  HIT:       3742  MISS:        721
cpu0_L2C PREFETCH  ACCESS:          0  HIT:          0  MISS:          0
cpu0_L2C WRITEBACK ACCESS:       8181  HIT:       7923  MISS:        258
LLC TOTAL     ACCESS:      13194  HIT:      12417  MISS:        777
LLC LOAD      ACCESS:      10306  HIT:       9678  MISS:        628
LLC RFO       ACCESS:        721  HIT:        572  MISS:        149
LLC PREFETCH  ACCESS:          0  HIT:          0  MISS:          0
LLC WRITEBACK ACCESS:       2159  HIT:       2159  MISS:          0
Heartbeat CPU 0 instructions: 66000001 cycles: 28483137 heartbeat IPC: 1.02272 cumulative IPC: 1.00425 (Simulation time: 0 hr 35 min 10 sec) 

Region of Interest Statistics
cpu0_DTLB TOTAL     ACCESS:    3123611  HIT:    3116613  MISS:       6998
cpu0_DTLB LOAD      ACCESS:    2183470  HIT:    2176776  MISS:       6694
cpu0_DTLB RFO       ACCESS:     940141  HIT:     939837  MISS:        304
cpu0_DTLB PREFETCH  ACCESS:          0  HIT:          0  MISS:          0
cpu0_DTLB WRITEBACK ACCESS:          0  HIT:          0  MISS:          0
cpu0_ITLB TOTAL     ACCESS:    1773000  HIT:    1773000  MISS:          0
cpu0_ITLB LOAD      ACCESS:    1773000  HIT:    1773000  MISS:          0
cpu0_ITLB RFO       ACCESS:          0  HIT:          0  MISS:          0
cpu0_ITLB PREFETCH  ACCESS:          0  HIT:          0  MISS:          0
cpu0_ITLB WRITEBACK ACCESS:          0  HIT:          0  MISS:          0
cpu0_L1I TOTAL     ACCESS:     996129  HIT:     995377  MISS:        752
cpu0_L1I LOAD      ACCESS:     996129  HIT:     995377  MISS:        752
cpu0_L1I RFO       ACCESS:          0  HIT:          0  MISS:          0
cpu0_L1I PREFETCH  ACCESS:          0  HIT:          0  MISS:          0
cpu0_L1I WRITEBACK ACCESS:          0  HIT:          0  MISS:          0
cpu0_STLB TOTAL     ACCESS:       6998  HIT:       6971  MISS:         27
cpu0_STLB LOAD      ACCESS:       6694  HIT:       6670  MISS:         24
cpu0_STLB RFO       ACCESS:        304  HIT:        301  MISS:          3
cpu0_STLB PREFETCH  ACCESS:          0  HIT:          0  MISS:          0
cpu0_STLB WRITEBACK ACCESS:          0  HIT:          0  MISS:          0
cpu0_L1D TOTAL     ACCESS:    4280850  HIT:    4239340  MISS:      41510
cpu0_L1D LOAD      ACCESS:    2486310  HIT:    2449835  MISS:      36475
cpu0_L1D RFO       ACCESS:    1794514  HIT:    1789495  MISS:       5019
cpu0_L1D PREFETCH  ACCESS:          0  HIT:          0  MISS:          0
cpu0_L1D WRITEBACK ACCESS:          0  HIT:          0  MISS:          0
cpu0_L2C TOTAL     ACCESS:      51549  HIT:      38660  MISS:      12889
cpu0_L2C LOAD      ACCESS:      37227  HIT:      25428  MISS:      11799
cpu0_L2C RFO       ACCESS:       5019  HIT:       4236  MISS:        783
cpu0_L2C PREFETCH  ACCESS:          0  HIT:          0  MISS:          0
cpu0_L2C WRITEBACK ACCESS:       9287  HIT:       8988  MISS:        299
LLC TOTAL     ACCESS:      15004  HIT:      14217  MISS:        787
LLC LOAD      ACCESS:      11799  HIT:      11161  MISS:        638
LLC RFO       ACCESS:        783  HIT:        634  MISS:        149
LLC PREFETCH  ACCESS:          0  HIT:          0  MISS:          0
LLC WRITEBACK ACCESS:       2414  HIT:       2414  MISS:          0
Heartbeat CPU 0 instructions: 68000002 cycles: 30462058 heartbeat IPC: 1.01065 cumulative IPC: 1.00495 (Simulation time: 0 hr 36 min 9 sec) 

Region of Interest Statistics
cpu0_DTLB TOTAL     ACCESS:    3515138  HIT:    3507322  MISS:       7816
cpu0_DTLB LOAD      ACCESS:    2457020  HIT:    2449538  MISS:       7482
cpu0_DTLB RFO       ACCESS:    1058118  HIT:    1057784  MISS:        334
cpu0_DTLB PREFETCH  ACCESS:          0  HIT:          0  MISS:          0
cpu0_DTLB WRITEBACK ACCESS:          0  HIT:          0  MISS:          0
cpu0_ITLB TOTAL     ACCESS:    1994344  HIT:    1994344  MISS:          0
cpu0_ITLB LOAD      ACCESS:    1994344  HIT:    1994344  MISS:          0
cpu0_ITLB RFO       ACCESS:          0  HIT:          0  MISS:          0
cpu0_ITLB PREFETCH  ACCESS:          0  HIT:          0  MISS:          0
cpu0_ITLB WRITEBACK ACCESS:          0  HIT:          0  MISS:          0
cpu0_L1I TOTAL     ACCESS:    1119602  HIT:    1118753  MISS:        849
cpu0_L1I LOAD      ACCESS:    1119602  HIT:    1118753  MISS:        849
cpu0_L1I RFO       ACCESS:          0  HIT:          0  MISS:          0
cpu0_L1I PREFETCH  ACCESS:          0  HIT:          0  MISS:          0
cpu0_L1I WRITEBACK ACCESS:          0  HIT:          0  MISS:          0
cpu0_STLB TOTAL     ACCESS:       7816  HIT:       7789  MISS:         27
cpu0_STLB LOAD      ACCESS:       7482  HIT:       7458  MISS:         24
cpu0_STLB RFO       ACCESS:        334  HIT:        331  MISS:          3
cpu0_STLB PREFETCH  ACCESS:          0  HIT:          0  MISS:          0
cpu0_STLB WRITEBACK ACCESS:          0  HIT:          0  MISS:          0
cpu0_L1D TOTAL     ACCESS:    4817429  HIT:    4771125  MISS:      46304
cpu0_L1D LOAD      ACCESS:    2797276  HIT:    2756557  MISS:      40719
cpu0_L1D RFO       ACCESS:    2020127  HIT:    2014558  MISS:       5569
cpu0_L1D PREFETCH  ACCESS:          0  HIT:          0  MISS:          0
cpu0_L1D WRITEBACK ACCESS:          0  HIT:          0  MISS:          0
cpu0_L2C TOTAL     ACCESS:      57490  HIT:      43563  MISS:      13927
cpu0_L2C LOAD      ACCESS:      41568  HIT:      28820  MISS:      12748
cpu0_L2C RFO       ACCESS:       5568  HIT:       4721  MISS:        847
cpu0_L2C PREFETCH  ACCESS:          0  HIT:          0  MISS:          0
cpu0_L2C WRITEBACK ACCESS:      10338  HIT:      10014  MISS:        324
LLC TOTAL     ACCESS:      16197  HIT:      15403  MISS:        794
LLC LOAD      ACCESS:      12748  HIT:      12103  MISS:        645
LLC RFO       ACCESS:        847  HIT:        698  MISS:        149
LLC PREFETCH  ACCESS:          0  HIT:          0  MISS:          0
LLC WRITEBACK ACCESS:       2594  HIT:       2594  MISS:          0
Heartbeat CPU 0 instructions: 70000000 cycles: 32425324 heartbeat IPC: 1.01871 cumulative IPC: 1.00631 (Simulation time: 0 hr 37 min 9 sec) 

Region of Interest Statistics
cpu0_DTLB TOTAL     ACCESS:    3907694  HIT:    3899024  MISS:       8670
cpu0_DTLB LOAD      ACCESS:    2731742  HIT:    2723431  MISS:       8311
cpu0_DTLB RFO       ACCESS:    1175952  HIT:    1175593  MISS:        359
cpu0_DTLB PREFETCH  ACCESS:          0  HIT:          0  MISS:          0
cpu0_DTLB WRITEBACK ACCESS:          0  HIT:          0  MISS:          0
cpu0_ITLB TOTAL     ACCESS:    2215425  HIT:    2215425  MISS:          0
cpu0_ITLB LOAD      ACCESS:    2215425  HIT:    2215425  MISS:          0
cpu0_ITLB RFO       ACCESS:          0  HIT:          0  MISS:          0
cpu0_ITLB PREFETCH  ACCESS:          0  HIT:          0  MISS:          0
cpu0_ITLB WRITEBACK ACCESS:          0  HIT:          0  MISS:          0
cpu0_L1I TOTAL     ACCESS:    1243596  HIT:    1242656  MISS:        940
cpu0_L1I LOAD      ACCESS:    1243596  HIT:    1242656  MISS:        940
cpu0_L1I RFO       ACCESS:          0  HIT:          0  MISS:          0
cpu0_L1I PREFETCH  ACCESS:          0  HIT:          0  MISS:          0
cpu0_L1I WRITEBACK ACCESS:          0  HIT:          0  MISS:          0
cpu0_STLB TOTAL     ACCESS:       8670  HIT:       8643  MISS:         27
cpu0_STLB LOAD      ACCESS:       8311  HIT:       8287  MISS:         24
cpu0_STLB RFO       ACCESS:        359  HIT:        356  MISS:          3
cpu0_STLB PREFETCH  ACCESS:          0  HIT:          0  MISS:          0
cpu0_STLB WRITEBACK ACCESS:          0  HIT:          0  MISS:          0
cpu0_L1D TOTAL     ACCESS:    5354171  HIT:    5303099  MISS:      51072
cpu0_L1D LOAD      ACCESS:    3109680  HIT:    3064743  MISS:      44937
cpu0_L1D RFO       ACCESS:    2244465  HIT:    2238346  MISS:       6119
cpu0_L1D PREFETCH  ACCESS:          0  HIT:          0  MISS:          0
cpu0_L1D WRITEBACK ACCESS:          0  HIT:          0  MISS:          0
cpu0_L2C TOTAL     ACCESS:      63395  HIT:      48433  MISS:      14962
cpu0_L2C LOAD      ACCESS:      45877  HIT:      32173  MISS:      13704
cpu0_L2C RFO       ACCESS:       6117  HIT:       5212  MISS:        905
cpu0_L2C PREFETCH  ACCESS:          0  HIT:          0  MISS:          0
cpu0_L2C WRITEBACK ACCESS:      11385  HIT:      11040  MISS:        345
LLC TOTAL     ACCESS:      17370  HIT:      16557  MISS:        813
LLC LOAD      ACCESS:      13704  HIT:      13040  MISS:        664
LLC RFO       ACCESS:        905  HIT:        756  MISS:        149
LLC PREFETCH  ACCESS:          0  HIT:          0  MISS:          0
LLC WRITEBACK ACCESS:       2753  HIT:       2753  MISS:          0
Heartbeat CPU 0 instructions: 72000000 cycles: 34405093 heartbeat IPC: 1.01022 cumulative IPC: 1.00667 (Simulation time: 0 hr 38 min 9 sec) 

Region of Interest Statistics
cpu0_DTLB TOTAL     ACCESS:    4302035  HIT:    4292478  MISS:       9557
cpu0_DTLB LOAD      ACCESS:    3006959  HIT:    2997805  MISS:       9154
cpu0_DTLB RFO       ACCESS:    1295076  HIT:    1294673  MISS:        403
cpu0_DTLB PREFETCH  ACCESS:          0  HIT:          0  MISS:          0
cpu0_DTLB WRITEBACK ACCESS:          0  HIT:          0  MISS:          0
cpu0_ITLB TOTAL     ACCESS:    2435524  HIT:    2435524  MISS:          0
cpu0_ITLB LOAD      ACCESS:    2435524  HIT:    2435524  MISS:          0
cpu0_ITLB RFO       ACCESS:          0  HIT:          0  MISS:          0
cpu0_ITLB PREFETCH  ACCESS:          0  HIT:          0  MISS:          0
cpu0_ITLB WRITEBACK ACCESS:          0  HIT:          0  MISS:          0
cpu0_L1I TOTAL     ACCESS:    1372707  HIT:    1371673  MISS:       1034
cpu0_L1I LOAD      ACCESS:    1372707  HIT:    1371673  MISS:       1034
cpu0_L1I RFO       ACCESS:          0  HIT:          0  MISS:          0
cpu0_L1I PREFETCH  ACCESS:          0  HIT:          0  MISS:          0
cpu0_L1I WRITEBACK ACCESS:          0  HIT:          0  MISS:          0
cpu0_STLB TOTAL     ACCESS:       9557  HIT:       9525  MISS:         32
cpu0_STLB LOAD      ACCESS:       9154  HIT:       9128  MISS:         26
cpu0_STLB RFO       ACCESS:        403  HIT:        397  MISS:          6
cpu0_STLB PREFETCH  ACCESS:          0  HIT:          0  MISS:          0
cpu0_STLB WRITEBACK ACCESS:          0  HIT:          0  MISS:          0
cpu0_L1D TOTAL     ACCESS:    5894025  HIT:    5838042  MISS:      55983
cpu0_L1D LOAD      ACCESS:    3422861  HIT:    3373738  MISS:      49123
cpu0_L1D RFO       ACCESS:    2471133  HIT:    2464291  MISS:       6842
cpu0_L1D PREFETCH  ACCESS:          0  HIT:          0  MISS:          0
cpu0_L1D WRITEBACK ACCESS:          0  HIT:          0  MISS:          0
cpu0_L2C TOTAL     ACCESS:      69496  HIT:      53373  MISS:      16123
cpu0_L2C LOAD      ACCESS:      50157  HIT:      35536  MISS:      14621
cpu0_L2C RFO       ACCESS:       6840  HIT:       5713  MISS:       1127
cpu0_L2C PREFETCH  ACCESS:          0  HIT:          0  MISS:          0
cpu0_L2C WRITEBACK ACCESS:      12481  HIT:      12116  MISS:        365
LLC TOTAL     ACCESS:      18690  HIT:      17722  MISS:        968
LLC LOAD      ACCESS:      14621  HIT:      13944  MISS:        677
LLC RFO       ACCESS:       1127  HIT:        836  MISS:        291
LLC PREFETCH  ACCESS:          0  HIT:          0  MISS:          0
LLC WRITEBACK ACCESS:       2932  HIT:       2932  MISS:          0
Heartbeat CPU 0 instructions: 74000000 cycles: 36383319 heartbeat IPC: 1.01101 cumulative IPC: 1.00703 (Simulation time: 0 hr 39 min 11 sec) 

Region of Interest Statistics
cpu0_DTLB TOTAL     ACCESS:    4689517  HIT:    4679022  MISS:      10495
cpu0_DTLB LOAD      ACCESS:    3278372  HIT:    3268321  MISS:      10051
cpu0_DTLB RFO       ACCESS:    1411145  HIT:    1410701  MISS:        444
cpu0_DTLB PREFETCH  ACCESS:          0  HIT:          0  MISS:          0
cpu0_DTLB WRITEBACK ACCESS:          0  HIT:          0  MISS:          0
cpu0_ITLB TOTAL     ACCESS:    2654781  HIT:    2654781  MISS:          0
cpu0_ITLB LOAD      ACCESS:    2654781  HIT:    2654781  MISS:          0
cpu0_ITLB RFO       ACCESS:          0  HIT:          0  MISS:          0
cpu0_ITLB PREFETCH  ACCESS:          0  HIT:          0  MISS:          0
cpu0_ITLB WRITEBACK ACCESS:          0  HIT:          0  MISS:          0
cpu0_L1I TOTAL     ACCESS:    1496322  HIT:    1495193  MISS:       1129
cpu0_L1I LOAD      ACCESS:    1496322  HIT:    1495193  MISS:       1129
cpu0_L1I RFO       ACCESS:          0  HIT:          0  MISS:          0
cpu0_L1I PREFETCH  ACCESS:          0  HIT:          0  MISS:          0
cpu0_L1I WRITEBACK ACCESS:          0  HIT:          0  MISS:          0
cpu0_STLB TOTAL     ACCESS:      10495  HIT:      10459  MISS:         36
cpu0_STLB LOAD      ACCESS:      10051  HIT:      10021  MISS:         30
cpu0_STLB RFO       ACCESS:        444  HIT:        438  MISS:          6
cpu0_STLB PREFETCH  ACCESS:          0  HIT:          0  MISS:          0
cpu0_STLB WRITEBACK ACCESS:          0  HIT:          0  MISS:          0
cpu0_L1D TOTAL     ACCESS:    6424095  HIT:    6362118  MISS:      61977
cpu0_L1D LOAD      ACCESS:    3732304  HIT:    3677896  MISS:      54408
cpu0_L1D RFO       ACCESS:    2691756  HIT:    2684209  MISS:       7547
cpu0_L1D PREFETCH  ACCESS:          0  HIT:          0  MISS:          0
cpu0_L1D WRITEBACK ACCESS:          0  HIT:          0  MISS:          0
cpu0_L2C TOTAL     ACCESS:      77052  HIT:      59651  MISS:      17401
cpu0_L2C LOAD      ACCESS:      55537  HIT:      39756  MISS:      15781
cpu0_L2C RFO       ACCESS:       7545  HIT:       6327  MISS:       1218
cpu0_L2C PREFETCH  ACCESS:          0  HIT:          0  MISS:          0
cpu0_L2C WRITEBACK ACCESS:      13948  HIT:      13557  MISS:        391
LLC TOTAL     ACCESS:      20152  HIT:      19141  MISS:       1011
LLC LOAD      ACCESS:      15781  HIT:      15088  MISS:        693
LLC RFO       ACCESS:       1218  HIT:        900  MISS:        318
LLC PREFETCH  ACCESS:          0  HIT:          0  MISS:          0
LLC WRITEBACK ACCESS:       3142  HIT:       3142  MISS:          0
Heartbeat CPU 0 instructions: 76000003 cycles: 38348913 heartbeat IPC: 1.01751 cumulative IPC: 1.00783 (Simulation time: 0 hr 40 min 11 sec) 

Region of Interest Statistics
cpu0_DTLB TOTAL     ACCESS:    5076809  HIT:    5065413  MISS:      11396
cpu0_DTLB LOAD      ACCESS:    3549300  HIT:    3538378  MISS:      10922
cpu0_DTLB RFO       ACCESS:    1527509  HIT:    1527035  MISS:        474
cpu0_DTLB PREFETCH  ACCESS:          0  HIT:          0  MISS:          0
cpu0_DTLB WRITEBACK ACCESS:          0  HIT:          0  MISS:          0
cpu0_ITLB TOTAL     ACCESS:    2874065  HIT:    2874065  MISS:          0
cpu0_ITLB LOAD      ACCESS:    2874065  HIT:    2874065  MISS:          0
cpu0_ITLB RFO       ACCESS:          0  HIT:          0  MISS:          0
cpu0_ITLB PREFETCH  ACCESS:          0  HIT:          0  MISS:          0
cpu0_ITLB WRITEBACK ACCESS:          0  HIT:          0  MISS:          0
cpu0_L1I TOTAL     ACCESS:    1619222  HIT:    1617998  MISS:       1224
cpu0_L1I LOAD      ACCESS:    1619222  HIT:    1617998  MISS:       1224
cpu0_L1I RFO       ACCESS:          0  HIT:          0  MISS:          0
cpu0_L1I PREFETCH  ACCESS:          0  HIT:          0  MISS:          0
cpu0_L1I WRITEBACK ACCESS:          0  HIT:          0  MISS:          0
cpu0_STLB TOTAL     ACCESS:      11396  HIT:      11357  MISS:         39
cpu0_STLB LOAD      ACCESS:      10922  HIT:      10889  MISS:         33
cpu0_STLB RFO       ACCESS:        474  HIT:        468  MISS:          6
cpu0_STLB PREFETCH  ACCESS:          0  HIT:          0  MISS:          0
cpu0_STLB WRITEBACK ACCESS:          0  HIT:          0  MISS:          0
cpu0_L1D TOTAL     ACCESS:    6953300  HIT:    6885400  MISS:      67900
cpu0_L1D LOAD      ACCESS:    4040523  HIT:    3980906  MISS:      59617
cpu0_L1D RFO       ACCESS:    2912739  HIT:    2904481  MISS:       8258
cpu0_L1D PREFETCH  ACCESS:          0  HIT:          0  MISS:          0
cpu0_L1D WRITEBACK ACCESS:          0  HIT:          0  MISS:          0
cpu0_L2C TOTAL     ACCESS:      84394  HIT:      65720  MISS:      18674
cpu0_L2C LOAD      ACCESS:      60841  HIT:      43913  MISS:      16928
cpu0_L2C RFO       ACCESS:       8256  HIT:       6944  MISS:       1312
cpu0_L2C PREFETCH  ACCESS:          0  HIT:          0  MISS:          0
cpu0_L2C WRITEBACK ACCESS:      15272  HIT:      14851  MISS:        421
LLC TOTAL     ACCESS:      21611  HIT:      20582  MISS:       1029
LLC LOAD      ACCESS:      16928  HIT:      16217  MISS:        711
LLC RFO       ACCESS:       1310  HIT:        992  MISS:        318
LLC PREFETCH  ACCESS:          0  HIT:          0  MISS:          0
LLC WRITEBACK ACCESS:       3360  HIT:       3360  MISS:          0
Heartbeat CPU 0 instructions: 78000000 cycles: 40304904 heartbeat IPC: 1.0225 cumulative IPC: 1.00886 (Simulation time: 0 hr 41 min 13 sec) 

Region of Interest Statistics
cpu0_DTLB TOTAL     ACCESS:    5462548  HIT:    5450311  MISS:      12237
cpu0_DTLB LOAD      ACCESS:    3818515  HIT:    3806786  MISS:      11729
cpu0_DTLB RFO       ACCESS:    1644033  HIT:    1643525  MISS:        508
cpu0_DTLB PREFETCH  ACCESS:          0  HIT:          0  MISS:          0
cpu0_DTLB WRITEBACK ACCESS:          0  HIT:          0  MISS:          0
cpu0_ITLB TOTAL     ACCESS:    3093056  HIT:    3093056  MISS:          0
cpu0_ITLB LOAD      ACCESS:    3093056  HIT:    3093056  MISS:          0
cpu0_ITLB RFO       ACCESS:          0  HIT:          0  MISS:          0
cpu0_ITLB PREFETCH  ACCESS:          0  HIT:          0  MISS:          0
cpu0_ITLB WRITEBACK ACCESS:          0  HIT:          0  MISS:          0
cpu0_L1I TOTAL     ACCESS:    1742414  HIT:    1741095  MISS:       1319
cpu0_L1I LOAD      ACCESS:    1742414  HIT:    1741095  MISS:       1319
cpu0_L1I RFO       ACCESS:          0  HIT:          0  MISS:          0
cpu0_L1I PREFETCH  ACCESS:          0  HIT:          0  MISS:          0
cpu0_L1I WRITEBACK ACCESS:          0  HIT:          0  MISS:          0
cpu0_STLB TOTAL     ACCESS:      12237  HIT:      12196  MISS:         41
cpu0_STLB LOAD      ACCESS:      11729  HIT:      11694  MISS:         35
cpu0_STLB RFO       ACCESS:        508  HIT:        502  MISS:          6
cpu0_STLB PREFETCH  ACCESS:          0  HIT:          0  MISS:          0
cpu0_STLB WRITEBACK ACCESS:          0  HIT:          0  MISS:          0
cpu0_L1D TOTAL     ACCESS:    7482199  HIT:    7408289  MISS:      73910
cpu0_L1D LOAD      ACCESS:    4347190  HIT:    4282272  MISS:      64918
cpu0_L1D RFO       ACCESS:    3134969  HIT:    3126004  MISS:       8965
cpu0_L1D PREFETCH  ACCESS:          0  HIT:          0  MISS:          0
cpu0_L1D WRITEBACK ACCESS:          0  HIT:          0  MISS:          0
cpu0_L2C TOTAL     ACCESS:      91831  HIT:      71920  MISS:      19911
cpu0_L2C LOAD      ACCESS:      66237  HIT:      48169  MISS:      18068
cpu0_L2C RFO       ACCESS:       8963  HIT:       7570  MISS:       1393
cpu0_L2C PREFETCH  ACCESS:          0  HIT:          0  MISS:          0
cpu0_L2C WRITEBACK ACCESS:      16604  HIT:      16168  MISS:        436
LLC TOTAL     ACCESS:      23024  HIT:      21980  MISS:       1044
LLC LOAD      ACCESS:      18068  HIT:      17342  MISS:        726
LLC RFO       ACCESS:       1390  HIT:       1072  MISS:        318
LLC PREFETCH  ACCESS:          0  HIT:          0  MISS:          0
LLC WRITEBACK ACCESS:       3552  HIT:       3552  MISS:          0
Heartbeat CPU 0 instructions: 80000000 cycles: 42284846 heartbeat IPC: 1.01013 cumulative IPC: 1.00894 (Simulation time: 0 hr 42 min 11 sec) 

Region of Interest Statistics
cpu0_DTLB TOTAL     ACCESS:    5846802  HIT:    5833669  MISS:      13133
cpu0_DTLB LOAD      ACCESS:    4086627  HIT:    4074036  MISS:      12591
cpu0_DTLB RFO       ACCESS:    1760175  HIT:    1759633  MISS:        542
cpu0_DTLB PREFETCH  ACCESS:          0  HIT:          0  MISS:          0
cpu0_DTLB WRITEBACK ACCESS:          0  HIT:          0  MISS:          0
cpu0_ITLB TOTAL     ACCESS:    3311560  HIT:    3311560  MISS:          0
cpu0_ITLB LOAD      ACCESS:    3311560  HIT:    3311560  MISS:          0
cpu0_ITLB RFO       ACCESS:          0  HIT:          0  MISS:          0
cpu0_ITLB PREFETCH  ACCESS:          0  HIT:          0  MISS:          0
cpu0_ITLB WRITEBACK ACCESS:          0  HIT:          0  MISS:          0
cpu0_L1I TOTAL     ACCESS:    1867926  HIT:    1866513  MISS:       1413
cpu0_L1I LOAD      ACCESS:    1867926  HIT:    1866513  MISS:       1413
cpu0_L1I RFO       ACCESS:          0  HIT:          0  MISS:          0
cpu0_L1I PREFETCH  ACCESS:          0  HIT:          0  MISS:          0
cpu0_L1I WRITEBACK ACCESS:          0  HIT:          0  MISS:          0
cpu0_STLB TOTAL     ACCESS:      13133  HIT:      13088  MISS:         45
cpu0_STLB LOAD      ACCESS:      12591  HIT:      12552  MISS:         39
cpu0_STLB RFO       ACCESS:        542  HIT:        536  MISS:          6
cpu0_STLB PREFETCH  ACCESS:          0  HIT:          0  MISS:          0
cpu0_STLB WRITEBACK ACCESS:          0  HIT:          0  MISS:          0
cpu0_L1D TOTAL     ACCESS:    8009288  HIT:    7929374  MISS:      79914
cpu0_L1D LOAD      ACCESS:    4652275  HIT:    4582066  MISS:      70209
cpu0_L1D RFO       ACCESS:    3356969  HIT:    3347294  MISS:       9675
cpu0_L1D PREFETCH  ACCESS:          0  HIT:          0  MISS:          0
cpu0_L1D WRITEBACK ACCESS:          0  HIT:          0  MISS:          0
cpu0_L2C TOTAL     ACCESS:      99257  HIT:      78083  MISS:      21174
cpu0_L2C LOAD      ACCESS:      71622  HIT:      52389  MISS:      19233
cpu0_L2C RFO       ACCESS:       9673  HIT:       8206  MISS:       1467
cpu0_L2C PREFETCH  ACCESS:          0  HIT:          0  MISS:          0
cpu0_L2C WRITEBACK ACCESS:      17932  HIT:      17475  MISS:        457
LLC TOTAL     ACCESS:      24450  HIT:      23388  MISS:       1062
LLC LOAD      ACCESS:      19233  HIT:      18489  MISS:        744
LLC RFO       ACCESS:       1464  HIT:       1146  MISS:        318
LLC PREFETCH  ACCESS:          0  HIT:          0  MISS:          0
LLC WRITEBACK ACCESS:       3736  HIT:       3736  MISS:          0
Heartbeat CPU 0 instructions: 82000002 cycles: 44280053 heartbeat IPC: 1.0024 cumulative IPC: 1.00853 (Simulation time: 0 hr 43 min 11 sec) 

Region of Interest Statistics
cpu0_DTLB TOTAL     ACCESS:    6232899  HIT:    6218868  MISS:      14031
cpu0_DTLB LOAD      ACCESS:    4355350  HIT:    4341894  MISS:      13456
cpu0_DTLB RFO       ACCESS:    1877549  HIT:    1876974  MISS:        575
cpu0_DTLB PREFETCH  ACCESS:          0  HIT:          0  MISS:          0
cpu0_DTLB WRITEBACK ACCESS:          0  HIT:          0  MISS:          0
cpu0_ITLB TOTAL     ACCESS:    3530978  HIT:    3530978  MISS:          0
cpu0_ITLB LOAD      ACCESS:    3530978  HIT:    3530978  MISS:          0
cpu0_ITLB RFO       ACCESS:          0  HIT:          0  MISS:          0
cpu0_ITLB PREFETCH  ACCESS:          0  HIT:          0  MISS:          0
cpu0_ITLB WRITEBACK ACCESS:          0  HIT:          0  MISS:          0
cpu0_L1I TOTAL     ACCESS:    1991534  HIT:    1990024  MISS:       1510
cpu0_L1I LOAD      ACCESS:    1991534  HIT:    1990024  MISS:       1510
cpu0_L1I RFO       ACCESS:          0  HIT:          0  MISS:          0
cpu0_L1I PREFETCH  ACCESS:          0  HIT:          0  MISS:          0
cpu0_L1I WRITEBACK ACCESS:          0  HIT:          0  MISS:          0
cpu0_STLB TOTAL     ACCESS:      14031  HIT:      13983  MISS:         48
cpu0_STLB LOAD      ACCESS:      13456  HIT:      13414  MISS:         42
cpu0_STLB RFO       ACCESS:        575  HIT:        569  MISS:          6
cpu0_STLB PREFETCH  ACCESS:          0  HIT:          0  MISS:          0
cpu0_STLB WRITEBACK ACCESS:          0  HIT:          0  MISS:          0
cpu0_L1D TOTAL     ACCESS:    8538710  HIT:    8452710  MISS:      86000
cpu0_L1D LOAD      ACCESS:    4957663  HIT:    4882084  MISS:      75579
cpu0_L1D RFO       ACCESS:    3581000  HIT:    3570612  MISS:      10388
cpu0_L1D PREFETCH  ACCESS:          0  HIT:          0  MISS:          0
cpu0_L1D WRITEBACK ACCESS:          0  HIT:          0  MISS:          0
cpu0_L2C TOTAL     ACCESS:     106778  HIT:      84297  MISS:      22481
cpu0_L2C LOAD      ACCESS:      77089  HIT:      56659  MISS:      20430
cpu0_L2C RFO       ACCESS:      10386  HIT:       8837  MISS:       1549
cpu0_L2C PREFETCH  ACCESS:          0  HIT:          0  MISS:          0
cpu0_L2C WRITEBACK ACCESS:      19270  HIT:      18787  MISS:        483
LLC TOTAL     ACCESS:      25939  HIT:      24860  MISS:       1079
LLC LOAD      ACCESS:      20430  HIT:      19670  MISS:        760
LLC RFO       ACCESS:       1546  HIT:       1227  MISS:        319
LLC PREFETCH  ACCESS:          0  HIT:          0  MISS:          0
LLC WRITEBACK ACCESS:       3944  HIT:       3944  MISS:          0
Heartbeat CPU 0 instructions: 84000000 cycles: 46280605 heartbeat IPC: 0.999723 cumulative IPC: 1.00801 (Simulation time: 0 hr 44 min 11 sec) 

Region of Interest Statistics
cpu0_DTLB TOTAL     ACCESS:    6624204  HIT:    6609198  MISS:      15006
cpu0_DTLB LOAD      ACCESS:    4628113  HIT:    4613719  MISS:      14394
cpu0_DTLB RFO       ACCESS:    1996091  HIT:    1995479  MISS:        612
cpu0_DTLB PREFETCH  ACCESS:          0  HIT:          0  MISS:          0
cpu0_DTLB WRITEBACK ACCESS:          0  HIT:          0  MISS:          0
cpu0_ITLB TOTAL     ACCESS:    3753583  HIT:    3753583  MISS:          0
cpu0_ITLB LOAD      ACCESS:    3753583  HIT:    3753583  MISS:          0
cpu0_ITLB RFO       ACCESS:          0  HIT:          0  MISS:          0
cpu0_ITLB PREFETCH  ACCESS:          0  HIT:          0  MISS:          0
cpu0_ITLB WRITEBACK ACCESS:          0  HIT:          0  MISS:          0
cpu0_L1I TOTAL     ACCESS:    2118070  HIT:    2116433  MISS:       1637
cpu0_L1I LOAD      ACCESS:    2118070  HIT:    2116433  MISS:       1637
cpu0_L1I RFO       ACCESS:          0  HIT:          0  MISS:          0
cpu0_L1I PREFETCH  ACCESS:          0  HIT:          0  MISS:          0
cpu0_L1I WRITEBACK ACCESS:          0  HIT:          0  MISS:          0
cpu0_STLB TOTAL     ACCESS:      15006  HIT:      14954  MISS:         52
cpu0_STLB LOAD      ACCESS:      14394  HIT:      14348  MISS:         46
cpu0_STLB RFO       ACCESS:        612  HIT:        606  MISS:          6
cpu0_STLB PREFETCH  ACCESS:          0  HIT:          0  MISS:          0
cpu0_STLB WRITEBACK ACCESS:          0  HIT:          0  MISS:          0
cpu0_L1D TOTAL     ACCESS:    9073313  HIT:    8981397  MISS:      91916
cpu0_L1D LOAD      ACCESS:    5268221  HIT:    5187484  MISS:      80737
cpu0_L1D RFO       ACCESS:    3805041  HIT:    3793899  MISS:      11142
cpu0_L1D PREFETCH  ACCESS:          0  HIT:          0  MISS:          0
cpu0_L1D WRITEBACK ACCESS:          0  HIT:          0  MISS:          0
cpu0_L2C TOTAL     ACCESS:     114115  HIT:      90402  MISS:      23713
cpu0_L2C LOAD      ACCESS:      82374  HIT:      60814  MISS:      21560
cpu0_L2C RFO       ACCESS:      11140  HIT:       9504  MISS:       1636
cpu0_L2C PREFETCH  ACCESS:          0  HIT:          0  MISS:          0
cpu0_L2C WRITEBACK ACCESS:      20564  HIT:      20067  MISS:        497
LLC TOTAL     ACCESS:      27396  HIT:      26304  MISS:       1092
LLC LOAD      ACCESS:      21560  HIT:      20787  MISS:        773
LLC RFO       ACCESS:       1632  HIT:       1313  MISS:        319
LLC PREFETCH  ACCESS:          0  HIT:          0  MISS:          0
LLC WRITEBACK ACCESS:       4184  HIT:       4184  MISS:          0
Heartbeat CPU 0 instructions: 86000000 cycles: 48269860 heartbeat IPC: 1.0054 cumulative IPC: 1.00787 (Simulation time: 0 hr 45 min 11 sec) 

Region of Interest Statistics
cpu0_DTLB TOTAL     ACCESS:    7021164  HIT:    7005411  MISS:      15753
cpu0_DTLB LOAD      ACCESS:    4904591  HIT:    4889469  MISS:      15122
cpu0_DTLB RFO       ACCESS:    2116573  HIT:    2115942  MISS:        631
cpu0_DTLB PREFETCH  ACCESS:          0  HIT:          0  MISS:          0
cpu0_DTLB WRITEBACK ACCESS:          0  HIT:          0  MISS:          0
cpu0_ITLB TOTAL     ACCESS:    3979015  HIT:    3979015  MISS:          0
cpu0_ITLB LOAD      ACCESS:    3979015  HIT:    3979015  MISS:          0
cpu0_ITLB RFO       ACCESS:          0  HIT:          0  MISS:          0
cpu0_ITLB PREFETCH  ACCESS:          0  HIT:          0  MISS:          0
cpu0_ITLB WRITEBACK ACCESS:          0  HIT:          0  MISS:          0
cpu0_L1I TOTAL     ACCESS:    2246388  HIT:    2244652  MISS:       1736
cpu0_L1I LOAD      ACCESS:    2246388  HIT:    2244652  MISS:       1736
cpu0_L1I RFO       ACCESS:          0  HIT:          0  MISS:          0
cpu0_L1I PREFETCH  ACCESS:          0  HIT:          0  MISS:          0
cpu0_L1I WRITEBACK ACCESS:          0  HIT:          0  MISS:          0
cpu0_STLB TOTAL     ACCESS:      15753  HIT:      15701  MISS:         52
cpu0_STLB LOAD      ACCESS:      15122  HIT:      15076  MISS:         46
cpu0_STLB RFO       ACCESS:        631  HIT:        625  MISS:          6
cpu0_STLB PREFETCH  ACCESS:          0  HIT:          0  MISS:          0
cpu0_STLB WRITEBACK ACCESS:          0  HIT:          0  MISS:          0
cpu0_L1D TOTAL     ACCESS:    9623395  HIT:    9528679  MISS:      94716
cpu0_L1D LOAD      ACCESS:    5582885  HIT:    5499618  MISS:      83267
cpu0_L1D RFO       ACCESS:    4040459  HIT:    4029047  MISS:      11412
cpu0_L1D PREFETCH  ACCESS:          0  HIT:          0  MISS:          0
cpu0_L1D WRITEBACK ACCESS:          0  HIT:          0  MISS:          0
cpu0_L2C TOTAL     ACCESS:     117510  HIT:      93275  MISS:      24235
cpu0_L2C LOAD      ACCESS:      85003  HIT:      62945  MISS:      22058
cpu0_L2C RFO       ACCESS:      11410  HIT:       9757  MISS:       1653
cpu0_L2C PREFETCH  ACCESS:          0  HIT:          0  MISS:          0
cpu0_L2C WRITEBACK ACCESS:      21060  HIT:      20556  MISS:        504
LLC TOTAL     ACCESS:      28025  HIT:      26919  MISS:       1106
LLC LOAD      ACCESS:      22058  HIT:      21271  MISS:        787
LLC RFO       ACCESS:       1648  HIT:       1329  MISS:        319
LLC PREFETCH  ACCESS:          0  HIT:          0  MISS:          0
LLC WRITEBACK ACCESS:       4299  HIT:       4299  MISS:          0
Heartbeat CPU 0 instructions: 88000004 cycles: 50252528 heartbeat IPC: 1.00874 cumulative IPC: 1.00791 (Simulation time: 0 hr 46 min 10 sec) 

Region of Interest Statistics
cpu0_DTLB TOTAL     ACCESS:    7420908  HIT:    7404425  MISS:      16483
cpu0_DTLB LOAD      ACCESS:    5185382  HIT:    5169551  MISS:      15831
cpu0_DTLB RFO       ACCESS:    2235526  HIT:    2234874  MISS:        652
cpu0_DTLB PREFETCH  ACCESS:          0  HIT:          0  MISS:          0
cpu0_DTLB WRITEBACK ACCESS:          0  HIT:          0  MISS:          0
cpu0_ITLB TOTAL     ACCESS:    4207071  HIT:    4207071  MISS:          0
cpu0_ITLB LOAD      ACCESS:    4207071  HIT:    4207071  MISS:          0
cpu0_ITLB RFO       ACCESS:          0  HIT:          0  MISS:          0
cpu0_ITLB PREFETCH  ACCESS:          0  HIT:          0  MISS:          0
cpu0_ITLB WRITEBACK ACCESS:          0  HIT:          0  MISS:          0
cpu0_L1I TOTAL     ACCESS:    2370494  HIT:    2368665  MISS:       1829
cpu0_L1I LOAD      ACCESS:    2370494  HIT:    2368665  MISS:       1829
cpu0_L1I RFO       ACCESS:          0  HIT:          0  MISS:          0
cpu0_L1I PREFETCH  ACCESS:          0  HIT:          0  MISS:          0
cpu0_L1I WRITEBACK ACCESS:          0  HIT:          0  MISS:          0
cpu0_STLB TOTAL     ACCESS:      16483  HIT:      16431  MISS:         52
cpu0_STLB LOAD      ACCESS:      15831  HIT:      15785  MISS:         46
cpu0_STLB RFO       ACCESS:        652  HIT:        646  MISS:          6
cpu0_STLB PREFETCH  ACCESS:          0  HIT:          0  MISS:          0
cpu0_STLB WRITEBACK ACCESS:          0  HIT:          0  MISS:          0
cpu0_L1D TOTAL     ACCESS:   10175332  HIT:   10077968  MISS:      97364
cpu0_L1D LOAD      ACCESS:    5903484  HIT:    5817820  MISS:      85664
cpu0_L1D RFO       ACCESS:    4271797  HIT:    4260134  MISS:      11663
cpu0_L1D PREFETCH  ACCESS:          0  HIT:          0  MISS:          0
cpu0_L1D WRITEBACK ACCESS:          0  HIT:          0  MISS:          0
cpu0_L2C TOTAL     ACCESS:     120741  HIT:      96076  MISS:      24665
cpu0_L2C LOAD      ACCESS:      87493  HIT:      65029  MISS:      22464
cpu0_L2C RFO       ACCESS:      11661  HIT:       9989  MISS:       1672
cpu0_L2C PREFETCH  ACCESS:          0  HIT:          0  MISS:          0
cpu0_L2C WRITEBACK ACCESS:      21550  HIT:      21041  MISS:        509
LLC TOTAL     ACCESS:      28520  HIT:      27405  MISS:       1115
LLC LOAD      ACCESS:      22464  HIT:      21668  MISS:        796
LLC RFO       ACCESS:       1667  HIT:       1348  MISS:        319
LLC PREFETCH  ACCESS:          0  HIT:          0  MISS:          0
LLC WRITEBACK ACCESS:       4369  HIT:       4369  MISS:          0
Heartbeat CPU 0 instructions: 90000004 cycles: 52279319 heartbeat IPC: 0.986782 cumulative IPC: 1.00683 (Simulation time: 0 hr 47 min 6 sec) 

Region of Interest Statistics
cpu0_DTLB TOTAL     ACCESS:    7821509  HIT:    7804264  MISS:      17245
cpu0_DTLB LOAD      ACCESS:    5466837  HIT:    5450268  MISS:      16569
cpu0_DTLB RFO       ACCESS:    2354672  HIT:    2353996  MISS:        676
cpu0_DTLB PREFETCH  ACCESS:          0  HIT:          0  MISS:          0
cpu0_DTLB WRITEBACK ACCESS:          0  HIT:          0  MISS:          0
cpu0_ITLB TOTAL     ACCESS:    4433956  HIT:    4433956  MISS:          0
cpu0_ITLB LOAD      ACCESS:    4433956  HIT:    4433956  MISS:          0
cpu0_ITLB RFO       ACCESS:          0  HIT:          0  MISS:          0
cpu0_ITLB PREFETCH  ACCESS:          0  HIT:          0  MISS:          0
cpu0_ITLB WRITEBACK ACCESS:          0  HIT:          0  MISS:          0
cpu0_L1I TOTAL     ACCESS:    2496222  HIT:    2494299  MISS:       1923
cpu0_L1I LOAD      ACCESS:    2496222  HIT:    2494299  MISS:       1923
cpu0_L1I RFO       ACCESS:          0  HIT:          0  MISS:          0
cpu0_L1I PREFETCH  ACCESS:          0  HIT:          0  MISS:          0
cpu0_L1I WRITEBACK ACCESS:          0  HIT:          0  MISS:          0
cpu0_STLB TOTAL     ACCESS:      17245  HIT:      17193  MISS:         52
cpu0_STLB LOAD      ACCESS:      16569  HIT:      16523  MISS:         46
cpu0_STLB RFO       ACCESS:        676  HIT:        670  MISS:          6
cpu0_STLB PREFETCH  ACCESS:          0  HIT:          0  MISS:          0
cpu0_STLB WRITEBACK ACCESS:          0  HIT:          0  MISS:          0
cpu0_L1D TOTAL     ACCESS:   10727384  HIT:   10627310  MISS:     100074
cpu0_L1D LOAD      ACCESS:    6224432  HIT:    6136313  MISS:      88119
cpu0_L1D RFO       ACCESS:    4502901  HIT:    4490983  MISS:      11918
cpu0_L1D PREFETCH  ACCESS:          0  HIT:          0  MISS:          0
cpu0_L1D WRITEBACK ACCESS:          0  HIT:          0  MISS:          0
cpu0_L2C TOTAL     ACCESS:     123995  HIT:      98870  MISS:      25125
cpu0_L2C LOAD      ACCESS:      90042  HIT:      67138  MISS:      22904
cpu0_L2C RFO       ACCESS:      11915  HIT:      10228  MISS:       1687
cpu0_L2C PREFETCH  ACCESS:          0  HIT:          0  MISS:          0
cpu0_L2C WRITEBACK ACCESS:      22001  HIT:      21487  MISS:        514
LLC TOTAL     ACCESS:      29046  HIT:      27915  MISS:       1131
LLC LOAD      ACCESS:      22904  HIT:      22092  MISS:        812
LLC RFO       ACCESS:       1682  HIT:       1363  MISS:        319
LLC PREFETCH  ACCESS:          0  HIT:          0  MISS:          0
LLC WRITEBACK ACCESS:       4440  HIT:       4440  MISS:          0
Heartbeat CPU 0 instructions: 92000001 cycles: 54318850 heartbeat IPC: 0.980616 cumulative IPC: 1.00555 (Simulation time: 0 hr 48 min 7 sec) 

Region of Interest Statistics
cpu0_DTLB TOTAL     ACCESS:    8218273  HIT:    8200162  MISS:      18111
cpu0_DTLB LOAD      ACCESS:    5742448  HIT:    5725057  MISS:      17391
cpu0_DTLB RFO       ACCESS:    2475825  HIT:    2475105  MISS:        720
cpu0_DTLB PREFETCH  ACCESS:          0  HIT:          0  MISS:          0
cpu0_DTLB WRITEBACK ACCESS:          0  HIT:          0  MISS:          0
cpu0_ITLB TOTAL     ACCESS:    4656589  HIT:    4656589  MISS:          0
cpu0_ITLB LOAD      ACCESS:    4656589  HIT:    4656589  MISS:          0
cpu0_ITLB RFO       ACCESS:          0  HIT:          0  MISS:          0
cpu0_ITLB PREFETCH  ACCESS:          0  HIT:          0  MISS:          0
cpu0_ITLB WRITEBACK ACCESS:          0  HIT:          0  MISS:          0
cpu0_L1I TOTAL     ACCESS:    2627644  HIT:    2625625  MISS:       2019
cpu0_L1I LOAD      ACCESS:    2627644  HIT:    2625625  MISS:       2019
cpu0_L1I RFO       ACCESS:          0  HIT:          0  MISS:          0
cpu0_L1I PREFETCH  ACCESS:          0  HIT:          0  MISS:          0
cpu0_L1I WRITEBACK ACCESS:          0  HIT:          0  MISS:          0
cpu0_STLB TOTAL     ACCESS:      18111  HIT:      18039  MISS:         72
cpu0_STLB LOAD      ACCESS:      17391  HIT:      17334  MISS:         57
cpu0_STLB RFO       ACCESS:        720  HIT:        705  MISS:         15
cpu0_STLB PREFETCH  ACCESS:          0  HIT:          0  MISS:          0
cpu0_STLB WRITEBACK ACCESS:          0  HIT:          0  MISS:          0
cpu0_L1D TOTAL     ACCESS:   11275524  HIT:   11171678  MISS:     103846
cpu0_L1D LOAD      ACCESS:    6538592  HIT:    6447299  MISS:      91293
cpu0_L1D RFO       ACCESS:    4736863  HIT:    4724353  MISS:      12510
cpu0_L1D PREFETCH  ACCESS:          0  HIT:          0  MISS:          0
cpu0_L1D WRITEBACK ACCESS:          0  HIT:          0  MISS:          0
cpu0_L2C TOTAL     ACCESS:     128827  HIT:     102496  MISS:      26331
cpu0_L2C LOAD      ACCESS:      93312  HIT:      69513  MISS:      23799
cpu0_L2C RFO       ACCESS:      12507  HIT:      10555  MISS:       1952
cpu0_L2C PREFETCH  ACCESS:          0  HIT:          0  MISS:          0
cpu0_L2C WRITEBACK ACCESS:      22965  HIT:      22409  MISS:        556
LLC TOTAL     ACCESS:      30462  HIT:      28910  MISS:       1552
LLC LOAD      ACCESS:      23799  HIT:      22783  MISS:       1016
LLC RFO       ACCESS:       1947  HIT:       1411  MISS:        536
LLC PREFETCH  ACCESS:          0  HIT:          0  MISS:          0
LLC WRITEBACK ACCESS:       4692  HIT:       4692  MISS:          0
Heartbeat CPU 0 instructions: 94000003 cycles: 56301884 heartbeat IPC: 1.00856 cumulative IPC: 1.00569 (Simulation time: 0 hr 49 min 6 sec) 

Region of Interest Statistics
cpu0_DTLB TOTAL     ACCESS:    8615085  HIT:    8596132  MISS:      18953
cpu0_DTLB LOAD      ACCESS:    6018826  HIT:    6000635  MISS:      18191
cpu0_DTLB RFO       ACCESS:    2596259  HIT:    2595497  MISS:        762
cpu0_DTLB PREFETCH  ACCESS:          0  HIT:          0  MISS:          0
cpu0_DTLB WRITEBACK ACCESS:          0  HIT:          0  MISS:          0
cpu0_ITLB TOTAL     ACCESS:    4880775  HIT:    4880775  MISS:          0
cpu0_ITLB LOAD      ACCESS:    4880775  HIT:    4880775  MISS:          0
cpu0_ITLB RFO       ACCESS:          0  HIT:          0  MISS:          0
cpu0_ITLB PREFETCH  ACCESS:          0  HIT:          0  MISS:          0
cpu0_ITLB WRITEBACK ACCESS:          0  HIT:          0  MISS:          0
cpu0_L1I TOTAL     ACCESS:    2756279  HIT:    2754165  MISS:       2114
cpu0_L1I LOAD      ACCESS:    2756279  HIT:    2754165  MISS:       2114
cpu0_L1I RFO       ACCESS:          0  HIT:          0  MISS:          0
cpu0_L1I PREFETCH  ACCESS:          0  HIT:          0  MISS:          0
cpu0_L1I WRITEBACK ACCESS:          0  HIT:          0  MISS:          0
cpu0_STLB TOTAL     ACCESS:      18953  HIT:      18879  MISS:         74
cpu0_STLB LOAD      ACCESS:      18191  HIT:      18132  MISS:         59
cpu0_STLB RFO       ACCESS:        762  HIT:        747  MISS:         15
cpu0_STLB PREFETCH  ACCESS:          0  HIT:          0  MISS:          0
cpu0_STLB WRITEBACK ACCESS:          0  HIT:          0  MISS:          0
cpu0_L1D TOTAL     ACCESS:   11822207  HIT:   11714400  MISS:     107807
cpu0_L1D LOAD      ACCESS:    6854118  HIT:    6759492  MISS:      94626
cpu0_L1D RFO       ACCESS:    4968018  HIT:    4954882  MISS:      13136
cpu0_L1D PREFETCH  ACCESS:          0  HIT:          0  MISS:          0
cpu0_L1D WRITEBACK ACCESS:          0  HIT:          0  MISS:          0
cpu0_L2C TOTAL     ACCESS:     133818  HIT:     106497  MISS:      27321
cpu0_L2C LOAD      ACCESS:      96740  HIT:      72169  MISS:      24571
cpu0_L2C RFO       ACCESS:      13133  HIT:      10990  MISS:       2143
cpu0_L2C PREFETCH  ACCESS:          0  HIT:          0  MISS:          0
cpu0_L2C WRITEBACK ACCESS:      23900  HIT:      23317  MISS:        583
LLC TOTAL     ACCESS:      31667  HIT:      29968  MISS:       1699
LLC LOAD      ACCESS:      24571  HIT:      23533  MISS:       1038
LLC RFO       ACCESS:       2138  HIT:       1477  MISS:        661
LLC PREFETCH  ACCESS:          0  HIT:          0  MISS:          0
LLC WRITEBACK ACCESS:       4934  HIT:       4934  MISS:          0
Heartbeat CPU 0 instructions: 96000003 cycles: 58296040 heartbeat IPC: 1.00293 cumulative IPC: 1.00557 (Simulation time: 0 hr 50 min 6 sec) 

Region of Interest Statistics
cpu0_DTLB TOTAL     ACCESS:    9002973  HIT:    8983096  MISS:      19877
cpu0_DTLB LOAD      ACCESS:    6290704  HIT:    6271631  MISS:      19073
cpu0_DTLB RFO       ACCESS:    2712269  HIT:    2711465  MISS:        804
cpu0_DTLB PREFETCH  ACCESS:          0  HIT:          0  MISS:          0
cpu0_DTLB WRITEBACK ACCESS:          0  HIT:          0  MISS:          0
cpu0_ITLB TOTAL     ACCESS:    5102060  HIT:    5102060  MISS:          0
cpu0_ITLB LOAD      ACCESS:    5102060  HIT:    5102060  MISS:          0
cpu0_ITLB RFO       ACCESS:          0  HIT:          0  MISS:          0
cpu0_ITLB PREFETCH  ACCESS:          0  HIT:          0  MISS:          0
cpu0_ITLB WRITEBACK ACCESS:          0  HIT:          0  MISS:          0
cpu0_L1I TOTAL     ACCESS:    2879481  HIT:    2877274  MISS:       2207
cpu0_L1I LOAD      ACCESS:    2879481  HIT:    2877274  MISS:       2207
cpu0_L1I RFO       ACCESS:          0  HIT:          0  MISS:          0
cpu0_L1I PREFETCH  ACCESS:          0  HIT:          0  MISS:          0
cpu0_L1I WRITEBACK ACCESS:          0  HIT:          0  MISS:          0
cpu0_STLB TOTAL     ACCESS:      19877  HIT:      19799  MISS:         78
cpu0_STLB LOAD      ACCESS:      19073  HIT:      19010  MISS:         63
cpu0_STLB RFO       ACCESS:        804  HIT:        789  MISS:         15
cpu0_STLB PREFETCH  ACCESS:          0  HIT:          0  MISS:          0
cpu0_STLB WRITEBACK ACCESS:          0  HIT:          0  MISS:          0
cpu0_L1D TOTAL     ACCESS:   12353389  HIT:   12239901  MISS:     113488
cpu0_L1D LOAD      ACCESS:    7163574  HIT:    7063873  MISS:      99701
cpu0_L1D RFO       ACCESS:    5189740  HIT:    5176001  MISS:      13739
cpu0_L1D PREFETCH  ACCESS:          0  HIT:          0  MISS:          0
cpu0_L1D WRITEBACK ACCESS:          0  HIT:          0  MISS:          0
cpu0_L2C TOTAL     ACCESS:     140968  HIT:     111919  MISS:      29049
cpu0_L2C LOAD      ACCESS:     101908  HIT:      75767  MISS:      26141
cpu0_L2C RFO       ACCESS:      13736  HIT:      11505  MISS:       2231
cpu0_L2C PREFETCH  ACCESS:          0  HIT:          0  MISS:          0
cpu0_L2C WRITEBACK ACCESS:      25276  HIT:      24625  MISS:        651
LLC TOTAL     ACCESS:      33756  HIT:      32041  MISS:       1715
LLC LOAD      ACCESS:      26141  HIT:      25088  MISS:       1053
LLC RFO       ACCESS:       2226  HIT:       1564  MISS:        662
LLC PREFETCH  ACCESS:          0  HIT:          0  MISS:          0
LLC WRITEBACK ACCESS:       5363  HIT:       5363  MISS:          0
Heartbeat CPU 0 instructions: 98000000 cycles: 60299101 heartbeat IPC: 0.99847 cumulative IPC: 1.00527 (Simulation time: 0 hr 51 min 5 sec) 

Region of Interest Statistics
cpu0_DTLB TOTAL     ACCESS:    9389239  HIT:    9368417  MISS:      20822
cpu0_DTLB LOAD      ACCESS:    6561491  HIT:    6541522  MISS:      19969
cpu0_DTLB RFO       ACCESS:    2827748  HIT:    2826895  MISS:        853
cpu0_DTLB PREFETCH  ACCESS:          0  HIT:          0  MISS:          0
cpu0_DTLB WRITEBACK ACCESS:          0  HIT:          0  MISS:          0
cpu0_ITLB TOTAL     ACCESS:    5322512  HIT:    5322512  MISS:          0
cpu0_ITLB LOAD      ACCESS:    5322512  HIT:    5322512  MISS:          0
cpu0_ITLB RFO       ACCESS:          0  HIT:          0  MISS:          0
cpu0_ITLB PREFETCH  ACCESS:          0  HIT:          0  MISS:          0
cpu0_ITLB WRITEBACK ACCESS:          0  HIT:          0  MISS:          0
cpu0_L1I TOTAL     ACCESS:    3004648  HIT:    3002351  MISS:       2297
cpu0_L1I LOAD      ACCESS:    3004648  HIT:    3002351  MISS:       2297
cpu0_L1I RFO       ACCESS:          0  HIT:          0  MISS:          0
cpu0_L1I PREFETCH  ACCESS:          0  HIT:          0  MISS:          0
cpu0_L1I WRITEBACK ACCESS:          0  HIT:          0  MISS:          0
cpu0_STLB TOTAL     ACCESS:      20822  HIT:      20743  MISS:         79
cpu0_STLB LOAD      ACCESS:      19969  HIT:      19905  MISS:         64
cpu0_STLB RFO       ACCESS:        853  HIT:        838  MISS:         15
cpu0_STLB PREFETCH  ACCESS:          0  HIT:          0  MISS:          0
cpu0_STLB WRITEBACK ACCESS:          0  HIT:          0  MISS:          0
cpu0_L1D TOTAL     ACCESS:   12881956  HIT:   12762512  MISS:     119444
cpu0_L1D LOAD      ACCESS:    7471915  HIT:    7366970  MISS:     104945
cpu0_L1D RFO       ACCESS:    5409965  HIT:    5395515  MISS:      14450
cpu0_L1D PREFETCH  ACCESS:          0  HIT:          0  MISS:          0
cpu0_L1D WRITEBACK ACCESS:          0  HIT:          0  MISS:          0
cpu0_L2C TOTAL     ACCESS:     148350  HIT:     118093  MISS:      30257
cpu0_L2C LOAD      ACCESS:     107242  HIT:      79973  MISS:      27269
cpu0_L2C RFO       ACCESS:      14447  HIT:      12151  MISS:       2296
cpu0_L2C PREFETCH  ACCESS:          0  HIT:          0  MISS:          0
cpu0_L2C WRITEBACK ACCESS:      26612  HIT:      25946  MISS:        666
LLC TOTAL     ACCESS:      35131  HIT:      33407  MISS:       1724
LLC LOAD      ACCESS:      27269  HIT:      26207  MISS:       1062
LLC RFO       ACCESS:       2291  HIT:       1629  MISS:        662
LLC PREFETCH  ACCESS:          0  HIT:          0  MISS:          0
LLC WRITEBACK ACCESS:       5545  HIT:       5545  MISS:          0
Heartbeat CPU 0 instructions: 100000002 cycles: 62286497 heartbeat IPC: 1.00634 cumulative IPC: 1.00531 (Simulation time: 0 hr 52 min 5 sec) 

Region of Interest Statistics
cpu0_DTLB TOTAL     ACCESS:    9775186  HIT:    9753438  MISS:      21748
cpu0_DTLB LOAD      ACCESS:    6830837  HIT:    6809982  MISS:      20855
cpu0_DTLB RFO       ACCESS:    2944349  HIT:    2943456  MISS:        893
cpu0_DTLB PREFETCH  ACCESS:          0  HIT:          0  MISS:          0
cpu0_DTLB WRITEBACK ACCESS:          0  HIT:          0  MISS:          0
cpu0_ITLB TOTAL     ACCESS:    5542296  HIT:    5542296  MISS:          0
cpu0_ITLB LOAD      ACCESS:    5542296  HIT:    5542296  MISS:          0
cpu0_ITLB RFO       ACCESS:          0  HIT:          0  MISS:          0
cpu0_ITLB PREFETCH  ACCESS:          0  HIT:          0  MISS:          0
cpu0_ITLB WRITEBACK ACCESS:          0  HIT:          0  MISS:          0
cpu0_L1I TOTAL     ACCESS:    3129071  HIT:    3126674  MISS:       2397
cpu0_L1I LOAD      ACCESS:    3129071  HIT:    3126674  MISS:       2397
cpu0_L1I RFO       ACCESS:          0  HIT:          0  MISS:          0
cpu0_L1I PREFETCH  ACCESS:          0  HIT:          0  MISS:          0
cpu0_L1I WRITEBACK ACCESS:          0  HIT:          0  MISS:          0
cpu0_STLB TOTAL     ACCESS:      21748  HIT:      21669  MISS:         79
cpu0_STLB LOAD      ACCESS:      20855  HIT:      20791  MISS:         64
cpu0_STLB RFO       ACCESS:        893  HIT:        878  MISS:         15
cpu0_STLB PREFETCH  ACCESS:          0  HIT:          0  MISS:          0
cpu0_STLB WRITEBACK ACCESS:          0  HIT:          0  MISS:          0
cpu0_L1D TOTAL     ACCESS:   13410679  HIT:   13285250  MISS:     125429
cpu0_L1D LOAD      ACCESS:    7778187  HIT:    7667966  MISS:     110221
cpu0_L1D RFO       ACCESS:    5632416  HIT:    5617257  MISS:      15159
cpu0_L1D PREFETCH  ACCESS:          0  HIT:          0  MISS:          0
cpu0_L1D WRITEBACK ACCESS:          0  HIT:          0  MISS:          0
cpu0_L2C TOTAL     ACCESS:     155760  HIT:     124282  MISS:      31478
cpu0_L2C LOAD      ACCESS:     112618  HIT:      84217  MISS:      28401
cpu0_L2C RFO       ACCESS:      15156  HIT:      12785  MISS:       2371
cpu0_L2C PREFETCH  ACCESS:          0  HIT:          0  MISS:          0
cpu0_L2C WRITEBACK ACCESS:      27937  HIT:      27257  MISS:        680
LLC TOTAL     ACCESS:      36531  HIT:      34802  MISS:       1729
LLC LOAD      ACCESS:      28401  HIT:      27334  MISS:       1067
LLC RFO       ACCESS:       2366  HIT:       1704  MISS:        662
LLC PREFETCH  ACCESS:          0  HIT:          0  MISS:          0
LLC WRITEBACK ACCESS:       5738  HIT:       5738  MISS:          0
Heartbeat CPU 0 instructions: 102000000 cycles: 64239555 heartbeat IPC: 1.02403 cumulative IPC: 1.00602 (Simulation time: 0 hr 53 min 3 sec) 

Region of Interest Statistics
cpu0_DTLB TOTAL     ACCESS:   10164088  HIT:   10141453  MISS:      22635
cpu0_DTLB LOAD      ACCESS:    7103026  HIT:    7081327  MISS:      21699
cpu0_DTLB RFO       ACCESS:    3061062  HIT:    3060126  MISS:        936
cpu0_DTLB PREFETCH  ACCESS:          0  HIT:          0  MISS:          0
cpu0_DTLB WRITEBACK ACCESS:          0  HIT:          0  MISS:          0
cpu0_ITLB TOTAL     ACCESS:    5764595  HIT:    5764595  MISS:          0
cpu0_ITLB LOAD      ACCESS:    5764595  HIT:    5764595  MISS:          0
cpu0_ITLB RFO       ACCESS:          0  HIT:          0  MISS:          0
cpu0_ITLB PREFETCH  ACCESS:          0  HIT:          0  MISS:          0
cpu0_ITLB WRITEBACK ACCESS:          0  HIT:          0  MISS:          0
cpu0_L1I TOTAL     ACCESS:    3249533  HIT:    3247039  MISS:       2494
cpu0_L1I LOAD      ACCESS:    3249533  HIT:    3247039  MISS:       2494
cpu0_L1I RFO       ACCESS:          0  HIT:          0  MISS:          0
cpu0_L1I PREFETCH  ACCESS:          0  HIT:          0  MISS:          0
cpu0_L1I WRITEBACK ACCESS:          0  HIT:          0  MISS:          0
cpu0_STLB TOTAL     ACCESS:      22635  HIT:      22553  MISS:         82
cpu0_STLB LOAD      ACCESS:      21699  HIT:      21632  MISS:         67
cpu0_STLB RFO       ACCESS:        936  HIT:        921  MISS:         15
cpu0_STLB PREFETCH  ACCESS:          0  HIT:          0  MISS:          0
cpu0_STLB WRITEBACK ACCESS:          0  HIT:          0  MISS:          0
cpu0_L1D TOTAL     ACCESS:   13939981  HIT:   13808567  MISS:     131414
cpu0_L1D LOAD      ACCESS:    8087364  HIT:    7971863  MISS:     115501
cpu0_L1D RFO       ACCESS:    5852538  HIT:    5836677  MISS:      15861
cpu0_L1D PREFETCH  ACCESS:          0  HIT:          0  MISS:          0
cpu0_L1D WRITEBACK ACCESS:          0  HIT:          0  MISS:          0
cpu0_L2C TOTAL     ACCESS:     163144  HIT:     130369  MISS:      32775
cpu0_L2C LOAD      ACCESS:     117995  HIT:      88403  MISS:      29592
cpu0_L2C RFO       ACCESS:      15858  HIT:      13406  MISS:       2452
cpu0_L2C PREFETCH  ACCESS:          0  HIT:          0  MISS:          0
cpu0_L2C WRITEBACK ACCESS:      29239  HIT:      28535  MISS:        704
LLC TOTAL     ACCESS:      38018  HIT:      36284  MISS:       1734
LLC LOAD      ACCESS:      29592  HIT:      28520  MISS:       1072
LLC RFO       ACCESS:       2447  HIT:       1785  MISS:        662
LLC PREFETCH  ACCESS:          0  HIT:          0  MISS:          0
LLC WRITEBACK ACCESS:       5952  HIT:       5952  MISS:          0
Heartbeat CPU 0 instructions: 104000004 cycles: 66235930 heartbeat IPC: 1.00182 cumulative IPC: 1.00587 (Simulation time: 0 hr 54 min 2 sec) 

Region of Interest Statistics
cpu0_DTLB TOTAL     ACCESS:   10556548  HIT:   10533107  MISS:      23441
cpu0_DTLB LOAD      ACCESS:    7377996  HIT:    7355527  MISS:      22469
cpu0_DTLB RFO       ACCESS:    3178552  HIT:    3177580  MISS:        972
cpu0_DTLB PREFETCH  ACCESS:          0  HIT:          0  MISS:          0
cpu0_DTLB WRITEBACK ACCESS:          0  HIT:          0  MISS:          0
cpu0_ITLB TOTAL     ACCESS:    5988409  HIT:    5988409  MISS:          0
cpu0_ITLB LOAD      ACCESS:    5988409  HIT:    5988409  MISS:          0
cpu0_ITLB RFO       ACCESS:          0  HIT:          0  MISS:          0
cpu0_ITLB PREFETCH  ACCESS:          0  HIT:          0  MISS:          0
cpu0_ITLB WRITEBACK ACCESS:          0  HIT:          0  MISS:          0
cpu0_L1I TOTAL     ACCESS:    3370836  HIT:    3368256  MISS:       2580
cpu0_L1I LOAD      ACCESS:    3370836  HIT:    3368256  MISS:       2580
cpu0_L1I RFO       ACCESS:          0  HIT:          0  MISS:          0
cpu0_L1I PREFETCH  ACCESS:          0  HIT:          0  MISS:          0
cpu0_L1I WRITEBACK ACCESS:          0  HIT:          0  MISS:          0
cpu0_STLB TOTAL     ACCESS:      23441  HIT:      23357  MISS:         84
cpu0_STLB LOAD      ACCESS:      22469  HIT:      22400  MISS:         69
cpu0_STLB RFO       ACCESS:        972  HIT:        957  MISS:         15
cpu0_STLB PREFETCH  ACCESS:          0  HIT:          0  MISS:          0
cpu0_STLB WRITEBACK ACCESS:          0  HIT:          0  MISS:          0
cpu0_L1D TOTAL     ACCESS:   14474984  HIT:   14338191  MISS:     136793
cpu0_L1D LOAD      ACCESS:    8400286  HIT:    8280063  MISS:     120223
cpu0_L1D RFO       ACCESS:    6074617  HIT:    6058101  MISS:      16516
cpu0_L1D PREFETCH  ACCESS:          0  HIT:          0  MISS:          0
cpu0_L1D WRITEBACK ACCESS:          0  HIT:          0  MISS:          0
cpu0_L2C TOTAL     ACCESS:     169753  HIT:     135728  MISS:      34025
cpu0_L2C LOAD      ACCESS:     122803  HIT:      92069  MISS:      30734
cpu0_L2C RFO       ACCESS:      16513  HIT:      13970  MISS:       2543
cpu0_L2C PREFETCH  ACCESS:          0  HIT:          0  MISS:          0
cpu0_L2C WRITEBACK ACCESS:      30383  HIT:      29663  MISS:        720
LLC TOTAL     ACCESS:      39447  HIT:      37704  MISS:       1743
LLC LOAD      ACCESS:      30734  HIT:      29653  MISS:       1081
LLC RFO       ACCESS:       2538  HIT:       1876  MISS:        662
LLC PREFETCH  ACCESS:          0  HIT:          0  MISS:          0
LLC WRITEBACK ACCESS:       6147  HIT:       6147  MISS:          0
Heartbeat CPU 0 instructions: 106000002 cycles: 68185564 heartbeat IPC: 1.02583 cumulative IPC: 1.00656 (Simulation time: 0 hr 55 min 1 sec) 

Region of Interest Statistics
cpu0_DTLB TOTAL     ACCESS:   10941169  HIT:   10916823  MISS:      24346
cpu0_DTLB LOAD      ACCESS:    7646849  HIT:    7623513  MISS:      23336
cpu0_DTLB RFO       ACCESS:    3294320  HIT:    3293310  MISS:       1010
cpu0_DTLB PREFETCH  ACCESS:          0  HIT:          0  MISS:          0
cpu0_DTLB WRITEBACK ACCESS:          0  HIT:          0  MISS:          0
cpu0_ITLB TOTAL     ACCESS:    6208672  HIT:    6208672  MISS:          0
cpu0_ITLB LOAD      ACCESS:    6208672  HIT:    6208672  MISS:          0
cpu0_ITLB RFO       ACCESS:          0  HIT:          0  MISS:          0
cpu0_ITLB PREFETCH  ACCESS:          0  HIT:          0  MISS:          0
cpu0_ITLB WRITEBACK ACCESS:          0  HIT:          0  MISS:          0
cpu0_L1I TOTAL     ACCESS:    3491545  HIT:    3488866  MISS:       2679
cpu0_L1I LOAD      ACCESS:    3491545  HIT:    3488866  MISS:       2679
cpu0_L1I RFO       ACCESS:          0  HIT:          0  MISS:          0
cpu0_L1I PREFETCH  ACCESS:          0  HIT:          0  MISS:          0
cpu0_L1I WRITEBACK ACCESS:          0  HIT:          0  MISS:          0
cpu0_STLB TOTAL     ACCESS:      24346  HIT:      24258  MISS:         88
cpu0_STLB LOAD      ACCESS:      23336  HIT:      23263  MISS:         73
cpu0_STLB RFO       ACCESS:       1010  HIT:        995  MISS:         15
cpu0_STLB PREFETCH  ACCESS:          0  HIT:          0  MISS:          0
cpu0_STLB WRITEBACK ACCESS:          0  HIT:          0  MISS:          0
cpu0_L1D TOTAL     ACCESS:   15000264  HIT:   14857071  MISS:     143193
cpu0_L1D LOAD      ACCESS:    8706049  HIT:    8580161  MISS:     125888
cpu0_L1D RFO       ACCESS:    6294130  HIT:    6276883  MISS:      17247
cpu0_L1D PREFETCH  ACCESS:          0  HIT:          0  MISS:          0
cpu0_L1D WRITEBACK ACCESS:          0  HIT:          0  MISS:          0
cpu0_L2C TOTAL     ACCESS:     177696  HIT:     142374  MISS:      35322
cpu0_L2C LOAD      ACCESS:     128567  HIT:      96637  MISS:      31930
cpu0_L2C RFO       ACCESS:      17244  HIT:      14618  MISS:       2626
cpu0_L2C PREFETCH  ACCESS:          0  HIT:          0  MISS:          0
cpu0_L2C WRITEBACK ACCESS:      31827  HIT:      31091  MISS:        736
[...]
cpu0_DTLB RFO       ACCESS:   92530155  HIT:   92491447  MISS:      38708
cpu0_DTLB PREFETCH  ACCESS:          0  HIT:          0  MISS:          0
cpu0_DTLB WRITEBACK ACCESS:          0  HIT:          0  MISS:          0
cpu0_DTLB TRANSLATION ACCESS:          0  HIT:          0  MISS:          0
cpu0_DTLB PREFETCH  REQUESTED:          0  ISSUED:          0  USEFUL:          0  USELESS:          0
cpu0_DTLB AVERAGE MISS LATENCY: 9.82135 cycles
cpu0_ITLB TOTAL     ACCESS:  167851407  HIT:  167851139  MISS:        268
cpu0_ITLB LOAD      ACCESS:  167851407  HIT:  167851139  MISS:        268
cpu0_ITLB RFO       ACCESS:          0  HIT:          0  MISS:          0
cpu0_ITLB PREFETCH  ACCESS:          0  HIT:          0  MISS:          0
cpu0_ITLB WRITEBACK ACCESS:          0  HIT:          0  MISS:          0
cpu0_ITLB TRANSLATION ACCESS:          0  HIT:          0  MISS:          0
cpu0_ITLB PREFETCH  REQUESTED:          0  ISSUED:          0  USEFUL:          0  USELESS:          0
cpu0_ITLB AVERAGE MISS LATENCY: 55.4142 cycles
cpu0_L1I TOTAL     ACCESS:   93196279  HIT:   93115389  MISS:      80890
cpu0_L1I LOAD      ACCESS:   93196279  HIT:   93115389  MISS:      80890
cpu0_L1I RFO       ACCESS:          0  HIT:          0  MISS:          0
cpu0_L1I PREFETCH  ACCESS:          0  HIT:          0  MISS:          0
cpu0_L1I WRITEBACK ACCESS:          0  HIT:          0  MISS:          0
cpu0_L1I TRANSLATION ACCESS:          0  HIT:          0  MISS:          0
cpu0_L1I PREFETCH  REQUESTED:          0  ISSUED:          0  USEFUL:          0  USELESS:          0
cpu0_L1I AVERAGE MISS LATENCY: 34.9771 cycles
cpu0_STLB TOTAL     ACCESS:     691117  HIT:     679950  MISS:      11167
cpu0_STLB LOAD      ACCESS:     652409  HIT:     645808  MISS:       6601
cpu0_STLB RFO       ACCESS:      38708  HIT:      34142  MISS:       4566
cpu0_STLB PREFETCH  ACCESS:          0  HIT:          0  MISS:          0
cpu0_STLB WRITEBACK ACCESS:          0  HIT:          0  MISS:          0
cpu0_STLB TRANSLATION ACCESS:          0  HIT:          0  MISS:          0
cpu0_STLB PREFETCH  REQUESTED:          0  ISSUED:          0  USEFUL:          0  USELESS:          0
cpu0_STLB AVERAGE MISS LATENCY: 51.8818 cycles
cpu0_L1D TOTAL     ACCESS:  410674663  HIT:  406013893  MISS:    4660770
cpu0_L1D LOAD      ACCESS:  238977423  HIT:  235351471  MISS:    3625952
cpu0_L1D RFO       ACCESS:  171686108  HIT:  170652589  MISS:    1033519
cpu0_L1D PREFETCH  ACCESS:          0  HIT:          0  MISS:          0
cpu0_L1D WRITEBACK ACCESS:          0  HIT:          0  MISS:          0
cpu0_L1D TRANSLATION ACCESS:      11132  HIT:       9833  MISS:       1299
cpu0_L1D PREFETCH  REQUESTED:          0  ISSUED:          0  USEFUL:          0  USELESS:          0
cpu0_L1D AVERAGE MISS LATENCY: 66.5659 cycles
cpu0_L2C TOTAL     ACCESS:    6167108  HIT:    4091653  MISS:    2075455
cpu0_L2C LOAD      ACCESS:    3706833  HIT:    2331025  MISS:    1375808
cpu0_L2C RFO       ACCESS:    1033453  HIT:     363179  MISS:     670274
cpu0_L2C PREFETCH  ACCESS:          0  HIT:          0  MISS:          0
cpu0_L2C WRITEBACK ACCESS:    1425523  HIT:    1396958  MISS:      28565
cpu0_L2C TRANSLATION ACCESS:       1299  HIT:        491  MISS:        808
cpu0_L2C PREFETCH  REQUESTED:          0  ISSUED:          0  USEFUL:          0  USELESS:          0
cpu0_L2C AVERAGE MISS LATENCY: 125.694 cycles
LLC TOTAL     ACCESS:    2846020  HIT:    1934475  MISS:     911545
LLC LOAD      ACCESS:    1375807  HIT:     919869  MISS:     455938
LLC RFO       ACCESS:     670220  HIT:     214774  MISS:     455446
LLC PREFETCH  ACCESS:          0  HIT:          0  MISS:          0
LLC WRITEBACK ACCESS:     799185  HIT:     799066  MISS:        119
LLC TRANSLATION ACCESS:        808  HIT:        766  MISS:         42
LLC PREFETCH  REQUESTED:          0  ISSUED:          0  USEFUL:          0  USELESS:          0
LLC AVERAGE MISS LATENCY: 239.031 cycles
~~~~~~~~~~Reuse Distance Profiler output~~~~~~~~~~
0	99514688	13271824
1	39812880	16020400
2	24171280	9953472
3	15300400	9205424
4	14847200	8627696
5	12121584	8588384
6	9796352	7173456
7	8823744	6799088
8	8514032	6251024
9	6557360	4594096
10	5508304	4095648
11	5243296	4162992
12	6797696	5312640
13	5830608	4540976
14	5658064	4545360
15	5855200	4286080
16	4772144	3905552
17	4865648	3617104
18	4424016	3421648
19	4024208	3138496
20	3218544	2738864
21	3072368	2574736
22	2817808	2319456
23	2540144	2155488
24	2510736	2146896
25	2667344	2064960
26	2297616	1930208
27	2150128	1735152
28	1923328	1606784
29	1676080	1432832
30	1607488	1386976
31	1981744	1355008
32	1712128	1381408
33	1663568	1391952
34	1564896	1301792
35	1380128	1159536
36	1271712	1087888
37	1118080	949168
38	1077728	895584
39	983472	851456
40	892352	799216
41	904336	793712
42	954240	885440
43	827536	775584
44	911568	866576
45	985344	942560
46	826688	792000
47	804704	775744
48	1059456	721232
49	724720	674384
50	746208	683792
51	707536	669184
52	698320	669920
53	708016	672784
54	720928	689472
55	726448	659248
56	759040	711728
57	704496	669136
58	718016	684400
59	741264	704880
60	706624	667712
61	708336	665760
62	693728	650016
63	782144	732624
64	1595872	1484720
66	1548048	1420656
68	1421296	1299136
70	1334784	1221136
72	1286592	1171472
74	1230704	1119824
76	1168432	1074688
78	1096432	1008576
80	1018896	934352
82	958352	879040
84	914928	840160
86	856224	792208
88	801952	743120
90	746400	690512
92	704400	648816
94	662976	601040
96	658272	596608
98	617488	563568
100	588272	538064
102	554960	508496
104	530688	483584
106	517200	470128
108	501776	455328
110	491104	446864
112	480448	438208
114	466032	426704
116	447072	409088
118	422480	386784
120	401392	367664
122	376640	344880
124	365008	335184
126	358304	329200
128	691120	634096
132	664560	608176
136	631312	580608
140	607152	562912
144	578032	536864
148	545424	504592
152	520928	482096
156	486848	449328
160	456272	418096
164	427600	388256
168	409024	368464
172	393312	353568
176	382032	342832
180	367904	330176
184	350304	315648
188	328480	297488
192	317760	290336
196	309120	283024
200	304256	279120
204	302736	278704
208	290160	267856
212	281760	260720
216	276336	256272
220	271472	251408
224	269424	248112
228	265664	242528
232	264560	241072
236	259680	234864
240	253472	228528
244	252864	226528
248	247568	221120
252	238064	213696
256	460896	415104
264	441168	398896
272	423584	381904
280	415840	373616
288	406848	359728
296	404816	355120
304	399360	349552
312	394816	345392
320	391360	345616
328	382016	338800
336	374800	330704
344	354048	308976
352	332880	288256
360	328736	284720
368	313776	271952
376	299040	260304
384	288368	249792
392	276976	241520
400	273216	238320
408	267168	229456
416	260256	224864
424	252416	216656
432	242992	207120
440	234288	200768
448	226960	195632
456	224976	194128
464	220352	190240
472	220160	189168
480	217552	187904
488	217792	187616
496	210896	182208
504	208464	181184
512	401472	346384
528	396544	343600
544	391072	338176
560	386032	333520
576	374560	324240
592	359072	308496
608	353376	305344
624	338432	291568
640	333696	292016
656	329776	288880
672	318016	277968
688	304640	268896
704	288016	254720
720	279376	247136
736	271328	240352
752	263920	235376
768	249488	222000
784	230944	207104
800	218352	196448
816	206768	187008
832	202080	182848
848	192016	174304
864	185232	168720
880	177008	161232
896	170880	155904
912	167376	154240
928	162384	148288
944	155904	142880
960	150912	138672
976	147296	135120
992	141632	128736
1008	137120	126160
1024	260224	239440
1056	251040	229808
1088	241424	220096
1120	234592	214480
1152	222320	202064
1184	218272	198656
1216	210784	190272
1248	205296	185568
1280	199280	180928
1312	189536	172656
1344	184720	168304
1376	180784	164048
1408	173552	157440
1440	169792	154672
1472	162624	148800
1504	156960	143248
1536	146896	134416
1568	141200	129504
1600	136032	124576
1632	129984	118720
1664	122960	113040
1696	122352	111520
1728	117920	106832
1760	115504	104496
1792	107248	97216
1824	105856	95824
1856	102384	92832
1888	102240	93008
1920	100512	90720
1952	105088	93968
1984	110704	96032
2016	107200	93856
2048	199984	176544
2112	184848	162464
2176	171856	150592
2240	158352	141088
2304	150560	133952
2368	149376	133984
2432	142320	125776
2496	145072	126048
2560	134688	117488
2624	127424	112160
2688	123136	108816
2752	124064	109616
2816	142560	129136
2880	162576	143632
2944	162256	144688
3008	158528	143472
3072	157040	141040
3136	149616	134288
3200	137776	124288
3264	131648	118080
3328	117168	95344
3392	83744	72160
3456	77904	65936
3520	71568	60800
3584	73136	58784
3648	74224	58560
3712	69952	55168
3776	69488	55248
3840	67440	53760
3904	64688	52368
3968	60720	49792
4032	59168	48784
4096	110896	92160
4224	108768	87392
4352	114656	93872
4480	144144	125056
4608	179920	163104
4736	175488	159888
4864	140384	121072
4992	87792	67056
5120	77280	58144
5248	70112	52480
5376	68304	51792
5504	63552	48176
5632	65024	49664
5760	95184	80304
5888	107952	94096
6016	111552	98448
6144	77760	64704
6272	53600	41792
6400	44864	32048
6528	47584	31600
6656	46208	30688
6784	45248	29568
6912	43712	30800
7040	50096	37904
7168	51216	39200
7296	40880	29312
7424	35536	24016
7552	33632	23536
7680	33296	23600
7808	32064	22272
7936	30464	20384
8064	28432	19712
8192	54144	37520
8448	49616	33120
8704	48656	33760
8960	44736	30208
9216	42736	28336
9472	40448	26640
9728	41408	27200
9984	35296	23808
10240	32896	22544
10496	31792	21696
10752	31248	20864
11008	29744	20368
11264	27600	18944
11520	27520	18496
11776	25136	16672
12032	25056	16464
12288	25168	17168
12544	23600	16160
12800	22336	15472
13056	20496	13888
13312	20816	14112
13568	19968	13072
13824	19280	13088
14080	18992	12720
14336	17616	12032
14592	17952	12000
14848	16704	11744
15104	16032	10736
15360	15184	10224
15616	14416	10128
15872	14144	9632
16128	13328	9472
16384	27456	19040
16896	25360	17888
17408	22496	15504
17920	21744	15216
18432	19616	13680
18944	20256	14960
19456	19760	13632
19968	18064	13648
20480	16880	12656
20992	16064	12176
21504	16096	11856
22016	15344	11296
22528	14800	11136
23040	12784	9744
23552	13552	10512
24064	13168	9520
24576	12320	8976
25088	11456	8720
25600	11008	8448
26112	11584	9104
26624	10496	7728
27136	9552	7264
27648	10768	8560
28160	9664	7696
28672	9504	7504
29184	8432	6416
29696	8800	6768
30208	8112	6384
30720	8208	6688
31232	7728	6160
31744	7952	6288
32256	7808	6144
32768	14432	11696
33792	13168	10880
34816	13424	10816
35840	11760	9408
36864	11680	9504
37888	10368	8912
38912	9984	8192
39936	10096	8384
40960	9392	8048
41984	9072	7648
43008	8048	6640
44032	8192	6944
45056	7568	6416
46080	6928	6112
47104	7104	6144
48128	7280	6112
49152	6576	5568
50176	6896	6080
51200	7104	6224
52224	6784	6000
53248	6272	5312
54272	5840	5072
55296	5568	4816
56320	5296	4880
57344	5568	4912
58368	4768	4208
59392	5536	4912
60416	5632	5120
61440	4368	4112
62464	4560	4080
63488	5152	4640
64512	4384	4064
65536	9776	8816
67584	9136	8400
69632	9488	8704
71680	9440	8768
73728	8352	7680
75776	9136	8592
77824	8368	7824
79872	8768	8240
81920	8880	8208
83968	8704	7952
86016	7856	7520
88064	8288	7760
90112	8528	8032
92160	8768	8160
94208	8480	8032
96256	9040	8640
98304	9648	9152
100352	9312	8800
102400	10112	9152
104448	10336	9696
106496	10480	10000
108544	10208	9536
110592	10128	9200
112640	11936	11152
114688	10208	9568
116736	12528	11728
118784	14688	13728
120832	14048	13008
122880	18832	17344
124928	17504	16128
126976	18288	16896
129024	19088	17280
131072	41552	37840
135168	53968	48592
139264	59552	53872
143360	78672	71088
147456	95232	83872
151552	110928	98800
155648	136000	120400
159744	141088	124544
163840	155984	138016
167936	170448	150128
172032	177696	155600
176128	155776	135168
180224	133840	118208
184320	126656	109728
188416	103744	90528
192512	91200	79600
196608	72256	62816
200704	59888	53248
204800	48064	41216
208896	36864	33024
212992	29936	26544
217088	28848	25712
221184	21136	18480
225280	19232	17120
229376	14432	13168
233472	10048	9184
237568	7808	7296
241664	7312	6688
245760	7584	6976
249856	7008	6256
253952	6256	6000
258048	5872	5600
262144	10016	9744
270336	11248	10448
278528	9520	8928
286720	10592	9840
294912	10816	10000
303104	11408	10416
311296	12528	11520
319488	26976	25712
327680	31536	30112
335872	35536	33408
344064	36912	34464
352256	35872	34048
360448	37584	35856
368640	43568	36832
376832	38608	30464
385024	40512	27920
393216	42352	28688
401408	41904	28272
409600	35840	22240
417792	30128	15792
425984	24304	8768
434176	19472	3888
442368	19536	3328
450560	21776	4480
458752	21376	4208
466944	16112	4336
475136	12896	4464
483328	7104	4224
491520	6368	5088
499712	5152	4864
507904	5648	5424
516096	5120	4832
524288	10880	9968
540672	8624	7968
557056	7840	7280
573440	5760	5232
589824	8304	5536
606208	8736	4144
622592	8864	5120
638976	10016	4944
655360	11696	5408
671744	11056	5344
688128	10032	5552
704512	5104	4624
720896	4800	4384
737280	4384	4160
753664	4064	3984
770048	3792	3744
786432	172704	97360
802816	205504	97264
819200	3920	3648
835584	3504	3440
851968	3232	3184
868352	3600	3520
884736	3648	3568
901120	3024	2912
917504	2448	2336
933888	2144	2000
950272	2400	2336
966656	2240	2064
983040	2608	2304
999424	2880	2816
1015808	64864	34048
1032192	2384	2208
1048576	5312	4768
1081344	4368	3920
1114112	4032	3584
1146880	3680	3040
1179648	4240	3184
1212416	4144	3296
1245184	3072	2832
1277952	2336	2032
1310720	3280	3216
1343488	2576	2544
1376256	2592	2576
1409024	2208	2192
1441792	2144	2112
1474560	1680	1664
1507328	1776	1776
1540096	2560	2528
1572864	2464	2432
1605632	2720	2384
1638400	1888	1872
1671168	2064	2064
1703936	1168	1152
1736704	1280	1232
1769472	1648	1616
1802240	1504	1440
1835008	1248	1232
1867776	1664	1616
1900544	1344	1312
1933312	1536	1520
1966080	1232	1200
1998848	1552	1536
2031616	928	928
2064384	1136	1136
2097152	2416	2384
2162688	3008	2976
2228224	2352	2336
2293760	2688	2640
2359296	2256	2112
2424832	2416	2368
2490368	2048	2048
2555904	2032	2000
2621440	2672	2656
2686976	2000	1936
2752512	2208	2208
2818048	2336	2336
2883584	1712	1696
2949120	1552	1536
3014656	1648	1616
3080192	1200	1200
3145728	1408	1360
3211264	1168	1168
3276800	912	896
3342336	1488	1472
3407872	1344	1344
3473408	1360	1344
3538944	1104	1104
3604480	848	800
3670016	640	624
3735552	1376	1344
3801088	816	816
3866624	976	960
3932160	1184	1184
3997696	736	736
4063232	1072	1072
4128768	784	768
4194304	2176	2176
4325376	1808	1808
4456448	1280	1280
4587520	1536	1536
4718592	1824	1648
4849664	1216	1216
4980736	1376	1216
5111808	2032	1808
5242880	1872	1856
5373952	800	768
5505024	1408	1344
5636096	1264	1056
5767168	1184	1136
5898240	976	976
6029312	1056	1024
6160384	816	816
6291456	528	528
6422528	688	688
6553600	640	608
6684672	640	624
6815744	432	432
6946816	592	592
7077888	432	416
7208960	496	480
7340032	544	544
7471104	544	544
7602176	624	624
7733248	1136	1136
7864320	560	544
7995392	624	592
8126464	656	608
8257536	656	656
8388608	1072	864
8650752	832	768
8912896	1328	1312
9175040	1040	928
9437184	1216	1152
9699328	688	656
9961472	1088	1040
10223616	1152	880
10485760	1120	896
10747904	2480	2448
11010048	6640	6608
11272192	4336	4160
11534336	624	576
11796480	624	608
12058624	576	480
12320768	1056	800
12582912	26816	848
12845056	1536	1408
13107200	31440	31392
13369344	880	720
13631488	208	208
13893632	528	464
14155776	384	224
14417920	352	336
14680064	512	512
14942208	160	160
15204352	368	352
15466496	752	736
15728640	176	160
15990784	448	432
16252928	224	224
16515072	272	256
16777216	1056	928
17301504	624	624
17825792	368	352
18350080	256	256
18874368	976	976
19398656	816	800
19922944	512	512
20447232	672	672
20971520	688	688
21495808	176	176
22020096	176	176
22544384	512	496
23068672	640	496
23592960	800	624
24117248	608	608
24641536	192	128
25165824	960	960
25690112	592	432
26214400	512	352
26738688	176	176
27262976	272	128
27787264	192	192
28311552	176	176
28835840	448	336
29360128	448	272
29884416	192	64
30408704	320	256
30932992	256	160
31457280	160	96
31981568	48	48
32505856	160	160
33030144	32	32
33554432	192	192
34603008	304	304
35651584	144	128
36700160	192	192
37748736	176	96
38797312	432	352
39845888	304	240
40894464	352	192
41943040	352	352
42991616	176	112
44040192	160	96
45088768	160	32
46137344	384	288
47185920	320	272
48234496	96	80
49283072	464	128
50331648	624	560
51380224	416	416
52428800	608	608
53477376	528	448
54525952	576	560
55574528	464	464
56623104	192	192
57671680	464	416
58720256	560	448
59768832	608	592
60817408	96	96
61865984	400	400
62914560	48	48
63963136	144	0
65011712	112	64
66060288	48	48
67108864	352	240
69206016	416	336
71303168	144	48
73400320	32	32
75497472	128	80
77594624	400	96
79691776	176	32
81788928	48	32
83886080	240	80
85983232	272	32
88080384	48	32
90177536	32	32
92274688	64	64
94371840	352	112
96468992	64	32
98566144	336	160
100663296	32	0
102760448	16	16
104857600	144	16
106954752	400	224
109051904	192	192
111149056	16	16
113246208	224	48
115343360	16	16
117440512	0	0
119537664	160	160
121634816	16	16
123731968	256	16
125829120	32	32
127926272	64	64
130023424	272	272
132120576	32	32
134217728	352	80
138412032	240	240
142606336	208	16
146800640	144	32
150994944	64	48
155189248	128	16
159383552	320	192
163577856	48	48
167772160	32	32
171966464	16	16
176160768	62832	31552
180355072	16	16
184549376	64	32
188743680	31728	64
192937984	16	16
197132288	0	0
201326592	16	16
205520896	0	0
209715200	32	32
213909504	0	0
218103808	16	16
222298112	144	144
226492416	16	0
230686720	0	0
234881024	0	0
239075328	0	0
243269632	0	0
247463936	0	0
251658240	16	16
255852544	0	0
260046848	0	0
264241152	0	0
268435456	0	0
276824064	0	0
285212672	0	0
293601280	208	208
301989888	0	0
310378496	16	16
318767104	48	48
327155712	0	0
335544320	0	0
343932928	32	32
352321536	16	16
360710144	16	16
369098752	16	16
377487360	16	16
385875968	0	0
394264576	0	0
402653184	0	0
411041792	0	0
419430400	0	0
427819008	0	0
436207616	0	0
444596224	0	0
452984832	0	0
461373440	0	0
469762048	0	0
478150656	0	0
486539264	0	0
494927872	0	0
503316480	0	0
511705088	0	0
520093696	0	0
528482304	0	0
536870912	0	0
553648128	0	0
570425344	0	0
587202560	0	0
603979776	0	0
620756992	0	0
637534208	0	0
654311424	0	0
671088640	0	0
687865856	0	0
704643072	0	0
721420288	0	0
738197504	0	0
754974720	0	0
771751936	0	0
788529152	0	0
805306368	0	0
822083584	0	0
838860800	0	0
855638016	0	0
872415232	0	0
889192448	0	0
905969664	0	0
922746880	0	0
939524096	0	0
956301312	0	0
973078528	0	0
989855744	0	0
1006632960	0	0
1023410176	0	0
1040187392	0	0
1056964608	0	0
1073741824	0	0
1107296256	0	0
1140850688	0	0
1174405120	0	0
1207959552	0	0
1241513984	0	0
1275068416	0	0
1308622848	0	0
1342177280	0	0
1375731712	0	0
1409286144	0	0
1442840576	0	0
1476395008	0	0
1509949440	0	0
1543503872	0	0
1577058304	0	0
1610612736	0	0
1644167168	0	0
1677721600	0	0
1711276032	0	0
1744830464	0	0
1778384896	0	0
1811939328	0	0
1845493760	0	0
1879048192	0	0
1912602624	0	0
1946157056	0	0
1979711488	0	0
2013265920	0	0
2046820352	0	0
2080374784	0	0
2113929216	0	0
2147483648	0	0
2214592512	0	0
2281701376	0	0
2348810240	0	0
2415919104	0	0
2483027968	0	0
2550136832	0	0
2617245696	0	0
2684354560	0	0
2751463424	0	0
2818572288	0	0
2885681152	0	0
2952790016	0	0
3019898880	0	0
3087007744	0	0
3154116608	0	0
3221225472	0	0
3288334336	0	0
3355443200	0	0
3422552064	0	0
3489660928	0	0
3556769792	0	0
3623878656	0	0
3690987520	0	0
3758096384	0	0
3825205248	0	0
3892314112	0	0
3959422976	0	0
4026531840	0	0
4093640704	0	0
4160749568	0	0
4227858432	0	0
~~~~~~~~~~Reuse Distance Profiler output end~~~~~~~~~~

Sampler size:7026

DRAM Statistics
 CHANNEL 0
 RQ ROW_BUFFER_HIT:      77518  ROW_BUFFER_MISS:     832991
 DBUS AVG_CONGESTED_CYCLE:    3.96653
 WQ ROW_BUFFER_HIT:      66977  ROW_BUFFER_MISS:     392957  FULL:          0


CPU 0 Branch Prediction Accuracy: 85.0513% MPKI: 25.1011 Average ROB Occupancy at Mispredict: 18.7686
Branch type MPKI
BRANCH_DIRECT_JUMP: 9.33333e-05
BRANCH_INDIRECT: 0.002658
BRANCH_CONDITIONAL: 25.0979
BRANCH_DIRECT_CALL: 0.000195333
BRANCH_INDIRECT_CALL: 7.86667e-05
BRANCH_RETURN: 0.00021

