
*** ChampSim Multicore Out-of-Order Simulator ***

Warmup Instructions: 50000000
Simulation Instructions: 1500000000
Number of CPUs: 1
Off-chip DRAM Size: 4 GiB Channels: 1 Width: 64-bit Data Rate: 3200 MT/s

VirtualMemory physical capacity: 8588881920 num_ppages: 2096895
VirtualMemory page size: 4096 log2_page_size: 12

CPU 0 runs /s/traces/champsim_traces/641.leela_s-800B.champsimtrace.xz
CPU 0 Bimodal branch predictor
Basic BTB sets: 1024 ways: 8 indirect buffer size: 4096 RAS size: 64
Initializing LRU.
Initializing LRU.
Initializing LRU.
Initializing LRU.
Initializing rdLRU.
Initializing LRU.
Initializing LRU.
Heartbeat CPU 0 instructions: 2000002 cycles: 502108 heartbeat IPC: 3.98321 cumulative IPC: 3.98321 (Simulation time: 0 hr 0 min 57 sec) 
Heartbeat CPU 0 instructions: 4000003 cycles: 1003439 heartbeat IPC: 3.98938 cumulative IPC: 3.98629 (Simulation time: 0 hr 1 min 51 sec) 
Heartbeat CPU 0 instructions: 6000002 cycles: 1505435 heartbeat IPC: 3.98409 cumulative IPC: 3.98556 (Simulation time: 0 hr 2 min 47 sec) 
Heartbeat CPU 0 instructions: 8000002 cycles: 2006766 heartbeat IPC: 3.98938 cumulative IPC: 3.98651 (Simulation time: 0 hr 3 min 41 sec) 
Heartbeat CPU 0 instructions: 10000002 cycles: 2508762 heartbeat IPC: 3.9841 cumulative IPC: 3.98603 (Simulation time: 0 hr 4 min 30 sec) 
Heartbeat CPU 0 instructions: 12000001 cycles: 3010758 heartbeat IPC: 3.98409 cumulative IPC: 3.98571 (Simulation time: 0 hr 5 min 28 sec) 
Heartbeat CPU 0 instructions: 14000001 cycles: 3512094 heartbeat IPC: 3.98934 cumulative IPC: 3.98623 (Simulation time: 0 hr 6 min 22 sec) 
Heartbeat CPU 0 instructions: 16000003 cycles: 4013426 heartbeat IPC: 3.98938 cumulative IPC: 3.98662 (Simulation time: 0 hr 7 min 19 sec) 
Heartbeat CPU 0 instructions: 18000000 cycles: 4515421 heartbeat IPC: 3.9841 cumulative IPC: 3.98634 (Simulation time: 0 hr 8 min 15 sec) 
Heartbeat CPU 0 instructions: 20000003 cycles: 5017418 heartbeat IPC: 3.98409 cumulative IPC: 3.98611 (Simulation time: 0 hr 9 min 16 sec) 
Heartbeat CPU 0 instructions: 22000003 cycles: 5518762 heartbeat IPC: 3.98928 cumulative IPC: 3.9864 (Simulation time: 0 hr 10 min 19 sec) 
Heartbeat CPU 0 instructions: 24000000 cycles: 6020092 heartbeat IPC: 3.98938 cumulative IPC: 3.98665 (Simulation time: 0 hr 11 min 24 sec) 
Heartbeat CPU 0 instructions: 26000001 cycles: 6522197 heartbeat IPC: 3.98323 cumulative IPC: 3.98639 (Simulation time: 0 hr 12 min 26 sec) 
Heartbeat CPU 0 instructions: 28000000 cycles: 7023528 heartbeat IPC: 3.98938 cumulative IPC: 3.9866 (Simulation time: 0 hr 13 min 29 sec) 
Heartbeat CPU 0 instructions: 30000001 cycles: 7524859 heartbeat IPC: 3.98938 cumulative IPC: 3.98679 (Simulation time: 0 hr 14 min 33 sec) 
Heartbeat CPU 0 instructions: 32000000 cycles: 8026855 heartbeat IPC: 3.98409 cumulative IPC: 3.98662 (Simulation time: 0 hr 15 min 36 sec) 
Heartbeat CPU 0 instructions: 34000002 cycles: 8528187 heartbeat IPC: 3.98938 cumulative IPC: 3.98678 (Simulation time: 0 hr 16 min 39 sec) 
Heartbeat CPU 0 instructions: 36000003 cycles: 9030183 heartbeat IPC: 3.9841 cumulative IPC: 3.98663 (Simulation time: 0 hr 17 min 41 sec) 
Heartbeat CPU 0 instructions: 38000003 cycles: 9532179 heartbeat IPC: 3.9841 cumulative IPC: 3.9865 (Simulation time: 0 hr 18 min 43 sec) 
Heartbeat CPU 0 instructions: 40000002 cycles: 10033509 heartbeat IPC: 3.98939 cumulative IPC: 3.98664 (Simulation time: 0 hr 19 min 46 sec) 
Heartbeat CPU 0 instructions: 42000002 cycles: 10535505 heartbeat IPC: 3.9841 cumulative IPC: 3.98652 (Simulation time: 0 hr 20 min 49 sec) 
Heartbeat CPU 0 instructions: 44000002 cycles: 11036835 heartbeat IPC: 3.98939 cumulative IPC: 3.98665 (Simulation time: 0 hr 21 min 47 sec) 
Heartbeat CPU 0 instructions: 46000002 cycles: 11538166 heartbeat IPC: 3.98938 cumulative IPC: 3.98677 (Simulation time: 0 hr 22 min 48 sec) 
Heartbeat CPU 0 instructions: 48000003 cycles: 12039497 heartbeat IPC: 3.98938 cumulative IPC: 3.98688 (Simulation time: 0 hr 23 min 51 sec) 
Heartbeat CPU 0 instructions: 50000002 cycles: 12541494 heartbeat IPC: 3.98409 cumulative IPC: 3.98677 (Simulation time: 0 hr 24 min 53 sec) 

Warmup complete CPU 0 instructions: 50000002 cycles: 12541494 (Simulation time: 0 hr 24 min 53 sec) 

Heartbeat CPU 0 instructions: 52000002 cycles: 14621018 heartbeat IPC: 0.961759 cumulative IPC: 0.961759 (Simulation time: 0 hr 25 min 57 sec) 

Region of Interest Statistics
cpu0_DTLB TOTAL     ACCESS:     386984  HIT:     386152  MISS:        832
cpu0_DTLB LOAD      ACCESS:     265330  HIT:     264529  MISS:        801
cpu0_DTLB RFO       ACCESS:     121654  HIT:     121623  MISS:         31
cpu0_DTLB PREFETCH  ACCESS:          0  HIT:          0  MISS:          0
cpu0_DTLB WRITEBACK ACCESS:          0  HIT:          0  MISS:          0
cpu0_ITLB TOTAL     ACCESS:     209809  HIT:     209809  MISS:          0
cpu0_ITLB LOAD      ACCESS:     209809  HIT:     209809  MISS:          0
cpu0_ITLB RFO       ACCESS:          0  HIT:          0  MISS:          0
cpu0_ITLB PREFETCH  ACCESS:          0  HIT:          0  MISS:          0
cpu0_ITLB WRITEBACK ACCESS:          0  HIT:          0  MISS:          0
cpu0_L1I TOTAL     ACCESS:     197903  HIT:     197826  MISS:         77
cpu0_L1I LOAD      ACCESS:     197903  HIT:     197826  MISS:         77
cpu0_L1I RFO       ACCESS:          0  HIT:          0  MISS:          0
cpu0_L1I PREFETCH  ACCESS:          0  HIT:          0  MISS:          0
cpu0_L1I WRITEBACK ACCESS:          0  HIT:          0  MISS:          0
cpu0_STLB TOTAL     ACCESS:        832  HIT:        825  MISS:          7
cpu0_STLB LOAD      ACCESS:        801  HIT:        798  MISS:          3
cpu0_STLB RFO       ACCESS:         31  HIT:         27  MISS:          4
cpu0_STLB PREFETCH  ACCESS:          0  HIT:          0  MISS:          0
cpu0_STLB WRITEBACK ACCESS:          0  HIT:          0  MISS:          0
cpu0_L1D TOTAL     ACCESS:     546068  HIT:     541751  MISS:       4317
cpu0_L1D LOAD      ACCESS:     313373  HIT:     309720  MISS:       3653
cpu0_L1D RFO       ACCESS:     232689  HIT:     232028  MISS:        661
cpu0_L1D PREFETCH  ACCESS:          0  HIT:          0  MISS:          0
cpu0_L1D WRITEBACK ACCESS:          0  HIT:          0  MISS:          0
cpu0_L2C TOTAL     ACCESS:       5380  HIT:       3878  MISS:       1502
cpu0_L2C LOAD      ACCESS:       3730  HIT:       2607  MISS:       1123
cpu0_L2C RFO       ACCESS:        661  HIT:        335  MISS:        326
cpu0_L2C PREFETCH  ACCESS:          0  HIT:          0  MISS:          0
cpu0_L2C WRITEBACK ACCESS:        986  HIT:        935  MISS:         51
LLC TOTAL     ACCESS:       1735  HIT:       1383  MISS:        352
LLC LOAD      ACCESS:       1123  HIT:       1035  MISS:         88
LLC RFO       ACCESS:        326  HIT:         62  MISS:        264
LLC PREFETCH  ACCESS:          0  HIT:          0  MISS:          0
LLC WRITEBACK ACCESS:        284  HIT:        284  MISS:          0
Heartbeat CPU 0 instructions: 54000004 cycles: 16690997 heartbeat IPC: 0.966194 cumulative IPC: 0.963971 (Simulation time: 0 hr 27 min 2 sec) 

Region of Interest Statistics
cpu0_DTLB TOTAL     ACCESS:     769760  HIT:     768139  MISS:       1621
cpu0_DTLB LOAD      ACCESS:     530269  HIT:     528697  MISS:       1572
cpu0_DTLB RFO       ACCESS:     239491  HIT:     239442  MISS:         49
cpu0_DTLB PREFETCH  ACCESS:          0  HIT:          0  MISS:          0
cpu0_DTLB WRITEBACK ACCESS:          0  HIT:          0  MISS:          0
cpu0_ITLB TOTAL     ACCESS:     417001  HIT:     417001  MISS:          0
cpu0_ITLB LOAD      ACCESS:     417001  HIT:     417001  MISS:          0
cpu0_ITLB RFO       ACCESS:          0  HIT:          0  MISS:          0
cpu0_ITLB PREFETCH  ACCESS:          0  HIT:          0  MISS:          0
cpu0_ITLB WRITEBACK ACCESS:          0  HIT:          0  MISS:          0
cpu0_L1I TOTAL     ACCESS:     395561  HIT:     395440  MISS:        121
cpu0_L1I LOAD      ACCESS:     395561  HIT:     395440  MISS:        121
cpu0_L1I RFO       ACCESS:          0  HIT:          0  MISS:          0
cpu0_L1I PREFETCH  ACCESS:          0  HIT:          0  MISS:          0
cpu0_L1I WRITEBACK ACCESS:          0  HIT:          0  MISS:          0
cpu0_STLB TOTAL     ACCESS:       1621  HIT:       1610  MISS:         11
cpu0_STLB LOAD      ACCESS:       1572  HIT:       1565  MISS:          7
cpu0_STLB RFO       ACCESS:         49  HIT:         45  MISS:          4
cpu0_STLB PREFETCH  ACCESS:          0  HIT:          0  MISS:          0
cpu0_STLB WRITEBACK ACCESS:          0  HIT:          0  MISS:          0
cpu0_L1D TOTAL     ACCESS:    1086770  HIT:    1078219  MISS:       8551
cpu0_L1D LOAD      ACCESS:     626516  HIT:     618987  MISS:       7529
cpu0_L1D RFO       ACCESS:     460244  HIT:     459229  MISS:       1015
cpu0_L1D PREFETCH  ACCESS:          0  HIT:          0  MISS:          0
cpu0_L1D WRITEBACK ACCESS:          0  HIT:          0  MISS:          0
cpu0_L2C TOTAL     ACCESS:      10398  HIT:       7753  MISS:       2645
cpu0_L2C LOAD      ACCESS:       7649  HIT:       5489  MISS:       2160
cpu0_L2C RFO       ACCESS:       1015  HIT:        632  MISS:        383
cpu0_L2C PREFETCH  ACCESS:          0  HIT:          0  MISS:          0
cpu0_L2C WRITEBACK ACCESS:       1727  HIT:       1628  MISS:         99
LLC TOTAL     ACCESS:       3029  HIT:       2648  MISS:        381
LLC LOAD      ACCESS:       2160  HIT:       2043  MISS:        117
LLC RFO       ACCESS:        383  HIT:        119  MISS:        264
LLC PREFETCH  ACCESS:          0  HIT:          0  MISS:          0
LLC WRITEBACK ACCESS:        483  HIT:        483  MISS:          0
Heartbeat CPU 0 instructions: 56000000 cycles: 18782967 heartbeat IPC: 0.956035 cumulative IPC: 0.961311 (Simulation time: 0 hr 28 min 6 sec) 

Region of Interest Statistics
cpu0_DTLB TOTAL     ACCESS:    1152318  HIT:    1149802  MISS:       2516
cpu0_DTLB LOAD      ACCESS:     794682  HIT:     792251  MISS:       2431
cpu0_DTLB RFO       ACCESS:     357636  HIT:     357551  MISS:         85
cpu0_DTLB PREFETCH  ACCESS:          0  HIT:          0  MISS:          0
cpu0_DTLB WRITEBACK ACCESS:          0  HIT:          0  MISS:          0
cpu0_ITLB TOTAL     ACCESS:     627582  HIT:     627582  MISS:          0
cpu0_ITLB LOAD      ACCESS:     627582  HIT:     627582  MISS:          0
cpu0_ITLB RFO       ACCESS:          0  HIT:          0  MISS:          0
cpu0_ITLB PREFETCH  ACCESS:          0  HIT:          0  MISS:          0
cpu0_ITLB WRITEBACK ACCESS:          0  HIT:          0  MISS:          0
cpu0_L1I TOTAL     ACCESS:     586622  HIT:     586451  MISS:        171
cpu0_L1I LOAD      ACCESS:     586622  HIT:     586451  MISS:        171
cpu0_L1I RFO       ACCESS:          0  HIT:          0  MISS:          0
cpu0_L1I PREFETCH  ACCESS:          0  HIT:          0  MISS:          0
cpu0_L1I WRITEBACK ACCESS:          0  HIT:          0  MISS:          0
cpu0_STLB TOTAL     ACCESS:       2516  HIT:       2502  MISS:         14
cpu0_STLB LOAD      ACCESS:       2431  HIT:       2421  MISS:         10
cpu0_STLB RFO       ACCESS:         85  HIT:         81  MISS:          4
cpu0_STLB PREFETCH  ACCESS:          0  HIT:          0  MISS:          0
cpu0_STLB WRITEBACK ACCESS:          0  HIT:          0  MISS:          0
cpu0_L1D TOTAL     ACCESS:    1627252  HIT:    1613977  MISS:      13275
cpu0_L1D LOAD      ACCESS:     940408  HIT:     928594  MISS:      11814
cpu0_L1D RFO       ACCESS:     686831  HIT:     685380  MISS:       1451
cpu0_L1D PREFETCH  ACCESS:          0  HIT:          0  MISS:          0
cpu0_L1D WRITEBACK ACCESS:          0  HIT:          0  MISS:          0
cpu0_L2C TOTAL     ACCESS:      16025  HIT:      12209  MISS:       3816
cpu0_L2C LOAD      ACCESS:      11984  HIT:       8783  MISS:       3201
cpu0_L2C RFO       ACCESS:       1451  HIT:        996  MISS:        455
cpu0_L2C PREFETCH  ACCESS:          0  HIT:          0  MISS:          0
cpu0_L2C WRITEBACK ACCESS:       2580  HIT:       2424  MISS:        156
LLC TOTAL     ACCESS:       4350  HIT:       3952  MISS:        398
LLC LOAD      ACCESS:       3201  HIT:       3067  MISS:        134
LLC RFO       ACCESS:        455  HIT:        191  MISS:        264
LLC PREFETCH  ACCESS:          0  HIT:          0  MISS:          0
LLC WRITEBACK ACCESS:        690  HIT:        690  MISS:          0
Heartbeat CPU 0 instructions: 58000000 cycles: 20857080 heartbeat IPC: 0.964268 cumulative IPC: 0.962049 (Simulation time: 0 hr 29 min 8 sec) 

Region of Interest Statistics
cpu0_DTLB TOTAL     ACCESS:    1538745  HIT:    1535504  MISS:       3241
cpu0_DTLB LOAD      ACCESS:    1061676  HIT:    1058537  MISS:       3139
cpu0_DTLB RFO       ACCESS:     477069  HIT:     476967  MISS:        102
cpu0_DTLB PREFETCH  ACCESS:          0  HIT:          0  MISS:          0
cpu0_DTLB WRITEBACK ACCESS:          0  HIT:          0  MISS:          0
cpu0_ITLB TOTAL     ACCESS:     838902  HIT:     838902  MISS:          0
cpu0_ITLB LOAD      ACCESS:     838902  HIT:     838902  MISS:          0
cpu0_ITLB RFO       ACCESS:          0  HIT:          0  MISS:          0
cpu0_ITLB PREFETCH  ACCESS:          0  HIT:          0  MISS:          0
cpu0_ITLB WRITEBACK ACCESS:          0  HIT:          0  MISS:          0
cpu0_L1I TOTAL     ACCESS:     785831  HIT:     785622  MISS:        209
cpu0_L1I LOAD      ACCESS:     785831  HIT:     785622  MISS:        209
cpu0_L1I RFO       ACCESS:          0  HIT:          0  MISS:          0
cpu0_L1I PREFETCH  ACCESS:          0  HIT:          0  MISS:          0
cpu0_L1I WRITEBACK ACCESS:          0  HIT:          0  MISS:          0
cpu0_STLB TOTAL     ACCESS:       3241  HIT:       3223  MISS:         18
cpu0_STLB LOAD      ACCESS:       3139  HIT:       3125  MISS:         14
cpu0_STLB RFO       ACCESS:        102  HIT:         98  MISS:          4
cpu0_STLB PREFETCH  ACCESS:          0  HIT:          0  MISS:          0
cpu0_STLB WRITEBACK ACCESS:          0  HIT:          0  MISS:          0
cpu0_L1D TOTAL     ACCESS:    2176287  HIT:    2159785  MISS:      16502
cpu0_L1D LOAD      ACCESS:    1257275  HIT:    1242476  MISS:      14799
cpu0_L1D RFO       ACCESS:     918995  HIT:     917304  MISS:       1691
cpu0_L1D PREFETCH  ACCESS:          0  HIT:          0  MISS:          0
cpu0_L1D WRITEBACK ACCESS:          0  HIT:          0  MISS:          0
cpu0_L2C TOTAL     ACCESS:      19792  HIT:      14865  MISS:       4927
cpu0_L2C LOAD      ACCESS:      15007  HIT:      10780  MISS:       4227
cpu0_L2C RFO       ACCESS:       1691  HIT:       1188  MISS:        503
cpu0_L2C PREFETCH  ACCESS:          0  HIT:          0  MISS:          0
cpu0_L2C WRITEBACK ACCESS:       3082  HIT:       2889  MISS:        193
LLC TOTAL     ACCESS:       5650  HIT:       5230  MISS:        420
LLC LOAD      ACCESS:       4227  HIT:       4071  MISS:        156
LLC RFO       ACCESS:        503  HIT:        239  MISS:        264
LLC PREFETCH  ACCESS:          0  HIT:          0  MISS:          0
LLC WRITEBACK ACCESS:        916  HIT:        916  MISS:          0
Heartbeat CPU 0 instructions: 60000000 cycles: 22952007 heartbeat IPC: 0.954687 cumulative IPC: 0.960567 (Simulation time: 0 hr 30 min 9 sec) 

Region of Interest Statistics
cpu0_DTLB TOTAL     ACCESS:    1926738  HIT:    1922694  MISS:       4044
cpu0_DTLB LOAD      ACCESS:    1332086  HIT:    1328171  MISS:       3915
cpu0_DTLB RFO       ACCESS:     594652  HIT:     594523  MISS:        129
cpu0_DTLB PREFETCH  ACCESS:          0  HIT:          0  MISS:          0
cpu0_DTLB WRITEBACK ACCESS:          0  HIT:          0  MISS:          0
cpu0_ITLB TOTAL     ACCESS:    1054117  HIT:    1054117  MISS:          0
cpu0_ITLB LOAD      ACCESS:    1054117  HIT:    1054117  MISS:          0
cpu0_ITLB RFO       ACCESS:          0  HIT:          0  MISS:          0
cpu0_ITLB PREFETCH  ACCESS:          0  HIT:          0  MISS:          0
cpu0_ITLB WRITEBACK ACCESS:          0  HIT:          0  MISS:          0
cpu0_L1I TOTAL     ACCESS:     975771  HIT:     975536  MISS:        235
cpu0_L1I LOAD      ACCESS:     975771  HIT:     975536  MISS:        235
cpu0_L1I RFO       ACCESS:          0  HIT:          0  MISS:          0
cpu0_L1I PREFETCH  ACCESS:          0  HIT:          0  MISS:          0
cpu0_L1I WRITEBACK ACCESS:          0  HIT:          0  MISS:          0
cpu0_STLB TOTAL     ACCESS:       4044  HIT:       4025  MISS:         19
cpu0_STLB LOAD      ACCESS:       3915  HIT:       3900  MISS:         15
cpu0_STLB RFO       ACCESS:        129  HIT:        125  MISS:          4
cpu0_STLB PREFETCH  ACCESS:          0  HIT:          0  MISS:          0
cpu0_STLB WRITEBACK ACCESS:          0  HIT:          0  MISS:          0
cpu0_L1D TOTAL     ACCESS:    2724123  HIT:    2704033  MISS:      20090
cpu0_L1D LOAD      ACCESS:    1578008  HIT:    1559915  MISS:      18093
cpu0_L1D RFO       ACCESS:    1146097  HIT:    1144113  MISS:       1984
cpu0_L1D PREFETCH  ACCESS:          0  HIT:          0  MISS:          0
cpu0_L1D WRITEBACK ACCESS:          0  HIT:          0  MISS:          0
cpu0_L2C TOTAL     ACCESS:      23983  HIT:      18047  MISS:       5936
cpu0_L2C LOAD      ACCESS:      18327  HIT:      13183  MISS:       5144
cpu0_L2C RFO       ACCESS:       1984  HIT:       1429  MISS:        555
cpu0_L2C PREFETCH  ACCESS:          0  HIT:          0  MISS:          0
cpu0_L2C WRITEBACK ACCESS:       3659  HIT:       3426  MISS:        233
LLC TOTAL     ACCESS:       6813  HIT:       6366  MISS:        447
LLC LOAD      ACCESS:       5144  HIT:       4961  MISS:        183
LLC RFO       ACCESS:        555  HIT:        291  MISS:        264
LLC PREFETCH  ACCESS:          0  HIT:          0  MISS:          0
LLC WRITEBACK ACCESS:       1110  HIT:       1110  MISS:          0
Heartbeat CPU 0 instructions: 62000000 cycles: 25052714 heartbeat IPC: 0.95206 cumulative IPC: 0.959139 (Simulation time: 0 hr 31 min 12 sec) 

Region of Interest Statistics
cpu0_DTLB TOTAL     ACCESS:    2314702  HIT:    2309761  MISS:       4941
cpu0_DTLB LOAD      ACCESS:    1600008  HIT:    1595221  MISS:       4787
cpu0_DTLB RFO       ACCESS:     714694  HIT:     714540  MISS:        154
cpu0_DTLB PREFETCH  ACCESS:          0  HIT:          0  MISS:          0
cpu0_DTLB WRITEBACK ACCESS:          0  HIT:          0  MISS:          0
cpu0_ITLB TOTAL     ACCESS:    1265957  HIT:    1265957  MISS:          0
cpu0_ITLB LOAD      ACCESS:    1265957  HIT:    1265957  MISS:          0
cpu0_ITLB RFO       ACCESS:          0  HIT:          0  MISS:          0
cpu0_ITLB PREFETCH  ACCESS:          0  HIT:          0  MISS:          0
cpu0_ITLB WRITEBACK ACCESS:          0  HIT:          0  MISS:          0
cpu0_L1I TOTAL     ACCESS:    1173835  HIT:    1173551  MISS:        284
cpu0_L1I LOAD      ACCESS:    1173835  HIT:    1173551  MISS:        284
cpu0_L1I RFO       ACCESS:          0  HIT:          0  MISS:          0
cpu0_L1I PREFETCH  ACCESS:          0  HIT:          0  MISS:          0
cpu0_L1I WRITEBACK ACCESS:          0  HIT:          0  MISS:          0
cpu0_STLB TOTAL     ACCESS:       4941  HIT:       4920  MISS:         21
cpu0_STLB LOAD      ACCESS:       4787  HIT:       4770  MISS:         17
cpu0_STLB RFO       ACCESS:        154  HIT:        150  MISS:          4
cpu0_STLB PREFETCH  ACCESS:          0  HIT:          0  MISS:          0
cpu0_STLB WRITEBACK ACCESS:          0  HIT:          0  MISS:          0
cpu0_L1D TOTAL     ACCESS:    3268853  HIT:    3244147  MISS:      24706
cpu0_L1D LOAD      ACCESS:    1894707  HIT:    1872423  MISS:      22284
cpu0_L1D RFO       ACCESS:    1374126  HIT:    1371719  MISS:       2407
cpu0_L1D PREFETCH  ACCESS:          0  HIT:          0  MISS:          0
cpu0_L1D WRITEBACK ACCESS:          0  HIT:          0  MISS:          0
cpu0_L2C TOTAL     ACCESS:      29424  HIT:      22288  MISS:       7136
cpu0_L2C LOAD      ACCESS:      22567  HIT:      16334  MISS:       6233
cpu0_L2C RFO       ACCESS:       2407  HIT:       1779  MISS:        628
cpu0_L2C PREFETCH  ACCESS:          0  HIT:          0  MISS:          0
cpu0_L2C WRITEBACK ACCESS:       4435  HIT:       4164  MISS:        271
LLC TOTAL     ACCESS:       8178  HIT:       7711  MISS:        467
LLC LOAD      ACCESS:       6233  HIT:       6030  MISS:        203
LLC RFO       ACCESS:        627  HIT:        363  MISS:        264
LLC PREFETCH  ACCESS:          0  HIT:          0  MISS:          0
LLC WRITEBACK ACCESS:       1314  HIT:       1314  MISS:          0
Heartbeat CPU 0 instructions: 64000004 cycles: 27158037 heartbeat IPC: 0.949975 cumulative IPC: 0.957819 (Simulation time: 0 hr 32 min 14 sec) 

Region of Interest Statistics
cpu0_DTLB TOTAL     ACCESS:    2704472  HIT:    2698795  MISS:       5677
cpu0_DTLB LOAD      ACCESS:    1871135  HIT:    1865634  MISS:       5501
cpu0_DTLB RFO       ACCESS:     833337  HIT:     833161  MISS:        176
cpu0_DTLB PREFETCH  ACCESS:          0  HIT:          0  MISS:          0
cpu0_DTLB WRITEBACK ACCESS:          0  HIT:          0  MISS:          0
cpu0_ITLB TOTAL     ACCESS:    1480295  HIT:    1480295  MISS:          0
cpu0_ITLB LOAD      ACCESS:    1480295  HIT:    1480295  MISS:          0
cpu0_ITLB RFO       ACCESS:          0  HIT:          0  MISS:          0
cpu0_ITLB PREFETCH  ACCESS:          0  HIT:          0  MISS:          0
cpu0_ITLB WRITEBACK ACCESS:          0  HIT:          0  MISS:          0
cpu0_L1I TOTAL     ACCESS:    1368543  HIT:    1368222  MISS:        321
cpu0_L1I LOAD      ACCESS:    1368543  HIT:    1368222  MISS:        321
cpu0_L1I RFO       ACCESS:          0  HIT:          0  MISS:          0
cpu0_L1I PREFETCH  ACCESS:          0  HIT:          0  MISS:          0
cpu0_L1I WRITEBACK ACCESS:          0  HIT:          0  MISS:          0
cpu0_STLB TOTAL     ACCESS:       5677  HIT:       5655  MISS:         22
cpu0_STLB LOAD      ACCESS:       5501  HIT:       5483  MISS:         18
cpu0_STLB RFO       ACCESS:        176  HIT:        172  MISS:          4
cpu0_STLB PREFETCH  ACCESS:          0  HIT:          0  MISS:          0
cpu0_STLB WRITEBACK ACCESS:          0  HIT:          0  MISS:          0
cpu0_L1D TOTAL     ACCESS:    3823235  HIT:    3796161  MISS:      27074
cpu0_L1D LOAD      ACCESS:    2217671  HIT:    2193164  MISS:      24507
cpu0_L1D RFO       ACCESS:    1605543  HIT:    1602992  MISS:       2551
cpu0_L1D PREFETCH  ACCESS:          0  HIT:          0  MISS:          0
cpu0_L1D WRITEBACK ACCESS:          0  HIT:          0  MISS:          0
cpu0_L2C TOTAL     ACCESS:      32133  HIT:      24407  MISS:       7726
cpu0_L2C LOAD      ACCESS:      24827  HIT:      18032  MISS:       6795
cpu0_L2C RFO       ACCESS:       2551  HIT:       1902  MISS:        649
cpu0_L2C PREFETCH  ACCESS:          0  HIT:          0  MISS:          0
cpu0_L2C WRITEBACK ACCESS:       4739  HIT:       4461  MISS:        278
LLC TOTAL     ACCESS:       8857  HIT:       8377  MISS:        480
LLC LOAD      ACCESS:       6795  HIT:       6579  MISS:        216
LLC RFO       ACCESS:        648  HIT:        384  MISS:        264
LLC PREFETCH  ACCESS:          0  HIT:          0  MISS:          0
LLC WRITEBACK ACCESS:       1410  HIT:       1410  MISS:          0
Heartbeat CPU 0 instructions: 66000001 cycles: 29204071 heartbeat IPC: 0.977499 cumulative IPC: 0.960236 (Simulation time: 0 hr 33 min 16 sec) 

Region of Interest Statistics
cpu0_DTLB TOTAL     ACCESS:    3087938  HIT:    3081408  MISS:       6530
cpu0_DTLB LOAD      ACCESS:    2136341  HIT:    2130024  MISS:       6317
cpu0_DTLB RFO       ACCESS:     951597  HIT:     951384  MISS:        213
cpu0_DTLB PREFETCH  ACCESS:          0  HIT:          0  MISS:          0
cpu0_DTLB WRITEBACK ACCESS:          0  HIT:          0  MISS:          0
cpu0_ITLB TOTAL     ACCESS:    1694094  HIT:    1694094  MISS:          0
cpu0_ITLB LOAD      ACCESS:    1694094  HIT:    1694094  MISS:          0
cpu0_ITLB RFO       ACCESS:          0  HIT:          0  MISS:          0
cpu0_ITLB PREFETCH  ACCESS:          0  HIT:          0  MISS:          0
cpu0_ITLB WRITEBACK ACCESS:          0  HIT:          0  MISS:          0
cpu0_L1I TOTAL     ACCESS:    1556672  HIT:    1556296  MISS:        376
cpu0_L1I LOAD      ACCESS:    1556672  HIT:    1556296  MISS:        376
cpu0_L1I RFO       ACCESS:          0  HIT:          0  MISS:          0
cpu0_L1I PREFETCH  ACCESS:          0  HIT:          0  MISS:          0
cpu0_L1I WRITEBACK ACCESS:          0  HIT:          0  MISS:          0
cpu0_STLB TOTAL     ACCESS:       6530  HIT:       6506  MISS:         24
cpu0_STLB LOAD      ACCESS:       6317  HIT:       6297  MISS:         20
cpu0_STLB RFO       ACCESS:        213  HIT:        209  MISS:          4
cpu0_STLB PREFETCH  ACCESS:          0  HIT:          0  MISS:          0
cpu0_STLB WRITEBACK ACCESS:          0  HIT:          0  MISS:          0
cpu0_L1D TOTAL     ACCESS:    4363340  HIT:    4331693  MISS:      31647
cpu0_L1D LOAD      ACCESS:    2532008  HIT:    2503318  MISS:      28690
cpu0_L1D RFO       ACCESS:    1831309  HIT:    1828370  MISS:       2939
cpu0_L1D PREFETCH  ACCESS:          0  HIT:          0  MISS:          0
cpu0_L1D WRITEBACK ACCESS:          0  HIT:          0  MISS:          0
cpu0_L2C TOTAL     ACCESS:      37530  HIT:      28614  MISS:       8916
cpu0_L2C LOAD      ACCESS:      29065  HIT:      21215  MISS:       7850
cpu0_L2C RFO       ACCESS:       2939  HIT:       2227  MISS:        712
cpu0_L2C PREFETCH  ACCESS:          0  HIT:          0  MISS:          0
cpu0_L2C WRITEBACK ACCESS:       5508  HIT:       5159  MISS:        349
LLC TOTAL     ACCESS:      10156  HIT:       9661  MISS:        495
LLC LOAD      ACCESS:       7850  HIT:       7619  MISS:        231
LLC RFO       ACCESS:        711  HIT:        447  MISS:        264
LLC PREFETCH  ACCESS:          0  HIT:          0  MISS:          0
LLC WRITEBACK ACCESS:       1590  HIT:       1590  MISS:          0
Heartbeat CPU 0 instructions: 68000002 cycles: 31311735 heartbeat IPC: 0.948918 cumulative IPC: 0.958965 (Simulation time: 0 hr 34 min 18 sec) 

Region of Interest Statistics
cpu0_DTLB TOTAL     ACCESS:    3474618  HIT:    3467302  MISS:       7316
cpu0_DTLB LOAD      ACCESS:    2404755  HIT:    2397666  MISS:       7089
cpu0_DTLB RFO       ACCESS:    1069863  HIT:    1069636  MISS:        227
cpu0_DTLB PREFETCH  ACCESS:          0  HIT:          0  MISS:          0
cpu0_DTLB WRITEBACK ACCESS:          0  HIT:          0  MISS:          0
cpu0_ITLB TOTAL     ACCESS:    1905901  HIT:    1905901  MISS:          0
cpu0_ITLB LOAD      ACCESS:    1905901  HIT:    1905901  MISS:          0
cpu0_ITLB RFO       ACCESS:          0  HIT:          0  MISS:          0
cpu0_ITLB PREFETCH  ACCESS:          0  HIT:          0  MISS:          0
cpu0_ITLB WRITEBACK ACCESS:          0  HIT:          0  MISS:          0
cpu0_L1I TOTAL     ACCESS:    1755068  HIT:    1754666  MISS:        402
cpu0_L1I LOAD      ACCESS:    1755068  HIT:    1754666  MISS:        402
cpu0_L1I RFO       ACCESS:          0  HIT:          0  MISS:          0
cpu0_L1I PREFETCH  ACCESS:          0  HIT:          0  MISS:          0
cpu0_L1I WRITEBACK ACCESS:          0  HIT:          0  MISS:          0
cpu0_STLB TOTAL     ACCESS:       7316  HIT:       7287  MISS:         29
cpu0_STLB LOAD      ACCESS:       7089  HIT:       7064  MISS:         25
cpu0_STLB RFO       ACCESS:        227  HIT:        223  MISS:          4
cpu0_STLB PREFETCH  ACCESS:          0  HIT:          0  MISS:          0
cpu0_STLB WRITEBACK ACCESS:          0  HIT:          0  MISS:          0
cpu0_L1D TOTAL     ACCESS:    4911012  HIT:    4875643  MISS:      35369
cpu0_L1D LOAD      ACCESS:    2850444  HIT:    2818332  MISS:      32112
cpu0_L1D RFO       ACCESS:    2060540  HIT:    2057304  MISS:       3236
cpu0_L1D PREFETCH  ACCESS:          0  HIT:          0  MISS:          0
cpu0_L1D WRITEBACK ACCESS:          0  HIT:          0  MISS:          0
cpu0_L2C TOTAL     ACCESS:      41872  HIT:      31910  MISS:       9962
cpu0_L2C LOAD      ACCESS:      32513  HIT:      23697  MISS:       8816
cpu0_L2C RFO       ACCESS:       3236  HIT:       2478  MISS:        758
cpu0_L2C PREFETCH  ACCESS:          0  HIT:          0  MISS:          0
cpu0_L2C WRITEBACK ACCESS:       6102  HIT:       5719  MISS:        383
LLC TOTAL     ACCESS:      11333  HIT:      10817  MISS:        516
LLC LOAD      ACCESS:       8816  HIT:       8564  MISS:        252
LLC RFO       ACCESS:        757  HIT:        493  MISS:        264
LLC PREFETCH  ACCESS:          0  HIT:          0  MISS:          0
LLC WRITEBACK ACCESS:       1755  HIT:       1755  MISS:          0
Heartbeat CPU 0 instructions: 70000002 cycles: 33368972 heartbeat IPC: 0.972178 cumulative IPC: 0.96027 (Simulation time: 0 hr 35 min 18 sec) 

Region of Interest Statistics
cpu0_DTLB TOTAL     ACCESS:    3855513  HIT:    3847332  MISS:       8181
cpu0_DTLB LOAD      ACCESS:    2667416  HIT:    2659481  MISS:       7935
cpu0_DTLB RFO       ACCESS:    1188097  HIT:    1187851  MISS:        246
cpu0_DTLB PREFETCH  ACCESS:          0  HIT:          0  MISS:          0
cpu0_DTLB WRITEBACK ACCESS:          0  HIT:          0  MISS:          0
cpu0_ITLB TOTAL     ACCESS:    2117572  HIT:    2117572  MISS:          0
cpu0_ITLB LOAD      ACCESS:    2117572  HIT:    2117572  MISS:          0
cpu0_ITLB RFO       ACCESS:          0  HIT:          0  MISS:          0
cpu0_ITLB PREFETCH  ACCESS:          0  HIT:          0  MISS:          0
cpu0_ITLB WRITEBACK ACCESS:          0  HIT:          0  MISS:          0
cpu0_L1I TOTAL     ACCESS:    1946849  HIT:    1946405  MISS:        444
cpu0_L1I LOAD      ACCESS:    1946849  HIT:    1946405  MISS:        444
cpu0_L1I RFO       ACCESS:          0  HIT:          0  MISS:          0
cpu0_L1I PREFETCH  ACCESS:          0  HIT:          0  MISS:          0
cpu0_L1I WRITEBACK ACCESS:          0  HIT:          0  MISS:          0
cpu0_STLB TOTAL     ACCESS:       8181  HIT:       8150  MISS:         31
cpu0_STLB LOAD      ACCESS:       7935  HIT:       7908  MISS:         27
cpu0_STLB RFO       ACCESS:        246  HIT:        242  MISS:          4
cpu0_STLB PREFETCH  ACCESS:          0  HIT:          0  MISS:          0
cpu0_STLB WRITEBACK ACCESS:          0  HIT:          0  MISS:          0
cpu0_L1D TOTAL     ACCESS:    5449809  HIT:    5409685  MISS:      40124
cpu0_L1D LOAD      ACCESS:    3162241  HIT:    3125795  MISS:      36446
cpu0_L1D RFO       ACCESS:    2287538  HIT:    2283883  MISS:       3655
cpu0_L1D PREFETCH  ACCESS:          0  HIT:          0  MISS:          0
cpu0_L1D WRITEBACK ACCESS:          0  HIT:          0  MISS:          0
cpu0_L2C TOTAL     ACCESS:      47480  HIT:      36426  MISS:      11054
cpu0_L2C LOAD      ACCESS:      36889  HIT:      27091  MISS:       9798
cpu0_L2C RFO       ACCESS:       3655  HIT:       2831  MISS:        824
cpu0_L2C PREFETCH  ACCESS:          0  HIT:          0  MISS:          0
cpu0_L2C WRITEBACK ACCESS:       6913  HIT:       6486  MISS:        427
LLC TOTAL     ACCESS:      12557  HIT:      12022  MISS:        535
LLC LOAD      ACCESS:       9798  HIT:       9527  MISS:        271
LLC RFO       ACCESS:        823  HIT:        559  MISS:        264
LLC PREFETCH  ACCESS:          0  HIT:          0  MISS:          0
LLC WRITEBACK ACCESS:       1931  HIT:       1931  MISS:          0
Heartbeat CPU 0 instructions: 72000000 cycles: 35456825 heartbeat IPC: 0.957921 cumulative IPC: 0.960056 (Simulation time: 0 hr 36 min 20 sec) 

Region of Interest Statistics
cpu0_DTLB TOTAL     ACCESS:    4243246  HIT:    4234303  MISS:       8943
cpu0_DTLB LOAD      ACCESS:    2937272  HIT:    2928596  MISS:       8676
cpu0_DTLB RFO       ACCESS:    1305974  HIT:    1305707  MISS:        267
cpu0_DTLB PREFETCH  ACCESS:          0  HIT:          0  MISS:          0
cpu0_DTLB WRITEBACK ACCESS:          0  HIT:          0  MISS:          0
cpu0_ITLB TOTAL     ACCESS:    2331081  HIT:    2331081  MISS:          0
cpu0_ITLB LOAD      ACCESS:    2331081  HIT:    2331081  MISS:          0
cpu0_ITLB RFO       ACCESS:          0  HIT:          0  MISS:          0
cpu0_ITLB PREFETCH  ACCESS:          0  HIT:          0  MISS:          0
cpu0_ITLB WRITEBACK ACCESS:          0  HIT:          0  MISS:          0
cpu0_L1I TOTAL     ACCESS:    2141453  HIT:    2140972  MISS:        481
cpu0_L1I LOAD      ACCESS:    2141453  HIT:    2140972  MISS:        481
cpu0_L1I RFO       ACCESS:          0  HIT:          0  MISS:          0
cpu0_L1I PREFETCH  ACCESS:          0  HIT:          0  MISS:          0
cpu0_L1I WRITEBACK ACCESS:          0  HIT:          0  MISS:          0
cpu0_STLB TOTAL     ACCESS:       8943  HIT:       8908  MISS:         35
cpu0_STLB LOAD      ACCESS:       8676  HIT:       8645  MISS:         31
cpu0_STLB RFO       ACCESS:        267  HIT:        263  MISS:          4
cpu0_STLB PREFETCH  ACCESS:          0  HIT:          0  MISS:          0
cpu0_STLB WRITEBACK ACCESS:          0  HIT:          0  MISS:          0
cpu0_L1D TOTAL     ACCESS:    5998068  HIT:    5954236  MISS:      43832
cpu0_L1D LOAD      ACCESS:    3482589  HIT:    3442744  MISS:      39845
cpu0_L1D RFO       ACCESS:    2515445  HIT:    2511484  MISS:       3961
cpu0_L1D PREFETCH  ACCESS:          0  HIT:          0  MISS:          0
cpu0_L1D WRITEBACK ACCESS:          0  HIT:          0  MISS:          0
cpu0_L2C TOTAL     ACCESS:      51826  HIT:      39709  MISS:      12117
cpu0_L2C LOAD      ACCESS:      40325  HIT:      29565  MISS:      10760
cpu0_L2C RFO       ACCESS:       3961  HIT:       3075  MISS:        886
cpu0_L2C PREFETCH  ACCESS:          0  HIT:          0  MISS:          0
cpu0_L2C WRITEBACK ACCESS:       7514  HIT:       7048  MISS:        466
LLC TOTAL     ACCESS:      13746  HIT:      13196  MISS:        550
LLC LOAD      ACCESS:      10760  HIT:      10474  MISS:        286
LLC RFO       ACCESS:        885  HIT:        621  MISS:        264
LLC PREFETCH  ACCESS:          0  HIT:          0  MISS:          0
LLC WRITEBACK ACCESS:       2096  HIT:       2096  MISS:          0
Heartbeat CPU 0 instructions: 74000004 cycles: 37545053 heartbeat IPC: 0.957752 cumulative IPC: 0.959863 (Simulation time: 0 hr 37 min 21 sec) 

Region of Interest Statistics
cpu0_DTLB TOTAL     ACCESS:    4626654  HIT:    4616809  MISS:       9845
cpu0_DTLB LOAD      ACCESS:    3202387  HIT:    3192831  MISS:       9556
cpu0_DTLB RFO       ACCESS:    1424267  HIT:    1423978  MISS:        289
cpu0_DTLB PREFETCH  ACCESS:          0  HIT:          0  MISS:          0
cpu0_DTLB WRITEBACK ACCESS:          0  HIT:          0  MISS:          0
cpu0_ITLB TOTAL     ACCESS:    2543748  HIT:    2543748  MISS:          0
cpu0_ITLB LOAD      ACCESS:    2543748  HIT:    2543748  MISS:          0
cpu0_ITLB RFO       ACCESS:          0  HIT:          0  MISS:          0
cpu0_ITLB PREFETCH  ACCESS:          0  HIT:          0  MISS:          0
cpu0_ITLB WRITEBACK ACCESS:          0  HIT:          0  MISS:          0
cpu0_L1I TOTAL     ACCESS:    2333516  HIT:    2332977  MISS:        539
cpu0_L1I LOAD      ACCESS:    2333516  HIT:    2332977  MISS:        539
cpu0_L1I RFO       ACCESS:          0  HIT:          0  MISS:          0
cpu0_L1I PREFETCH  ACCESS:          0  HIT:          0  MISS:          0
cpu0_L1I WRITEBACK ACCESS:          0  HIT:          0  MISS:          0
cpu0_STLB TOTAL     ACCESS:       9845  HIT:       9806  MISS:         39
cpu0_STLB LOAD      ACCESS:       9556  HIT:       9521  MISS:         35
cpu0_STLB RFO       ACCESS:        289  HIT:        285  MISS:          4
cpu0_STLB PREFETCH  ACCESS:          0  HIT:          0  MISS:          0
cpu0_STLB WRITEBACK ACCESS:          0  HIT:          0  MISS:          0
cpu0_L1D TOTAL     ACCESS:    6538863  HIT:    6490239  MISS:      48624
cpu0_L1D LOAD      ACCESS:    3796415  HIT:    3752217  MISS:      44198
cpu0_L1D RFO       ACCESS:    2742410  HIT:    2738014  MISS:       4396
cpu0_L1D PREFETCH  ACCESS:          0  HIT:          0  MISS:          0
cpu0_L1D WRITEBACK ACCESS:          0  HIT:          0  MISS:          0
cpu0_L2C TOTAL     ACCESS:      57499  HIT:      44118  MISS:      13381
cpu0_L2C LOAD      ACCESS:      44736  HIT:      32831  MISS:      11905
cpu0_L2C RFO       ACCESS:       4396  HIT:       3432  MISS:        964
cpu0_L2C PREFETCH  ACCESS:          0  HIT:          0  MISS:          0
cpu0_L2C WRITEBACK ACCESS:       8337  HIT:       7830  MISS:        507
LLC TOTAL     ACCESS:      15168  HIT:      14598  MISS:        570
LLC LOAD      ACCESS:      11905  HIT:      11599  MISS:        306
LLC RFO       ACCESS:        962  HIT:        698  MISS:        264
LLC PREFETCH  ACCESS:          0  HIT:          0  MISS:          0
LLC WRITEBACK ACCESS:       2296  HIT:       2296  MISS:          0
Heartbeat CPU 0 instructions: 76000000 cycles: 39630842 heartbeat IPC: 0.958868 cumulative IPC: 0.959787 (Simulation time: 0 hr 38 min 18 sec) 

Region of Interest Statistics
cpu0_DTLB TOTAL     ACCESS:    5015399  HIT:    5004820  MISS:      10579
cpu0_DTLB LOAD      ACCESS:    3471993  HIT:    3461730  MISS:      10263
cpu0_DTLB RFO       ACCESS:    1543406  HIT:    1543090  MISS:        316
cpu0_DTLB PREFETCH  ACCESS:          0  HIT:          0  MISS:          0
cpu0_DTLB WRITEBACK ACCESS:          0  HIT:          0  MISS:          0
cpu0_ITLB TOTAL     ACCESS:    2757218  HIT:    2757218  MISS:          0
cpu0_ITLB LOAD      ACCESS:    2757218  HIT:    2757218  MISS:          0
cpu0_ITLB RFO       ACCESS:          0  HIT:          0  MISS:          0
cpu0_ITLB PREFETCH  ACCESS:          0  HIT:          0  MISS:          0
cpu0_ITLB WRITEBACK ACCESS:          0  HIT:          0  MISS:          0
cpu0_L1I TOTAL     ACCESS:    2529545  HIT:    2528965  MISS:        580
cpu0_L1I LOAD      ACCESS:    2529545  HIT:    2528965  MISS:        580
cpu0_L1I RFO       ACCESS:          0  HIT:          0  MISS:          0
cpu0_L1I PREFETCH  ACCESS:          0  HIT:          0  MISS:          0
cpu0_L1I WRITEBACK ACCESS:          0  HIT:          0  MISS:          0
cpu0_STLB TOTAL     ACCESS:      10579  HIT:      10539  MISS:         40
cpu0_STLB LOAD      ACCESS:      10263  HIT:      10227  MISS:         36
cpu0_STLB RFO       ACCESS:        316  HIT:        312  MISS:          4
cpu0_STLB PREFETCH  ACCESS:          0  HIT:          0  MISS:          0
cpu0_STLB WRITEBACK ACCESS:          0  HIT:          0  MISS:          0
cpu0_L1D TOTAL     ACCESS:    7089139  HIT:    7037051  MISS:      52088
cpu0_L1D LOAD      ACCESS:    4116041  HIT:    4068643  MISS:      47398
cpu0_L1D RFO       ACCESS:    2973059  HIT:    2968400  MISS:       4659
cpu0_L1D PREFETCH  ACCESS:          0  HIT:          0  MISS:          0
cpu0_L1D WRITEBACK ACCESS:          0  HIT:          0  MISS:          0
cpu0_L2C TOTAL     ACCESS:      61528  HIT:      46884  MISS:      14644
cpu0_L2C LOAD      ACCESS:      47977  HIT:      34891  MISS:      13086
cpu0_L2C RFO       ACCESS:       4659  HIT:       3645  MISS:       1014
cpu0_L2C PREFETCH  ACCESS:          0  HIT:          0  MISS:          0
cpu0_L2C WRITEBACK ACCESS:       8861  HIT:       8323  MISS:        538
LLC TOTAL     ACCESS:      16607  HIT:      16027  MISS:        580
LLC LOAD      ACCESS:      13086  HIT:      12770  MISS:        316
LLC RFO       ACCESS:       1012  HIT:        748  MISS:        264
LLC PREFETCH  ACCESS:          0  HIT:          0  MISS:          0
LLC WRITEBACK ACCESS:       2503  HIT:       2503  MISS:          0
Heartbeat CPU 0 instructions: 78000000 cycles: 41724474 heartbeat IPC: 0.955278 cumulative IPC: 0.959463 (Simulation time: 0 hr 39 min 20 sec) 

Region of Interest Statistics
cpu0_DTLB TOTAL     ACCESS:    5399675  HIT:    5388266  MISS:      11409
cpu0_DTLB LOAD      ACCESS:    3736859  HIT:    3725792  MISS:      11067
cpu0_DTLB RFO       ACCESS:    1662816  HIT:    1662474  MISS:        342
cpu0_DTLB PREFETCH  ACCESS:          0  HIT:          0  MISS:          0
cpu0_DTLB WRITEBACK ACCESS:          0  HIT:          0  MISS:          0
cpu0_ITLB TOTAL     ACCESS:    2967813  HIT:    2967813  MISS:          0
cpu0_ITLB LOAD      ACCESS:    2967813  HIT:    2967813  MISS:          0
cpu0_ITLB RFO       ACCESS:          0  HIT:          0  MISS:          0
cpu0_ITLB PREFETCH  ACCESS:          0  HIT:          0  MISS:          0
cpu0_ITLB WRITEBACK ACCESS:          0  HIT:          0  MISS:          0
cpu0_L1I TOTAL     ACCESS:    2724110  HIT:    2723482  MISS:        628
cpu0_L1I LOAD      ACCESS:    2724110  HIT:    2723482  MISS:        628
cpu0_L1I RFO       ACCESS:          0  HIT:          0  MISS:          0
cpu0_L1I PREFETCH  ACCESS:          0  HIT:          0  MISS:          0
cpu0_L1I WRITEBACK ACCESS:          0  HIT:          0  MISS:          0
cpu0_STLB TOTAL     ACCESS:      11409  HIT:      11367  MISS:         42
cpu0_STLB LOAD      ACCESS:      11067  HIT:      11029  MISS:         38
cpu0_STLB RFO       ACCESS:        342  HIT:        338  MISS:          4
cpu0_STLB PREFETCH  ACCESS:          0  HIT:          0  MISS:          0
cpu0_STLB WRITEBACK ACCESS:          0  HIT:          0  MISS:          0
cpu0_L1D TOTAL     ACCESS:    7633582  HIT:    7577390  MISS:      56192
cpu0_L1D LOAD      ACCESS:    4431064  HIT:    4379914  MISS:      51150
cpu0_L1D RFO       ACCESS:    3202477  HIT:    3197468  MISS:       5009
cpu0_L1D PREFETCH  ACCESS:          0  HIT:          0  MISS:          0
cpu0_L1D WRITEBACK ACCESS:          0  HIT:          0  MISS:          0
cpu0_L2C TOTAL     ACCESS:      66360  HIT:      50360  MISS:      16000
cpu0_L2C LOAD      ACCESS:      51777  HIT:      37459  MISS:      14318
cpu0_L2C RFO       ACCESS:       5009  HIT:       3940  MISS:       1069
cpu0_L2C PREFETCH  ACCESS:          0  HIT:          0  MISS:          0
cpu0_L2C WRITEBACK ACCESS:       9541  HIT:       8934  MISS:        607
LLC TOTAL     ACCESS:      18151  HIT:      17555  MISS:        596
LLC LOAD      ACCESS:      14318  HIT:      13986  MISS:        332
LLC RFO       ACCESS:       1067  HIT:        803  MISS:        264
LLC PREFETCH  ACCESS:          0  HIT:          0  MISS:          0
LLC WRITEBACK ACCESS:       2760  HIT:       2760  MISS:          0
Heartbeat CPU 0 instructions: 80000001 cycles: 43777139 heartbeat IPC: 0.974344 cumulative IPC: 0.960441 (Simulation time: 0 hr 40 min 22 sec) 

Region of Interest Statistics
cpu0_DTLB TOTAL     ACCESS:    5783586  HIT:    5771395  MISS:      12191
cpu0_DTLB LOAD      ACCESS:    4003540  HIT:    3991719  MISS:      11821
cpu0_DTLB RFO       ACCESS:    1780046  HIT:    1779676  MISS:        370
cpu0_DTLB PREFETCH  ACCESS:          0  HIT:          0  MISS:          0
cpu0_DTLB WRITEBACK ACCESS:          0  HIT:          0  MISS:          0
cpu0_ITLB TOTAL     ACCESS:    3177845  HIT:    3177845  MISS:          0
cpu0_ITLB LOAD      ACCESS:    3177845  HIT:    3177845  MISS:          0
cpu0_ITLB RFO       ACCESS:          0  HIT:          0  MISS:          0
cpu0_ITLB PREFETCH  ACCESS:          0  HIT:          0  MISS:          0
cpu0_ITLB WRITEBACK ACCESS:          0  HIT:          0  MISS:          0
cpu0_L1I TOTAL     ACCESS:    2917586  HIT:    2916922  MISS:        664
cpu0_L1I LOAD      ACCESS:    2917586  HIT:    2916922  MISS:        664
cpu0_L1I RFO       ACCESS:          0  HIT:          0  MISS:          0
cpu0_L1I PREFETCH  ACCESS:          0  HIT:          0  MISS:          0
cpu0_L1I WRITEBACK ACCESS:          0  HIT:          0  MISS:          0
cpu0_STLB TOTAL     ACCESS:      12191  HIT:      12148  MISS:         43
cpu0_STLB LOAD      ACCESS:      11821  HIT:      11782  MISS:         39
cpu0_STLB RFO       ACCESS:        370  HIT:        366  MISS:          4
cpu0_STLB PREFETCH  ACCESS:          0  HIT:          0  MISS:          0
cpu0_STLB WRITEBACK ACCESS:          0  HIT:          0  MISS:          0
cpu0_L1D TOTAL     ACCESS:    8175869  HIT:    8115441  MISS:      60428
cpu0_L1D LOAD      ACCESS:    4746775  HIT:    4691743  MISS:      55032
cpu0_L1D RFO       ACCESS:    3429052  HIT:    3423690  MISS:       5362
cpu0_L1D PREFETCH  ACCESS:          0  HIT:          0  MISS:          0
cpu0_L1D WRITEBACK ACCESS:          0  HIT:          0  MISS:          0
cpu0_L2C TOTAL     ACCESS:      71355  HIT:      54290  MISS:      17065
cpu0_L2C LOAD      ACCESS:      55695  HIT:      40415  MISS:      15280
cpu0_L2C RFO       ACCESS:       5362  HIT:       4236  MISS:       1126
cpu0_L2C PREFETCH  ACCESS:          0  HIT:          0  MISS:          0
cpu0_L2C WRITEBACK ACCESS:      10264  HIT:       9612  MISS:        652
LLC TOTAL     ACCESS:      19325  HIT:      18713  MISS:        612
LLC LOAD      ACCESS:      15280  HIT:      14932  MISS:        348
LLC RFO       ACCESS:       1124  HIT:        860  MISS:        264
LLC PREFETCH  ACCESS:          0  HIT:          0  MISS:          0
LLC WRITEBACK ACCESS:       2914  HIT:       2914  MISS:          0
Heartbeat CPU 0 instructions: 82000000 cycles: 45832355 heartbeat IPC: 0.973133 cumulative IPC: 0.961225 (Simulation time: 0 hr 41 min 24 sec) 

Region of Interest Statistics
cpu0_DTLB TOTAL     ACCESS:    6166378  HIT:    6153450  MISS:      12928
cpu0_DTLB LOAD      ACCESS:    4267370  HIT:    4254831  MISS:      12539
cpu0_DTLB RFO       ACCESS:    1899008  HIT:    1898619  MISS:        389
cpu0_DTLB PREFETCH  ACCESS:          0  HIT:          0  MISS:          0
cpu0_DTLB WRITEBACK ACCESS:          0  HIT:          0  MISS:          0
cpu0_ITLB TOTAL     ACCESS:    3389229  HIT:    3389229  MISS:          0
cpu0_ITLB LOAD      ACCESS:    3389229  HIT:    3389229  MISS:          0
cpu0_ITLB RFO       ACCESS:          0  HIT:          0  MISS:          0
cpu0_ITLB PREFETCH  ACCESS:          0  HIT:          0  MISS:          0
cpu0_ITLB WRITEBACK ACCESS:          0  HIT:          0  MISS:          0
cpu0_L1I TOTAL     ACCESS:    3112363  HIT:    3111674  MISS:        689
cpu0_L1I LOAD      ACCESS:    3112363  HIT:    3111674  MISS:        689
cpu0_L1I RFO       ACCESS:          0  HIT:          0  MISS:          0
cpu0_L1I PREFETCH  ACCESS:          0  HIT:          0  MISS:          0
cpu0_L1I WRITEBACK ACCESS:          0  HIT:          0  MISS:          0
cpu0_STLB TOTAL     ACCESS:      12928  HIT:      12883  MISS:         45
cpu0_STLB LOAD      ACCESS:      12539  HIT:      12498  MISS:         41
cpu0_STLB RFO       ACCESS:        389  HIT:        385  MISS:          4
cpu0_STLB PREFETCH  ACCESS:          0  HIT:          0  MISS:          0
cpu0_STLB WRITEBACK ACCESS:          0  HIT:          0  MISS:          0
cpu0_L1D TOTAL     ACCESS:    8720280  HIT:    8656236  MISS:      64044
cpu0_L1D LOAD      ACCESS:    5060215  HIT:    5001875  MISS:      58340
cpu0_L1D RFO       ACCESS:    3660021  HIT:    3654353  MISS:       5668
cpu0_L1D PREFETCH  ACCESS:          0  HIT:          0  MISS:          0
cpu0_L1D WRITEBACK ACCESS:          0  HIT:          0  MISS:          0
cpu0_L2C TOTAL     ACCESS:      75609  HIT:      57647  MISS:      17962
cpu0_L2C LOAD      ACCESS:      59028  HIT:      42940  MISS:      16088
cpu0_L2C RFO       ACCESS:       5668  HIT:       4498  MISS:       1170
cpu0_L2C PREFETCH  ACCESS:          0  HIT:          0  MISS:          0
cpu0_L2C WRITEBACK ACCESS:      10877  HIT:      10180  MISS:        697
LLC TOTAL     ACCESS:      20341  HIT:      19721  MISS:        620
LLC LOAD      ACCESS:      16088  HIT:      15732  MISS:        356
LLC RFO       ACCESS:       1168  HIT:        904  MISS:        264
LLC PREFETCH  ACCESS:          0  HIT:          0  MISS:          0
LLC WRITEBACK ACCESS:       3078  HIT:       3078  MISS:          0
Heartbeat CPU 0 instructions: 84000004 cycles: 47893578 heartbeat IPC: 0.9703 cumulative IPC: 0.961754 (Simulation time: 0 hr 42 min 27 sec) 

Region of Interest Statistics
cpu0_DTLB TOTAL     ACCESS:    6549892  HIT:    6536201  MISS:      13691
cpu0_DTLB LOAD      ACCESS:    4532708  HIT:    4519430  MISS:      13278
cpu0_DTLB RFO       ACCESS:    2017184  HIT:    2016771  MISS:        413
cpu0_DTLB PREFETCH  ACCESS:          0  HIT:          0  MISS:          0
cpu0_DTLB WRITEBACK ACCESS:          0  HIT:          0  MISS:          0
cpu0_ITLB TOTAL     ACCESS:    3599143  HIT:    3599143  MISS:          0
cpu0_ITLB LOAD      ACCESS:    3599143  HIT:    3599143  MISS:          0
cpu0_ITLB RFO       ACCESS:          0  HIT:          0  MISS:          0
cpu0_ITLB PREFETCH  ACCESS:          0  HIT:          0  MISS:          0
cpu0_ITLB WRITEBACK ACCESS:          0  HIT:          0  MISS:          0
cpu0_L1I TOTAL     ACCESS:    3303979  HIT:    3303243  MISS:        736
cpu0_L1I LOAD      ACCESS:    3303979  HIT:    3303243  MISS:        736
cpu0_L1I RFO       ACCESS:          0  HIT:          0  MISS:          0
cpu0_L1I PREFETCH  ACCESS:          0  HIT:          0  MISS:          0
cpu0_L1I WRITEBACK ACCESS:          0  HIT:          0  MISS:          0
cpu0_STLB TOTAL     ACCESS:      13691  HIT:      13642  MISS:         49
cpu0_STLB LOAD      ACCESS:      13278  HIT:      13233  MISS:         45
cpu0_STLB RFO       ACCESS:        413  HIT:        409  MISS:          4
cpu0_STLB PREFETCH  ACCESS:          0  HIT:          0  MISS:          0
cpu0_STLB WRITEBACK ACCESS:          0  HIT:          0  MISS:          0
cpu0_L1D TOTAL     ACCESS:    9260755  HIT:    9191852  MISS:      68903
cpu0_L1D LOAD      ACCESS:    5374192  HIT:    5311451  MISS:      62741
cpu0_L1D RFO       ACCESS:    3886515  HIT:    3880393  MISS:       6122
cpu0_L1D PREFETCH  ACCESS:          0  HIT:          0  MISS:          0
cpu0_L1D WRITEBACK ACCESS:          0  HIT:          0  MISS:          0
cpu0_L2C TOTAL     ACCESS:      81363  HIT:      62214  MISS:      19149
cpu0_L2C LOAD      ACCESS:      63476  HIT:      46336  MISS:      17140
cpu0_L2C RFO       ACCESS:       6122  HIT:       4876  MISS:       1246
cpu0_L2C PREFETCH  ACCESS:          0  HIT:          0  MISS:          0
cpu0_L2C WRITEBACK ACCESS:      11725  HIT:      10971  MISS:        754
LLC TOTAL     ACCESS:      21672  HIT:      21042  MISS:        630
LLC LOAD      ACCESS:      17140  HIT:      16774  MISS:        366
LLC RFO       ACCESS:       1244  HIT:        980  MISS:        264
LLC PREFETCH  ACCESS:          0  HIT:          0  MISS:          0
LLC WRITEBACK ACCESS:       3279  HIT:       3279  MISS:          0
Heartbeat CPU 0 instructions: 86000001 cycles: 49907410 heartbeat IPC: 0.99313 cumulative IPC: 0.963445 (Simulation time: 0 hr 43 min 29 sec) 

Region of Interest Statistics
cpu0_DTLB TOTAL     ACCESS:    6933193  HIT:    6918781  MISS:      14412
cpu0_DTLB LOAD      ACCESS:    4797899  HIT:    4783918  MISS:      13981
cpu0_DTLB RFO       ACCESS:    2135294  HIT:    2134863  MISS:        431
cpu0_DTLB PREFETCH  ACCESS:          0  HIT:          0  MISS:          0
cpu0_DTLB WRITEBACK ACCESS:          0  HIT:          0  MISS:          0
cpu0_ITLB TOTAL     ACCESS:    3812344  HIT:    3812344  MISS:          0
cpu0_ITLB LOAD      ACCESS:    3812344  HIT:    3812344  MISS:          0
cpu0_ITLB RFO       ACCESS:          0  HIT:          0  MISS:          0
cpu0_ITLB PREFETCH  ACCESS:          0  HIT:          0  MISS:          0
cpu0_ITLB WRITEBACK ACCESS:          0  HIT:          0  MISS:          0
cpu0_L1I TOTAL     ACCESS:    3492563  HIT:    3491797  MISS:        766
cpu0_L1I LOAD      ACCESS:    3492563  HIT:    3491797  MISS:        766
cpu0_L1I RFO       ACCESS:          0  HIT:          0  MISS:          0
cpu0_L1I PREFETCH  ACCESS:          0  HIT:          0  MISS:          0
cpu0_L1I WRITEBACK ACCESS:          0  HIT:          0  MISS:          0
cpu0_STLB TOTAL     ACCESS:      14412  HIT:      14361  MISS:         51
cpu0_STLB LOAD      ACCESS:      13981  HIT:      13934  MISS:         47
cpu0_STLB RFO       ACCESS:        431  HIT:        427  MISS:          4
cpu0_STLB PREFETCH  ACCESS:          0  HIT:          0  MISS:          0
cpu0_STLB WRITEBACK ACCESS:          0  HIT:          0  MISS:          0
cpu0_L1D TOTAL     ACCESS:    9806925  HIT:    9734371  MISS:      72554
cpu0_L1D LOAD      ACCESS:    5691004  HIT:    5624911  MISS:      66093
cpu0_L1D RFO       ACCESS:    4115871  HIT:    4109452  MISS:       6419
cpu0_L1D PREFETCH  ACCESS:          0  HIT:          0  MISS:          0
cpu0_L1D WRITEBACK ACCESS:          0  HIT:          0  MISS:          0
cpu0_L2C TOTAL     ACCESS:      85658  HIT:      65515  MISS:      20143
cpu0_L2C LOAD      ACCESS:      66858  HIT:      48805  MISS:      18053
cpu0_L2C RFO       ACCESS:       6419  HIT:       5128  MISS:       1291
cpu0_L2C PREFETCH  ACCESS:          0  HIT:          0  MISS:          0
cpu0_L2C WRITEBACK ACCESS:      12339  HIT:      11549  MISS:        790
LLC TOTAL     ACCESS:      22776  HIT:      22128  MISS:        648
LLC LOAD      ACCESS:      18053  HIT:      17669  MISS:        384
LLC RFO       ACCESS:       1289  HIT:       1025  MISS:        264
LLC PREFETCH  ACCESS:          0  HIT:          0  MISS:          0
LLC WRITEBACK ACCESS:       3425  HIT:       3425  MISS:          0
Heartbeat CPU 0 instructions: 88000000 cycles: 51994135 heartbeat IPC: 0.958439 cumulative IPC: 0.96318 (Simulation time: 0 hr 44 min 32 sec) 

Region of Interest Statistics
cpu0_DTLB TOTAL     ACCESS:    7318651  HIT:    7303339  MISS:      15312
cpu0_DTLB LOAD      ACCESS:    5064097  HIT:    5049244  MISS:      14853
cpu0_DTLB RFO       ACCESS:    2254554  HIT:    2254095  MISS:        459
cpu0_DTLB PREFETCH  ACCESS:          0  HIT:          0  MISS:          0
cpu0_DTLB WRITEBACK ACCESS:          0  HIT:          0  MISS:          0
cpu0_ITLB TOTAL     ACCESS:    4024137  HIT:    4024137  MISS:          0
cpu0_ITLB LOAD      ACCESS:    4024137  HIT:    4024137  MISS:          0
cpu0_ITLB RFO       ACCESS:          0  HIT:          0  MISS:          0
cpu0_ITLB PREFETCH  ACCESS:          0  HIT:          0  MISS:          0
cpu0_ITLB WRITEBACK ACCESS:          0  HIT:          0  MISS:          0
cpu0_L1I TOTAL     ACCESS:    3686425  HIT:    3685600  MISS:        825
cpu0_L1I LOAD      ACCESS:    3686425  HIT:    3685600  MISS:        825
cpu0_L1I RFO       ACCESS:          0  HIT:          0  MISS:          0
cpu0_L1I PREFETCH  ACCESS:          0  HIT:          0  MISS:          0
cpu0_L1I WRITEBACK ACCESS:          0  HIT:          0  MISS:          0
cpu0_STLB TOTAL     ACCESS:      15312  HIT:      15258  MISS:         54
cpu0_STLB LOAD      ACCESS:      14853  HIT:      14803  MISS:         50
cpu0_STLB RFO       ACCESS:        459  HIT:        455  MISS:          4
cpu0_STLB PREFETCH  ACCESS:          0  HIT:          0  MISS:          0
cpu0_STLB WRITEBACK ACCESS:          0  HIT:          0  MISS:          0
cpu0_L1D TOTAL     ACCESS:   10350145  HIT:   10273028  MISS:      77117
cpu0_L1D LOAD      ACCESS:    6006449  HIT:    5936225  MISS:      70224
cpu0_L1D RFO       ACCESS:    4343643  HIT:    4336795  MISS:       6848
cpu0_L1D PREFETCH  ACCESS:          0  HIT:          0  MISS:          0
cpu0_L1D WRITEBACK ACCESS:          0  HIT:          0  MISS:          0
cpu0_L2C TOTAL     ACCESS:      91057  HIT:      69705  MISS:      21352
cpu0_L2C LOAD      ACCESS:      71048  HIT:      51907  MISS:      19141
cpu0_L2C RFO       ACCESS:       6848  HIT:       5483  MISS:       1365
cpu0_L2C PREFETCH  ACCESS:          0  HIT:          0  MISS:          0
cpu0_L2C WRITEBACK ACCESS:      13116  HIT:      12280  MISS:        836
LLC TOTAL     ACCESS:      24146  HIT:      23485  MISS:        661
LLC LOAD      ACCESS:      19141  HIT:      18744  MISS:        397
LLC RFO       ACCESS:       1362  HIT:       1098  MISS:        264
LLC PREFETCH  ACCESS:          0  HIT:          0  MISS:          0
LLC WRITEBACK ACCESS:       3633  HIT:       3633  MISS:          0
Heartbeat CPU 0 instructions: 90000001 cycles: 54072421 heartbeat IPC: 0.962332 cumulative IPC: 0.963138 (Simulation time: 0 hr 45 min 36 sec) 

Region of Interest Statistics
cpu0_DTLB TOTAL     ACCESS:    7701743  HIT:    7685653  MISS:      16090
cpu0_DTLB LOAD      ACCESS:    5328372  HIT:    5312767  MISS:      15605
cpu0_DTLB RFO       ACCESS:    2373371  HIT:    2372886  MISS:        485
cpu0_DTLB PREFETCH  ACCESS:          0  HIT:          0  MISS:          0
cpu0_DTLB WRITEBACK ACCESS:          0  HIT:          0  MISS:          0
cpu0_ITLB TOTAL     ACCESS:    4233094  HIT:    4233094  MISS:          0
cpu0_ITLB LOAD      ACCESS:    4233094  HIT:    4233094  MISS:          0
cpu0_ITLB RFO       ACCESS:          0  HIT:          0  MISS:          0
cpu0_ITLB PREFETCH  ACCESS:          0  HIT:          0  MISS:          0
cpu0_ITLB WRITEBACK ACCESS:          0  HIT:          0  MISS:          0
cpu0_L1I TOTAL     ACCESS:    3887987  HIT:    3887131  MISS:        856
cpu0_L1I LOAD      ACCESS:    3887987  HIT:    3887131  MISS:        856
cpu0_L1I RFO       ACCESS:          0  HIT:          0  MISS:          0
cpu0_L1I PREFETCH  ACCESS:          0  HIT:          0  MISS:          0
cpu0_L1I WRITEBACK ACCESS:          0  HIT:          0  MISS:          0
cpu0_STLB TOTAL     ACCESS:      16090  HIT:      16034  MISS:         56
cpu0_STLB LOAD      ACCESS:      15605  HIT:      15553  MISS:         52
cpu0_STLB RFO       ACCESS:        485  HIT:        481  MISS:          4
cpu0_STLB PREFETCH  ACCESS:          0  HIT:          0  MISS:          0
cpu0_STLB WRITEBACK ACCESS:          0  HIT:          0  MISS:          0
cpu0_L1D TOTAL     ACCESS:   10896714  HIT:   10816089  MISS:      80625
cpu0_L1D LOAD      ACCESS:    6320744  HIT:    6247251  MISS:      73493
cpu0_L1D RFO       ACCESS:    4575915  HIT:    4568830  MISS:       7085
cpu0_L1D PREFETCH  ACCESS:          0  HIT:          0  MISS:          0
cpu0_L1D WRITEBACK ACCESS:          0  HIT:          0  MISS:          0
cpu0_L2C TOTAL     ACCESS:      95150  HIT:      72534  MISS:      22616
cpu0_L2C LOAD      ACCESS:      74348  HIT:      54022  MISS:      20326
cpu0_L2C RFO       ACCESS:       7085  HIT:       5684  MISS:       1401
cpu0_L2C PREFETCH  ACCESS:          0  HIT:          0  MISS:          0
cpu0_L2C WRITEBACK ACCESS:      13670  HIT:      12792  MISS:        878
LLC TOTAL     ACCESS:      25557  HIT:      24885  MISS:        672
LLC LOAD      ACCESS:      20326  HIT:      19918  MISS:        408
LLC RFO       ACCESS:       1398  HIT:       1134  MISS:        264
LLC PREFETCH  ACCESS:          0  HIT:          0  MISS:          0
LLC WRITEBACK ACCESS:       3822  HIT:       3822  MISS:          0
Heartbeat CPU 0 instructions: 92000004 cycles: 56187742 heartbeat IPC: 0.945484 cumulative IPC: 0.962282 (Simulation time: 0 hr 46 min 36 sec) 

Region of Interest Statistics
cpu0_DTLB TOTAL     ACCESS:    8089856  HIT:    8073010  MISS:      16846
cpu0_DTLB LOAD      ACCESS:    5598382  HIT:    5582042  MISS:      16340
cpu0_DTLB RFO       ACCESS:    2491474  HIT:    2490968  MISS:        506
cpu0_DTLB PREFETCH  ACCESS:          0  HIT:          0  MISS:          0
cpu0_DTLB WRITEBACK ACCESS:          0  HIT:          0  MISS:          0
cpu0_ITLB TOTAL     ACCESS:    4447742  HIT:    4447742  MISS:          0
cpu0_ITLB LOAD      ACCESS:    4447742  HIT:    4447742  MISS:          0
cpu0_ITLB RFO       ACCESS:          0  HIT:          0  MISS:          0
cpu0_ITLB PREFETCH  ACCESS:          0  HIT:          0  MISS:          0
cpu0_ITLB WRITEBACK ACCESS:          0  HIT:          0  MISS:          0
cpu0_L1I TOTAL     ACCESS:    4080132  HIT:    4079238  MISS:        894
cpu0_L1I LOAD      ACCESS:    4080132  HIT:    4079238  MISS:        894
cpu0_L1I RFO       ACCESS:          0  HIT:          0  MISS:          0
cpu0_L1I PREFETCH  ACCESS:          0  HIT:          0  MISS:          0
cpu0_L1I WRITEBACK ACCESS:          0  HIT:          0  MISS:          0
cpu0_STLB TOTAL     ACCESS:      16846  HIT:      16788  MISS:         58
cpu0_STLB LOAD      ACCESS:      16340  HIT:      16286  MISS:         54
cpu0_STLB RFO       ACCESS:        506  HIT:        502  MISS:          4
cpu0_STLB PREFETCH  ACCESS:          0  HIT:          0  MISS:          0
cpu0_STLB WRITEBACK ACCESS:          0  HIT:          0  MISS:          0
cpu0_L1D TOTAL     ACCESS:   11444491  HIT:   11360225  MISS:      84266
cpu0_L1D LOAD      ACCESS:    6640670  HIT:    6563818  MISS:      76852
cpu0_L1D RFO       ACCESS:    4803764  HIT:    4796399  MISS:       7365
cpu0_L1D PREFETCH  ACCESS:          0  HIT:          0  MISS:          0
cpu0_L1D WRITEBACK ACCESS:          0  HIT:          0  MISS:          0
cpu0_L2C TOTAL     ACCESS:      99389  HIT:      75657  MISS:      23732
cpu0_L2C LOAD      ACCESS:      77745  HIT:      56401  MISS:      21344
cpu0_L2C RFO       ACCESS:       7365  HIT:       5911  MISS:       1454
cpu0_L2C PREFETCH  ACCESS:          0  HIT:          0  MISS:          0
cpu0_L2C WRITEBACK ACCESS:      14230  HIT:      13307  MISS:        923
LLC TOTAL     ACCESS:      26791  HIT:      26102  MISS:        689
LLC LOAD      ACCESS:      21344  HIT:      20919  MISS:        425
LLC RFO       ACCESS:       1451  HIT:       1187  MISS:        264
LLC PREFETCH  ACCESS:          0  HIT:          0  MISS:          0
LLC WRITEBACK ACCESS:       3985  HIT:       3985  MISS:          0
Heartbeat CPU 0 instructions: 94000001 cycles: 58271816 heartbeat IPC: 0.959657 cumulative IPC: 0.962162 (Simulation time: 0 hr 47 min 37 sec) 

Region of Interest Statistics
cpu0_DTLB TOTAL     ACCESS:    8474484  HIT:    8456773  MISS:      17711
cpu0_DTLB LOAD      ACCESS:    5864889  HIT:    5847710  MISS:      17179
cpu0_DTLB RFO       ACCESS:    2609595  HIT:    2609063  MISS:        532
cpu0_DTLB PREFETCH  ACCESS:          0  HIT:          0  MISS:          0
cpu0_DTLB WRITEBACK ACCESS:          0  HIT:          0  MISS:          0
cpu0_ITLB TOTAL     ACCESS:    4661434  HIT:    4661434  MISS:          0
cpu0_ITLB LOAD      ACCESS:    4661434  HIT:    4661434  MISS:          0
cpu0_ITLB RFO       ACCESS:          0  HIT:          0  MISS:          0
cpu0_ITLB PREFETCH  ACCESS:          0  HIT:          0  MISS:          0
cpu0_ITLB WRITEBACK ACCESS:          0  HIT:          0  MISS:          0
cpu0_L1I TOTAL     ACCESS:    4270024  HIT:    4269081  MISS:        943
cpu0_L1I LOAD      ACCESS:    4270024  HIT:    4269081  MISS:        943
cpu0_L1I RFO       ACCESS:          0  HIT:          0  MISS:          0
cpu0_L1I PREFETCH  ACCESS:          0  HIT:          0  MISS:          0
cpu0_L1I WRITEBACK ACCESS:          0  HIT:          0  MISS:          0
cpu0_STLB TOTAL     ACCESS:      17711  HIT:      17650  MISS:         61
cpu0_STLB LOAD      ACCESS:      17179  HIT:      17122  MISS:         57
cpu0_STLB RFO       ACCESS:        532  HIT:        528  MISS:          4
cpu0_STLB PREFETCH  ACCESS:          0  HIT:          0  MISS:          0
cpu0_STLB WRITEBACK ACCESS:          0  HIT:          0  MISS:          0
cpu0_L1D TOTAL     ACCESS:   11983461  HIT:   11894427  MISS:      89034
cpu0_L1D LOAD      ACCESS:    6954611  HIT:    6873408  MISS:      81203
cpu0_L1D RFO       ACCESS:    5028790  HIT:    5021011  MISS:       7779
cpu0_L1D PREFETCH  ACCESS:          0  HIT:          0  MISS:          0
cpu0_L1D WRITEBACK ACCESS:          0  HIT:          0  MISS:          0
cpu0_L2C TOTAL     ACCESS:     105012  HIT:      80199  MISS:      24813
cpu0_L2C LOAD      ACCESS:      82145  HIT:      59824  MISS:      22321
cpu0_L2C RFO       ACCESS:       7779  HIT:       6251  MISS:       1528
cpu0_L2C PREFETCH  ACCESS:          0  HIT:          0  MISS:          0
cpu0_L2C WRITEBACK ACCESS:      15036  HIT:      14084  MISS:        952
LLC TOTAL     ACCESS:      28003  HIT:      27298  MISS:        705
LLC LOAD      ACCESS:      22321  HIT:      21880  MISS:        441
LLC RFO       ACCESS:       1525  HIT:       1261  MISS:        264
LLC PREFETCH  ACCESS:          0  HIT:          0  MISS:          0
LLC WRITEBACK ACCESS:       4145  HIT:       4145  MISS:          0
Heartbeat CPU 0 instructions: 96000002 cycles: 60361778 heartbeat IPC: 0.956956 cumulative IPC: 0.961935 (Simulation time: 0 hr 48 min 37 sec) 

Region of Interest Statistics
cpu0_DTLB TOTAL     ACCESS:    8862664  HIT:    8844184  MISS:      18480
cpu0_DTLB LOAD      ACCESS:    6134557  HIT:    6116638  MISS:      17919
cpu0_DTLB RFO       ACCESS:    2728107  HIT:    2727546  MISS:        561
cpu0_DTLB PREFETCH  ACCESS:          0  HIT:          0  MISS:          0
cpu0_DTLB WRITEBACK ACCESS:          0  HIT:          0  MISS:          0
cpu0_ITLB TOTAL     ACCESS:    4876662  HIT:    4876662  MISS:          0
cpu0_ITLB LOAD      ACCESS:    4876662  HIT:    4876662  MISS:          0
cpu0_ITLB RFO       ACCESS:          0  HIT:          0  MISS:          0
cpu0_ITLB PREFETCH  ACCESS:          0  HIT:          0  MISS:          0
cpu0_ITLB WRITEBACK ACCESS:          0  HIT:          0  MISS:          0
cpu0_L1I TOTAL     ACCESS:    4462161  HIT:    4461189  MISS:        972
cpu0_L1I LOAD      ACCESS:    4462161  HIT:    4461189  MISS:        972
cpu0_L1I RFO       ACCESS:          0  HIT:          0  MISS:          0
cpu0_L1I PREFETCH  ACCESS:          0  HIT:          0  MISS:          0
cpu0_L1I WRITEBACK ACCESS:          0  HIT:          0  MISS:          0
cpu0_STLB TOTAL     ACCESS:      18480  HIT:      18416  MISS:         64
cpu0_STLB LOAD      ACCESS:      17919  HIT:      17859  MISS:         60
cpu0_STLB RFO       ACCESS:        561  HIT:        557  MISS:          4
cpu0_STLB PREFETCH  ACCESS:          0  HIT:          0  MISS:          0
cpu0_STLB WRITEBACK ACCESS:          0  HIT:          0  MISS:          0
cpu0_L1D TOTAL     ACCESS:   12531719  HIT:   12439032  MISS:      92687
cpu0_L1D LOAD      ACCESS:    7274451  HIT:    7189875  MISS:      84576
cpu0_L1D RFO       ACCESS:    5257205  HIT:    5249148  MISS:       8057
cpu0_L1D PREFETCH  ACCESS:          0  HIT:          0  MISS:          0
cpu0_L1D WRITEBACK ACCESS:          0  HIT:          0  MISS:          0
cpu0_L2C TOTAL     ACCESS:     109262  HIT:      83531  MISS:      25731
cpu0_L2C LOAD      ACCESS:      85547  HIT:      62382  MISS:      23165
cpu0_L2C RFO       ACCESS:       8057  HIT:       6480  MISS:       1577
cpu0_L2C PREFETCH  ACCESS:          0  HIT:          0  MISS:          0
cpu0_L2C WRITEBACK ACCESS:      15604  HIT:      14628  MISS:        976
LLC TOTAL     ACCESS:      29041  HIT:      28326  MISS:        715
LLC LOAD      ACCESS:      23165  HIT:      22714  MISS:        451
LLC RFO       ACCESS:       1574  HIT:       1310  MISS:        264
LLC PREFETCH  ACCESS:          0  HIT:          0  MISS:          0
LLC WRITEBACK ACCESS:       4289  HIT:       4289  MISS:          0
Heartbeat CPU 0 instructions: 98000002 cycles: 62460919 heartbeat IPC: 0.952771 cumulative IPC: 0.96155 (Simulation time: 0 hr 49 min 39 sec) 

Region of Interest Statistics
cpu0_DTLB TOTAL     ACCESS:    9248500  HIT:    9229259  MISS:      19241
cpu0_DTLB LOAD      ACCESS:    6402061  HIT:    6383394  MISS:      18667
cpu0_DTLB RFO       ACCESS:    2846439  HIT:    2845865  MISS:        574
cpu0_DTLB PREFETCH  ACCESS:          0  HIT:          0  MISS:          0
cpu0_DTLB WRITEBACK ACCESS:          0  HIT:          0  MISS:          0
cpu0_ITLB TOTAL     ACCESS:    5088895  HIT:    5088895  MISS:          0
cpu0_ITLB LOAD      ACCESS:    5088895  HIT:    5088895  MISS:          0
cpu0_ITLB RFO       ACCESS:          0  HIT:          0  MISS:          0
cpu0_ITLB PREFETCH  ACCESS:          0  HIT:          0  MISS:          0
cpu0_ITLB WRITEBACK ACCESS:          0  HIT:          0  MISS:          0
cpu0_L1I TOTAL     ACCESS:    4659492  HIT:    4658488  MISS:       1004
cpu0_L1I LOAD      ACCESS:    4659492  HIT:    4658488  MISS:       1004
cpu0_L1I RFO       ACCESS:          0  HIT:          0  MISS:          0
cpu0_L1I PREFETCH  ACCESS:          0  HIT:          0  MISS:          0
cpu0_L1I WRITEBACK ACCESS:          0  HIT:          0  MISS:          0
cpu0_STLB TOTAL     ACCESS:      19241  HIT:      19175  MISS:         66
cpu0_STLB LOAD      ACCESS:      18667  HIT:      18605  MISS:         62
cpu0_STLB RFO       ACCESS:        574  HIT:        570  MISS:          4
cpu0_STLB PREFETCH  ACCESS:          0  HIT:          0  MISS:          0
cpu0_STLB WRITEBACK ACCESS:          0  HIT:          0  MISS:          0
cpu0_L1D TOTAL     ACCESS:   13079920  HIT:   12983562  MISS:      96358
cpu0_L1D LOAD      ACCESS:    7592088  HIT:    7504121  MISS:      87967
cpu0_L1D RFO       ACCESS:    5487767  HIT:    5479432  MISS:       8335
cpu0_L1D PREFETCH  ACCESS:          0  HIT:          0  MISS:          0
cpu0_L1D WRITEBACK ACCESS:          0  HIT:          0  MISS:          0
cpu0_L2C TOTAL     ACCESS:     113531  HIT:      86870  MISS:      26661
cpu0_L2C LOAD      ACCESS:      88970  HIT:      64944  MISS:      24026
cpu0_L2C RFO       ACCESS:       8335  HIT:       6709  MISS:       1626
cpu0_L2C PREFETCH  ACCESS:          0  HIT:          0  MISS:          0
cpu0_L2C WRITEBACK ACCESS:      16170  HIT:      15175  MISS:        995
LLC TOTAL     ACCESS:      30086  HIT:      29354  MISS:        732
LLC LOAD      ACCESS:      24026  HIT:      23558  MISS:        468
LLC RFO       ACCESS:       1623  HIT:       1359  MISS:        264
LLC PREFETCH  ACCESS:          0  HIT:          0  MISS:          0
LLC WRITEBACK ACCESS:       4423  HIT:       4423  MISS:          0
Heartbeat CPU 0 instructions: 100000000 cycles: 64518749 heartbeat IPC: 0.971897 cumulative IPC: 0.961959 (Simulation time: 0 hr 50 min 42 sec) 

Region of Interest Statistics
cpu0_DTLB TOTAL     ACCESS:    9635023  HIT:    9614862  MISS:      20161
cpu0_DTLB LOAD      ACCESS:    6670591  HIT:    6651025  MISS:      19566
cpu0_DTLB RFO       ACCESS:    2964432  HIT:    2963837  MISS:        595
cpu0_DTLB PREFETCH  ACCESS:          0  HIT:          0  MISS:          0
cpu0_DTLB WRITEBACK ACCESS:          0  HIT:          0  MISS:          0
cpu0_ITLB TOTAL     ACCESS:    5304000  HIT:    5304000  MISS:          0
cpu0_ITLB LOAD      ACCESS:    5304000  HIT:    5304000  MISS:          0
cpu0_ITLB RFO       ACCESS:          0  HIT:          0  MISS:          0
cpu0_ITLB PREFETCH  ACCESS:          0  HIT:          0  MISS:          0
cpu0_ITLB WRITEBACK ACCESS:          0  HIT:          0  MISS:          0
cpu0_L1I TOTAL     ACCESS:    4846733  HIT:    4845686  MISS:       1047
cpu0_L1I LOAD      ACCESS:    4846733  HIT:    4845686  MISS:       1047
cpu0_L1I RFO       ACCESS:          0  HIT:          0  MISS:          0
cpu0_L1I PREFETCH  ACCESS:          0  HIT:          0  MISS:          0
cpu0_L1I WRITEBACK ACCESS:          0  HIT:          0  MISS:          0
cpu0_STLB TOTAL     ACCESS:      20161  HIT:      20092  MISS:         69
cpu0_STLB LOAD      ACCESS:      19566  HIT:      19501  MISS:         65
cpu0_STLB RFO       ACCESS:        595  HIT:        591  MISS:          4
cpu0_STLB PREFETCH  ACCESS:          0  HIT:          0  MISS:          0
cpu0_STLB WRITEBACK ACCESS:          0  HIT:          0  MISS:          0
cpu0_L1D TOTAL     ACCESS:   13621691  HIT:   13520481  MISS:     101210
cpu0_L1D LOAD      ACCESS:    7910203  HIT:    7817805  MISS:      92398
cpu0_L1D RFO       ACCESS:    5711420  HIT:    5702667  MISS:       8753
cpu0_L1D PREFETCH  ACCESS:          0  HIT:          0  MISS:          0
cpu0_L1D WRITEBACK ACCESS:          0  HIT:          0  MISS:          0
cpu0_L2C TOTAL     ACCESS:     119214  HIT:      91446  MISS:      27768
cpu0_L2C LOAD      ACCESS:      93444  HIT:      68418  MISS:      25026
cpu0_L2C RFO       ACCESS:       8753  HIT:       7050  MISS:       1703
cpu0_L2C PREFETCH  ACCESS:          0  HIT:          0  MISS:          0
cpu0_L2C WRITEBACK ACCESS:      16958  HIT:      15934  MISS:       1024
LLC TOTAL     ACCESS:      31314  HIT:      30571  MISS:        743
LLC LOAD      ACCESS:      25026  HIT:      24547  MISS:        479
LLC RFO       ACCESS:       1700  HIT:       1436  MISS:        264
LLC PREFETCH  ACCESS:          0  HIT:          0  MISS:          0
LLC WRITEBACK ACCESS:       4573  HIT:       4573  MISS:          0
Heartbeat CPU 0 instructions: 102000000 cycles: 66547033 heartbeat IPC: 0.986055 cumulative IPC: 0.962864 (Simulation time: 0 hr 51 min 43 sec) 

Region of Interest Statistics
cpu0_DTLB TOTAL     ACCESS:   10023937  HIT:   10003098  MISS:      20839
cpu0_DTLB LOAD      ACCESS:    6942162  HIT:    6921936  MISS:      20226
cpu0_DTLB RFO       ACCESS:    3081775  HIT:    3081162  MISS:        613
cpu0_DTLB PREFETCH  ACCESS:          0  HIT:          0  MISS:          0
cpu0_DTLB WRITEBACK ACCESS:          0  HIT:          0  MISS:          0
cpu0_ITLB TOTAL     ACCESS:    5522389  HIT:    5522389  MISS:          0
cpu0_ITLB LOAD      ACCESS:    5522389  HIT:    5522389  MISS:          0
cpu0_ITLB RFO       ACCESS:          0  HIT:          0  MISS:          0
cpu0_ITLB PREFETCH  ACCESS:          0  HIT:          0  MISS:          0
cpu0_ITLB WRITEBACK ACCESS:          0  HIT:          0  MISS:          0
cpu0_L1I TOTAL     ACCESS:    5026894  HIT:    5025814  MISS:       1080
cpu0_L1I LOAD      ACCESS:    5026894  HIT:    5025814  MISS:       1080
cpu0_L1I RFO       ACCESS:          0  HIT:          0  MISS:          0
cpu0_L1I PREFETCH  ACCESS:          0  HIT:          0  MISS:          0
cpu0_L1I WRITEBACK ACCESS:          0  HIT:          0  MISS:          0
cpu0_STLB TOTAL     ACCESS:      20839  HIT:      20769  MISS:         70
cpu0_STLB LOAD      ACCESS:      20226  HIT:      20160  MISS:         66
cpu0_STLB RFO       ACCESS:        613  HIT:        609  MISS:          4
cpu0_STLB PREFETCH  ACCESS:          0  HIT:          0  MISS:          0
cpu0_STLB WRITEBACK ACCESS:          0  HIT:          0  MISS:          0
cpu0_L1D TOTAL     ACCESS:   14170213  HIT:   14065478  MISS:     104735
cpu0_L1D LOAD      ACCESS:    8233162  HIT:    8137517  MISS:      95645
cpu0_L1D RFO       ACCESS:    5936982  HIT:    5927952  MISS:       9030
cpu0_L1D PREFETCH  ACCESS:          0  HIT:          0  MISS:          0
cpu0_L1D WRITEBACK ACCESS:          0  HIT:          0  MISS:          0
cpu0_L2C TOTAL     ACCESS:     123343  HIT:      94714  MISS:      28629
cpu0_L2C LOAD      ACCESS:      96724  HIT:      70916  MISS:      25808
cpu0_L2C RFO       ACCESS:       9030  HIT:       7276  MISS:       1754
cpu0_L2C PREFETCH  ACCESS:          0  HIT:          0  MISS:          0
cpu0_L2C WRITEBACK ACCESS:      17529  HIT:      16477  MISS:       1052
LLC TOTAL     ACCESS:      32284  HIT:      31532  MISS:        752
LLC LOAD      ACCESS:      25808  HIT:      25320  MISS:        488
LLC RFO       ACCESS:       1751  HIT:       1487  MISS:        264
LLC PREFETCH  ACCESS:          0  HIT:          0  MISS:          0
LLC WRITEBACK ACCESS:       4710  HIT:       4710  MISS:          0
Heartbeat CPU 0 instructions: 104000002 cycles: 68618506 heartbeat IPC: 0.965497 cumulative IPC: 0.962961 (Simulation time: 0 hr 52 min 46 sec) 

Region of Interest Statistics
cpu0_DTLB TOTAL     ACCESS:   10408914  HIT:   10387274  MISS:      21640
cpu0_DTLB LOAD      ACCESS:    7208008  HIT:    7187006  MISS:      21002
cpu0_DTLB RFO       ACCESS:    3200906  HIT:    3200268  MISS:        638
cpu0_DTLB PREFETCH  ACCESS:          0  HIT:          0  MISS:          0
cpu0_DTLB WRITEBACK ACCESS:          0  HIT:          0  MISS:          0
cpu0_ITLB TOTAL     ACCESS:    5732091  HIT:    5732091  MISS:          0
cpu0_ITLB LOAD      ACCESS:    5732091  HIT:    5732091  MISS:          0
cpu0_ITLB RFO       ACCESS:          0  HIT:          0  MISS:          0
cpu0_ITLB PREFETCH  ACCESS:          0  HIT:          0  MISS:          0
cpu0_ITLB WRITEBACK ACCESS:          0  HIT:          0  MISS:          0
cpu0_L1I TOTAL     ACCESS:    5223432  HIT:    5222309  MISS:       1123
cpu0_L1I LOAD      ACCESS:    5223432  HIT:    5222309  MISS:       1123
cpu0_L1I RFO       ACCESS:          0  HIT:          0  MISS:          0
cpu0_L1I PREFETCH  ACCESS:          0  HIT:          0  MISS:          0
cpu0_L1I WRITEBACK ACCESS:          0  HIT:          0  MISS:          0
cpu0_STLB TOTAL     ACCESS:      21640  HIT:      21559  MISS:         81
cpu0_STLB LOAD      ACCESS:      21002  HIT:      20932  MISS:         70
cpu0_STLB RFO       ACCESS:        638  HIT:        627  MISS:         11
cpu0_STLB PREFETCH  ACCESS:          0  HIT:          0  MISS:          0
cpu0_STLB WRITEBACK ACCESS:          0  HIT:          0  MISS:          0
cpu0_L1D TOTAL     ACCESS:   14716418  HIT:   14607829  MISS:     108589
cpu0_L1D LOAD      ACCESS:    8547979  HIT:    8449019  MISS:      98960
cpu0_L1D RFO       ACCESS:    6168359  HIT:    6158792  MISS:       9567
cpu0_L1D PREFETCH  ACCESS:          0  HIT:          0  MISS:          0
cpu0_L1D WRITEBACK ACCESS:          0  HIT:          0  MISS:          0
cpu0_L2C TOTAL     ACCESS:     127972  HIT:      98084  MISS:      29888
cpu0_L2C LOAD      ACCESS:     100082  HIT:      73356  MISS:      26726
cpu0_L2C RFO       ACCESS:       9567  HIT:       7501  MISS:       2066
cpu0_L2C PREFETCH  ACCESS:          0  HIT:          0  MISS:          0
cpu0_L2C WRITEBACK ACCESS:      18261  HIT:      17182  MISS:       1079
LLC TOTAL     ACCESS:      33744  HIT:      32710  MISS:       1034
LLC LOAD      ACCESS:      26726  HIT:      26215  MISS:        511
LLC RFO       ACCESS:       2062  HIT:       1539  MISS:        523
LLC PREFETCH  ACCESS:          0  HIT:          0  MISS:          0
LLC WRITEBACK ACCESS:       4939  HIT:       4939  MISS:          0
Heartbeat CPU 0 instructions: 106000000 cycles: 70688416 heartbeat IPC: 0.966225 cumulative IPC: 0.963078 (Simulation time: 0 hr 53 min 47 sec) 

Region of Interest Statistics
cpu0_DTLB TOTAL     ACCESS:   10788049  HIT:   10765533  MISS:      22516
cpu0_DTLB LOAD      ACCESS:    7470525  HIT:    7448680  MISS:      21845
cpu0_DTLB RFO       ACCESS:    3317524  HIT:    3316853  MISS:        671
cpu0_DTLB PREFETCH  ACCESS:          0  HIT:          0  MISS:          0
cpu0_DTLB WRITEBACK ACCESS:          0  HIT:          0  MISS:          0
cpu0_ITLB TOTAL     ACCESS:    5944457  HIT:    5944457  MISS:          0
cpu0_ITLB LOAD      ACCESS:    5944457  HIT:    5944457  MISS:          0
cpu0_ITLB RFO       ACCESS:          0  HIT:          0  MISS:          0
cpu0_ITLB PREFETCH  ACCESS:          0  HIT:          0  MISS:          0
cpu0_ITLB WRITEBACK ACCESS:          0  HIT:          0  MISS:          0
cpu0_L1I TOTAL     ACCESS:    5407755  HIT:    5406574  MISS:       1181
cpu0_L1I LOAD      ACCESS:    5407755  HIT:    5406574  MISS:       1181
cpu0_L1I RFO       ACCESS:          0  HIT:          0  MISS:          0
cpu0_L1I PREFETCH  ACCESS:          0  HIT:          0  MISS:          0
cpu0_L1I WRITEBACK ACCESS:          0  HIT:          0  MISS:          0
cpu0_STLB TOTAL     ACCESS:      22516  HIT:      22432  MISS:         84
cpu0_STLB LOAD      ACCESS:      21845  HIT:      21772  MISS:         73
cpu0_STLB RFO       ACCESS:        671  HIT:        660  MISS:         11
cpu0_STLB PREFETCH  ACCESS:          0  HIT:          0  MISS:          0
cpu0_STLB WRITEBACK ACCESS:          0  HIT:          0  MISS:          0
cpu0_L1D TOTAL     ACCESS:   15247686  HIT:   15132588  MISS:     115098
cpu0_L1D LOAD      ACCESS:    8858663  HIT:    8753876  MISS:     104787
cpu0_L1D RFO       ACCESS:    6388940  HIT:    6378694  MISS:      10246
cpu0_L1D PREFETCH  ACCESS:          0  HIT:          0  MISS:          0
cpu0_L1D WRITEBACK ACCESS:          0  HIT:          0  MISS:          0
cpu0_L2C TOTAL     ACCESS:     135882  HIT:     104125  MISS:      31757
cpu0_L2C LOAD      ACCESS:     105967  HIT:      77591  MISS:      28376
cpu0_L2C RFO       ACCESS:      10246  HIT:       8027  MISS:       2219
cpu0_L2C PREFETCH  ACCESS:          0  HIT:          0  MISS:          0
[...]
cpu0_DTLB TOTAL     ACCESS:  288395677  HIT:  287790747  MISS:     604930
cpu0_DTLB LOAD      ACCESS:  199760020  HIT:  199174110  MISS:     585910
cpu0_DTLB RFO       ACCESS:   88635657  HIT:   88616637  MISS:      19020
cpu0_DTLB PREFETCH  ACCESS:          0  HIT:          0  MISS:          0
cpu0_DTLB WRITEBACK ACCESS:          0  HIT:          0  MISS:          0
cpu0_DTLB TRANSLATION ACCESS:          0  HIT:          0  MISS:          0
cpu0_DTLB PREFETCH  REQUESTED:          0  ISSUED:          0  USEFUL:          0  USELESS:          0
cpu0_DTLB AVERAGE MISS LATENCY: 9.49654 cycles
cpu0_ITLB TOTAL     ACCESS:  158266737  HIT:  158266658  MISS:         79
cpu0_ITLB LOAD      ACCESS:  158266737  HIT:  158266658  MISS:         79
cpu0_ITLB RFO       ACCESS:          0  HIT:          0  MISS:          0
cpu0_ITLB PREFETCH  ACCESS:          0  HIT:          0  MISS:          0
cpu0_ITLB WRITEBACK ACCESS:          0  HIT:          0  MISS:          0
cpu0_ITLB TRANSLATION ACCESS:          0  HIT:          0  MISS:          0
cpu0_ITLB PREFETCH  REQUESTED:          0  ISSUED:          0  USEFUL:          0  USELESS:          0
cpu0_ITLB AVERAGE MISS LATENCY: 110.304 cycles
cpu0_L1I TOTAL     ACCESS:  143312076  HIT:  143280307  MISS:      31769
cpu0_L1I LOAD      ACCESS:  143312076  HIT:  143280307  MISS:      31769
cpu0_L1I RFO       ACCESS:          0  HIT:          0  MISS:          0
cpu0_L1I PREFETCH  ACCESS:          0  HIT:          0  MISS:          0
cpu0_L1I WRITEBACK ACCESS:          0  HIT:          0  MISS:          0
cpu0_L1I TRANSLATION ACCESS:          0  HIT:          0  MISS:          0
cpu0_L1I PREFETCH  REQUESTED:          0  ISSUED:          0  USEFUL:          0  USELESS:          0
cpu0_L1I AVERAGE MISS LATENCY: 31.5384 cycles
cpu0_STLB TOTAL     ACCESS:     605009  HIT:     603040  MISS:       1969
cpu0_STLB LOAD      ACCESS:     585989  HIT:     584732  MISS:       1257
cpu0_STLB RFO       ACCESS:      19020  HIT:      18308  MISS:        712
cpu0_STLB PREFETCH  ACCESS:          0  HIT:          0  MISS:          0
cpu0_STLB WRITEBACK ACCESS:          0  HIT:          0  MISS:          0
cpu0_STLB TRANSLATION ACCESS:          0  HIT:          0  MISS:          0
cpu0_STLB PREFETCH  REQUESTED:          0  ISSUED:          0  USEFUL:          0  USELESS:          0
cpu0_STLB AVERAGE MISS LATENCY: 156.581 cycles
cpu0_L1D TOTAL     ACCESS:  406504003  HIT:  402961366  MISS:    3542637
cpu0_L1D LOAD      ACCESS:  236549169  HIT:  233399770  MISS:    3149399
cpu0_L1D RFO       ACCESS:  169952868  HIT:  169560342  MISS:     392526
cpu0_L1D PREFETCH  ACCESS:          0  HIT:          0  MISS:          0
cpu0_L1D WRITEBACK ACCESS:          0  HIT:          0  MISS:          0
cpu0_L1D TRANSLATION ACCESS:       1966  HIT:       1254  MISS:        712
cpu0_L1D PREFETCH  REQUESTED:          0  ISSUED:          0  USEFUL:          0  USELESS:          0
cpu0_L1D AVERAGE MISS LATENCY: 25.1091 cycles
cpu0_L2C TOTAL     ACCESS:    4249813  HIT:    3078037  MISS:    1171776
cpu0_L2C LOAD      ACCESS:    3181128  HIT:    2174098  MISS:    1007030
cpu0_L2C RFO       ACCESS:     392521  HIT:     274386  MISS:     118135
cpu0_L2C PREFETCH  ACCESS:          0  HIT:          0  MISS:          0
cpu0_L2C WRITEBACK ACCESS:     675452  HIT:     629162  MISS:      46290
cpu0_L2C TRANSLATION ACCESS:        712  HIT:        391  MISS:        321
cpu0_L2C PREFETCH  REQUESTED:          0  ISSUED:          0  USEFUL:          0  USELESS:          0
cpu0_L2C AVERAGE MISS LATENCY: 43.177 cycles
LLC TOTAL     ACCESS:    1355100  HIT:    1231092  MISS:     124008
LLC LOAD      ACCESS:    1007029  HIT:     944569  MISS:      62460
LLC RFO       ACCESS:     118078  HIT:      56556  MISS:      61522
LLC PREFETCH  ACCESS:          0  HIT:          0  MISS:          0
LLC WRITEBACK ACCESS:     229672  HIT:     229652  MISS:         20
LLC TRANSLATION ACCESS:        321  HIT:        315  MISS:          6
LLC PREFETCH  REQUESTED:          0  ISSUED:          0  USEFUL:          0  USELESS:          0
LLC AVERAGE MISS LATENCY: 217.403 cycles
~~~~~~~~~~Reuse Distance Profiler output~~~~~~~~~~
0	98999696	13212000
1	33621504	13364096
2	24719584	11567600
3	14720272	8804352
4	14155808	8654048
5	12546832	7992544
6	11913808	7579312
7	8743632	5794496
8	7775712	5811344
9	7509472	5493248
10	7074112	5007088
11	7115872	5408720
12	6947504	5843760
13	5758432	4666800
14	5425744	4392176
15	4517536	3718336
16	5070176	4001696
17	4812000	3324368
18	3923184	3057760
19	3672784	2631392
20	2752064	2271008
21	2753072	2253456
22	2647504	2299440
23	2592560	2157296
24	2430656	1954848
25	2591264	2232624
26	2869200	2147552
27	2270176	1937680
28	1955312	1708800
29	1730624	1507136
30	1804832	1583184
31	1806800	1575744
32	1713200	1462448
33	1702096	1475088
34	1962464	1366944
35	1385488	1170592
36	1198432	1063664
37	1082256	978800
38	1036128	952976
39	929920	850544
40	928656	833488
41	951696	884640
42	1053952	995920
43	868528	816272
44	887568	838768
45	784656	738560
46	888816	847376
47	794432	755136
48	849216	806048
49	751456	708192
50	728032	677456
51	750464	685584
52	755360	690480
53	790112	723280
54	827952	758512
55	797216	724448
56	816784	739552
57	861488	777872
58	814560	731936
59	803392	714752
60	802768	707344
61	802304	703424
62	865440	760400
63	868032	757760
64	1985360	1755360
66	1904768	1653824
68	1698336	1461216
70	1465488	1277760
72	1325472	1154400
74	1274320	1110768
76	1203680	1045776
78	1154976	981168
80	1039568	890032
82	970608	855600
84	925904	820832
86	897680	796000
88	838080	741776
90	769504	667824
92	696544	607472
94	670832	579408
96	632080	548064
98	597904	526704
100	559248	499328
102	531696	481664
104	508528	464688
106	490592	446416
108	476112	436432
110	461184	427440
112	453824	419392
114	440624	405584
116	420128	384768
118	400640	365424
120	374400	339376
122	365632	331648
124	347920	313264
126	341920	306416
128	665248	593456
132	660544	591936
136	635280	571584
140	603856	545184
144	568944	515568
148	557008	508288
152	538784	487200
156	473600	424784
160	440144	393200
164	426976	380624
168	397520	352096
172	372960	328496
176	366112	318848
180	349424	298048
184	334128	283840
188	325936	274944
192	323984	274656
196	311312	264368
200	306432	263616
204	304352	262592
208	288816	253536
212	279664	246000
216	272848	240720
220	266672	237904
224	248208	222176
228	241552	215968
232	229296	205008
236	231808	206032
240	225824	199616
244	226432	198848
248	223408	193168
252	215776	185232
256	433088	371024
264	411824	353056
272	400960	349152
280	388784	342944
288	378064	333840
296	377216	334128
304	383968	338496
312	365024	314784
320	362448	309504
328	351216	298880
336	343936	292768
344	329904	281520
352	317072	269520
360	309344	265024
368	297472	253968
376	290336	244976
384	275888	229424
392	269520	224864
400	260176	218624
408	252672	212016
416	245024	206720
424	236688	198256
432	231856	192896
440	223152	182368
448	224448	183968
456	216608	178592
464	215328	177392
472	211520	175056
480	205392	170032
488	201328	166320
496	196880	162000
504	200480	164832
512	392544	321808
528	389696	321632
544	377600	313344
560	370480	307056
576	367328	309616
592	374208	316128
608	364128	308576
624	354224	300608
640	333312	280848
656	321488	273072
672	299088	258528
688	282176	243008
704	267408	229232
720	249376	216016
736	241024	209152
752	232528	204400
768	215264	189456
784	196560	174864
800	184752	164512
816	184144	161408
832	180000	159040
848	171840	153792
864	165056	148112
880	158080	142608
896	156848	141328
912	154832	141664
928	146128	131488
944	139760	125744
960	137344	123584
976	131792	119360
992	127360	115552
1008	123040	110800
1024	245472	219616
1056	222832	199776
1088	221056	197200
1120	210112	187952
1152	201184	179920
1184	200352	176960
1216	197872	174704
1248	192944	171072
1280	180928	161040
1312	171472	153536
1344	165280	147648
1376	164304	145824
1408	156544	139488
1440	150944	135552
1472	145088	130320
1504	134080	121312
1536	130848	117984
1568	126528	115168
1600	118976	107552
1632	116240	105440
1664	110064	99648
1696	109232	98448
1728	105152	94528
1760	101968	91808
1792	98768	88896
1824	96096	85744
1856	96688	86528
1888	89712	79952
1920	90560	80192
1952	89616	79376
1984	91392	79248
2016	87840	77408
2048	176272	152960
2112	163520	142768
2176	153168	136384
2240	147712	130992
2304	137808	122656
2368	138752	123888
2432	135232	119200
2496	129936	115216
2560	132688	118704
2624	130096	116224
2688	126544	112336
2752	122880	109360
2816	135856	122992
2880	158208	146784
2944	164368	152704
3008	165344	151888
3072	148688	137696
3136	136576	125072
3200	130384	118400
3264	124544	112592
3328	112064	101040
3392	101408	87232
3456	83360	68928
3520	75424	61888
3584	75024	61136
3648	71968	58944
3712	67712	55792
3776	66368	54896
3840	67264	55488
3904	64304	52512
3968	63744	53616
4032	60160	49536
4096	116832	96656
4224	106208	88176
4352	105536	86288
4480	104080	82832
4608	97664	76448
4736	125472	104592
4864	150480	131200
4992	162304	144208
5120	166304	150272
5248	153936	139168
5376	127888	113472
5504	75328	61696
5632	65536	51120
5760	60640	47200
5888	60624	46768
6016	58384	44112
6144	56672	41856
6272	61424	47120
6400	78528	63200
6528	80496	67840
6656	80448	67216
6784	69184	57184
6912	55280	41424
7040	45456	32704
7168	43824	31872
7296	41136	29456
7424	39968	28288
7552	39296	27952
7680	37936	26464
7808	36368	26288
7936	35664	26096
8064	32800	23600
8192	63248	46544
8448	59680	43888
8704	57264	40960
8960	56896	40160
9216	50240	35920
9472	49136	35360
9728	46640	34016
9984	43072	30912
10240	42224	29520
10496	40832	29184
10752	38640	28192
11008	35872	25360
11264	33808	24016
11520	33312	23328
11776	33392	23344
12032	31056	21904
12288	29856	21040
12544	29552	20752
12800	27152	18816
13056	26464	17520
13312	24656	16608
13568	24912	17312
13824	24496	16992
14080	22736	15600
14336	23264	16768
14592	21696	15600
14848	19968	14400
15104	20416	14416
15360	18992	13952
15616	18176	12960
15872	16528	11904
16128	16240	11904
16384	30576	21952
16896	29728	22096
17408	29152	21232
17920	27584	20224
18432	25248	19072
18944	23968	18064
19456	23248	17920
19968	22064	16944
20480	21232	16304
20992	19680	14960
21504	18848	14352
22016	17376	13600
22528	17280	13520
23040	17888	13888
23552	17568	13840
24064	15728	12384
24576	14832	11520
25088	14256	11440
25600	13488	11104
26112	13488	10976
26624	11232	9056
27136	13120	10624
27648	12416	10464
28160	11200	9104
28672	11088	8832
29184	10448	8352
29696	10848	9280
30208	10896	9152
30720	10112	8256
31232	9760	8304
31744	9536	8144
32256	9792	8400
32768	18272	15760
33792	16176	14192
34816	15728	13952
35840	15056	13216
36864	15008	13392
37888	13824	12352
38912	13376	11760
39936	12896	11584
40960	12704	11440
41984	12112	10864
43008	10736	9792
44032	10480	9408
45056	10448	9392
46080	9424	8848
47104	9840	9088
48128	9392	8464
49152	9024	8448
50176	8464	7760
51200	7872	7216
52224	7552	6912
53248	7664	7152
54272	7312	6720
55296	8064	7488
56320	7312	6816
57344	6896	6560
58368	6272	5824
59392	6576	6208
60416	6400	6000
61440	6448	6160
62464	5552	5200
63488	6304	5792
64512	5536	5264
65536	11600	10960
67584	10928	10320
69632	10928	10432
71680	10336	9856
73728	10096	9648
75776	9664	9296
77824	8704	8224
79872	8816	8544
81920	8928	8592
83968	7888	7584
86016	8496	8112
88064	8592	8224
90112	7808	7440
92160	7472	7216
94208	7296	6992
96256	7216	7008
98304	7072	6848
100352	7360	7168
102400	7120	6864
104448	7168	6768
106496	7632	7184
108544	7152	6944
110592	6912	6560
112640	7040	6736
114688	7104	6912
116736	6832	6560
118784	7360	7008
120832	7520	7328
122880	7584	7376
124928	7856	7616
126976	8592	8224
129024	8320	7968
131072	14704	14112
135168	15568	15088
139264	14720	14064
143360	16192	15680
147456	14384	13872
151552	16064	15552
155648	18544	17824
159744	18464	17904
163840	21328	20608
167936	24640	23584
172032	30128	28608
176128	33248	31792
180224	39184	37280
184320	53648	50944
188416	65296	61152
192512	76768	72720
196608	81584	75568
200704	99776	94240
204800	119152	111936
208896	121088	112128
212992	117216	109168
217088	113888	105648
221184	123472	115408
225280	121856	113168
229376	117824	109104
233472	96976	89248
237568	86976	80576
241664	78416	73008
245760	64832	60192
249856	54704	50752
253952	55856	52208
258048	46912	43408
262144	59792	55840
270336	43056	40144
278528	27344	25552
286720	16560	15872
294912	11888	11344
303104	9088	8928
311296	8992	8864
319488	6864	6768
327680	5584	5568
335872	6384	6368
344064	7136	7024
352256	5888	5888
360448	5792	5792
368640	6160	6160
376832	6416	6416
385024	5968	5968
393216	7600	7600
401408	6720	6704
409600	7648	7648
417792	7552	7536
425984	7392	7392
434176	7232	7216
442368	7200	6976
450560	7184	7120
458752	6976	6960
466944	5968	5968
475136	4976	4928
483328	4240	4208
491520	4368	4368
499712	4304	4288
507904	3600	3600
516096	3712	3680
524288	5776	5760
540672	5200	5184
557056	5392	5392
573440	5456	5456
589824	5456	5424
606208	5760	5744
622592	6816	6800
638976	6304	6272
655360	7040	7008
671744	5632	5632
688128	6528	6496
704512	5072	5072
720896	4240	4176
737280	3424	3424
753664	2544	2544
770048	3040	3040
786432	3376	3344
802816	2624	2624
819200	3472	3472
835584	3520	3520
851968	3408	3408
868352	4080	4080
884736	3296	3280
901120	3120	3120
917504	3632	3616
933888	2672	2656
950272	2432	2432
966656	2352	2352
983040	2032	2032
999424	1888	1888
1015808	1872	1872
1032192	2064	2064
1048576	3776	3776
1081344	4528	4464
1114112	4896	4880
1146880	4784	4784
1179648	4000	4000
1212416	2880	2864
1245184	3072	3072
1277952	2176	2176
1310720	2688	2688
1343488	2912	2912
1376256	2544	2544
1409024	2576	2560
1441792	1920	1920
1474560	1840	1824
1507328	1872	1856
1540096	1840	1840
1572864	1968	1968
1605632	1600	1600
1638400	1568	1568
1671168	2064	2064
1703936	1648	1648
1736704	1648	1648
1769472	1344	1344
1802240	1520	1472
1835008	1744	1744
1867776	1472	1456
1900544	1280	1280
1933312	1408	1408
1966080	1344	1328
1998848	1168	1152
2031616	1312	1312
2064384	1520	1520
2097152	1968	1904
2162688	2416	2416
2228224	1904	1904
2293760	2304	2304
2359296	1872	1872
2424832	1760	1744
2490368	2112	2096
2555904	1632	1632
2621440	1520	1504
2686976	1360	1344
2752512	1200	1200
2818048	1184	1168
2883584	928	928
2949120	976	960
3014656	1600	1584
3080192	1328	1312
3145728	1024	1024
3211264	1600	1584
3276800	944	944
3342336	1040	1040
3407872	1280	1280
3473408	1248	1232
3538944	1696	1680
3604480	1920	1904
3670016	1040	1040
3735552	944	944
3801088	1120	1088
3866624	832	816
3932160	800	784
3997696	960	960
4063232	928	928
4128768	880	864
4194304	1824	1792
4325376	1488	1472
4456448	1264	1264
4587520	1168	1168
4718592	1216	1216
4849664	1344	1328
4980736	1376	1360
5111808	1088	1072
5242880	1488	1488
5373952	1712	1696
5505024	1136	1120
5636096	752	736
5767168	944	928
5898240	1232	1232
6029312	992	992
6160384	864	848
6291456	912	896
6422528	1488	1472
6553600	848	848
6684672	848	848
6815744	720	720
6946816	704	704
7077888	736	736
7208960	752	736
7340032	656	656
7471104	1072	1072
7602176	960	960
7733248	928	928
7864320	544	544
7995392	1344	1344
8126464	640	640
8257536	688	688
8388608	1712	1712
8650752	912	912
8912896	1504	1504
9175040	784	784
9437184	944	944
9699328	1328	1328
9961472	1088	1088
10223616	528	528
10485760	432	432
10747904	544	544
11010048	672	656
11272192	496	480
11534336	592	576
11796480	704	688
12058624	512	512
12320768	640	640
12582912	736	736
12845056	384	384
13107200	448	448
13369344	464	464
13631488	560	560
13893632	224	224
14155776	640	640
14417920	352	352
14680064	352	320
14942208	256	256
15204352	576	576
15466496	240	240
15728640	160	160
15990784	224	224
16252928	608	608
16515072	208	208
16777216	416	416
17301504	240	240
17825792	576	576
18350080	960	960
18874368	304	304
19398656	448	448
19922944	432	432
20447232	528	528
20971520	288	288
21495808	256	256
22020096	288	288
22544384	640	640
23068672	352	352
23592960	704	704
24117248	944	944
24641536	432	432
25165824	176	176
25690112	192	192
26214400	576	320
26738688	160	128
27262976	304	304
27787264	112	112
28311552	112	112
28835840	176	176
29360128	160	160
29884416	368	368
30408704	80	80
30932992	160	160
31457280	96	96
31981568	608	608
32505856	432	432
33030144	48	48
33554432	224	224
34603008	208	208
35651584	480	480
36700160	416	192
37748736	512	512
38797312	144	144
39845888	48	48
40894464	464	176
41943040	80	64
42991616	608	320
44040192	96	96
45088768	384	112
46137344	96	96
47185920	48	48
48234496	592	240
49283072	80	80
50331648	320	320
51380224	96	96
52428800	288	32
53477376	80	80
54525952	80	80
55574528	144	144
56623104	80	80
57671680	80	80
58720256	288	48
59768832	64	64
60817408	96	80
61865984	416	112
62914560	112	112
63963136	48	48
65011712	304	48
66060288	48	16
67108864	416	416
69206016	16	16
71303168	32	32
73400320	64	64
75497472	368	112
77594624	16	16
79691776	64	64
81788928	32	32
83886080	352	80
85983232	16	16
88080384	0	0
90177536	224	32
92274688	32	16
94371840	128	32
96468992	176	32
98566144	224	32
100663296	48	16
102760448	48	48
104857600	256	32
106954752	16	16
109051904	208	0
111149056	352	160
113246208	48	48
115343360	16	16
117440512	0	0
119537664	16	16
121634816	0	0
123731968	0	0
125829120	160	0
127926272	0	0
130023424	16	16
132120576	16	16
134217728	96	96
138412032	32	32
142606336	32	32
146800640	16	16
150994944	16	16
155189248	32	32
159383552	0	0
163577856	0	0
167772160	0	0
171966464	16	16
176160768	16	16
180355072	16	16
184549376	0	0
188743680	256	256
192937984	0	0
197132288	224	0
201326592	0	0
205520896	288	16
209715200	16	16
213909504	16	16
218103808	0	0
222298112	44240	15584
226492416	0	0
230686720	0	0
234881024	0	0
239075328	0	0
243269632	0	0
247463936	0	0
251658240	0	0
255852544	0	0
260046848	16	16
264241152	16	16
268435456	32	32
276824064	0	0
285212672	0	0
293601280	0	0
301989888	0	0
310378496	0	0
318767104	0	0
327155712	0	0
335544320	0	0
343932928	0	0
352321536	0	0
360710144	0	0
369098752	0	0
377487360	16	16
385875968	0	0
394264576	0	0
402653184	0	0
411041792	0	0
419430400	0	0
427819008	0	0
436207616	0	0
444596224	0	0
452984832	0	0
461373440	0	0
469762048	0	0
478150656	0	0
486539264	0	0
494927872	0	0
503316480	0	0
511705088	0	0
520093696	0	0
528482304	0	0
536870912	0	0
553648128	0	0
570425344	0	0
587202560	0	0
603979776	0	0
620756992	0	0
637534208	0	0
654311424	0	0
671088640	0	0
687865856	0	0
704643072	0	0
721420288	0	0
738197504	0	0
754974720	0	0
771751936	0	0
788529152	0	0
805306368	0	0
822083584	0	0
838860800	0	0
855638016	0	0
872415232	0	0
889192448	0	0
905969664	0	0
922746880	0	0
939524096	0	0
956301312	0	0
973078528	0	0
989855744	0	0
1006632960	0	0
1023410176	0	0
1040187392	0	0
1056964608	0	0
1073741824	0	0
1107296256	0	0
1140850688	0	0
1174405120	0	0
1207959552	0	0
1241513984	0	0
1275068416	0	0
1308622848	0	0
1342177280	0	0
1375731712	0	0
1409286144	0	0
1442840576	0	0
1476395008	0	0
1509949440	0	0
1543503872	0	0
1577058304	0	0
1610612736	0	0
1644167168	0	0
1677721600	0	0
1711276032	0	0
1744830464	0	0
1778384896	0	0
1811939328	0	0
1845493760	0	0
1879048192	0	0
1912602624	0	0
1946157056	0	0
1979711488	0	0
2013265920	0	0
2046820352	0	0
2080374784	0	0
2113929216	0	0
2147483648	0	0
2214592512	0	0
2281701376	0	0
2348810240	0	0
2415919104	0	0
2483027968	0	0
2550136832	0	0
2617245696	0	0
2684354560	0	0
2751463424	0	0
2818572288	0	0
2885681152	0	0
2952790016	0	0
3019898880	0	0
3087007744	0	0
3154116608	0	0
3221225472	0	0
3288334336	0	0
3355443200	0	0
3422552064	0	0
3489660928	0	0
3556769792	0	0
3623878656	0	0
3690987520	0	0
3758096384	0	0
3825205248	0	0
3892314112	0	0
3959422976	0	0
4026531840	0	0
4093640704	0	0
4160749568	0	0
4227858432	0	0
~~~~~~~~~~Reuse Distance Profiler output end~~~~~~~~~~

Sampler size:3582

DRAM Statistics
 CHANNEL 0
 RQ ROW_BUFFER_HIT:       6226  ROW_BUFFER_MISS:     117628
 DBUS AVG_CONGESTED_CYCLE:    3.97056
 WQ ROW_BUFFER_HIT:       4335  ROW_BUFFER_MISS:      43167  FULL:          0


CPU 0 Branch Prediction Accuracy: 85.2498% MPKI: 24.1232 Average ROB Occupancy at Mispredict: 16.1999
Branch type MPKI
BRANCH_DIRECT_JUMP: 7.73333e-05
BRANCH_INDIRECT: 0.000650667
BRANCH_CONDITIONAL: 24.1222
BRANCH_DIRECT_CALL: 0.000118
BRANCH_INDIRECT_CALL: 1.86667e-05
BRANCH_RETURN: 0.00011

