
*** ChampSim Multicore Out-of-Order Simulator ***

Warmup Instructions: 50000000
Simulation Instructions: 1500000000
Number of CPUs: 1
Off-chip DRAM Size: 4 GiB Channels: 1 Width: 64-bit Data Rate: 3200 MT/s

VirtualMemory physical capacity: 8588881920 num_ppages: 2096895
VirtualMemory page size: 4096 log2_page_size: 12

CPU 0 runs /s/traces/champsim_traces/400.perlbench-41B.champsimtrace.xz
CPU 0 Bimodal branch predictor
Basic BTB sets: 1024 ways: 8 indirect buffer size: 4096 RAS size: 64
Initializing LRU.
Initializing LRU.
Initializing LRU.
Initializing LRU.
Initializing rdLRU.
Initializing LRU.
Heartbeat CPU 0 instructions: 2000003 cycles: 500244 heartbeat IPC: 3.99805 cumulative IPC: 3.99805 (Simulation time: 0 hr 0 min 57 sec) 
Heartbeat CPU 0 instructions: 4000000 cycles: 1000539 heartbeat IPC: 3.99764 cumulative IPC: 3.99785 (Simulation time: 0 hr 1 min 49 sec) 
Heartbeat CPU 0 instructions: 6000000 cycles: 1500638 heartbeat IPC: 3.99921 cumulative IPC: 3.9983 (Simulation time: 0 hr 2 min 51 sec) 
Heartbeat CPU 0 instructions: 8000000 cycles: 2000849 heartbeat IPC: 3.99831 cumulative IPC: 3.9983 (Simulation time: 0 hr 3 min 51 sec) 
Heartbeat CPU 0 instructions: 10000001 cycles: 2501275 heartbeat IPC: 3.9966 cumulative IPC: 3.99796 (Simulation time: 0 hr 4 min 49 sec) 
Heartbeat CPU 0 instructions: 12000003 cycles: 3001513 heartbeat IPC: 3.9981 cumulative IPC: 3.99798 (Simulation time: 0 hr 5 min 40 sec) 
Heartbeat CPU 0 instructions: 14000000 cycles: 3604462 heartbeat IPC: 3.31703 cumulative IPC: 3.88407 (Simulation time: 0 hr 7 min 3 sec) 
Heartbeat CPU 0 instructions: 16000002 cycles: 4104808 heartbeat IPC: 3.99724 cumulative IPC: 3.89787 (Simulation time: 0 hr 8 min 8 sec) 
Heartbeat CPU 0 instructions: 18000001 cycles: 4605474 heartbeat IPC: 3.99468 cumulative IPC: 3.90839 (Simulation time: 0 hr 9 min 12 sec) 
Heartbeat CPU 0 instructions: 20000003 cycles: 5105870 heartbeat IPC: 3.99684 cumulative IPC: 3.91706 (Simulation time: 0 hr 10 min 10 sec) 
Heartbeat CPU 0 instructions: 22000003 cycles: 5605870 heartbeat IPC: 4 cumulative IPC: 3.92446 (Simulation time: 0 hr 11 min 7 sec) 
Heartbeat CPU 0 instructions: 24000003 cycles: 6105870 heartbeat IPC: 4 cumulative IPC: 3.93064 (Simulation time: 0 hr 12 min 5 sec) 
Heartbeat CPU 0 instructions: 26000003 cycles: 6605870 heartbeat IPC: 4 cumulative IPC: 3.93589 (Simulation time: 0 hr 13 min 5 sec) 
Heartbeat CPU 0 instructions: 28000003 cycles: 7105870 heartbeat IPC: 4 cumulative IPC: 3.9404 (Simulation time: 0 hr 14 min 2 sec) 
Heartbeat CPU 0 instructions: 30000003 cycles: 7605870 heartbeat IPC: 4 cumulative IPC: 3.94432 (Simulation time: 0 hr 15 min 1 sec) 
Heartbeat CPU 0 instructions: 32000003 cycles: 8105870 heartbeat IPC: 4 cumulative IPC: 3.94776 (Simulation time: 0 hr 15 min 57 sec) 
Heartbeat CPU 0 instructions: 34000003 cycles: 8605870 heartbeat IPC: 4 cumulative IPC: 3.95079 (Simulation time: 0 hr 16 min 55 sec) 
Heartbeat CPU 0 instructions: 36000003 cycles: 9105870 heartbeat IPC: 4 cumulative IPC: 3.95349 (Simulation time: 0 hr 17 min 50 sec) 
Heartbeat CPU 0 instructions: 38000003 cycles: 9605870 heartbeat IPC: 4 cumulative IPC: 3.95591 (Simulation time: 0 hr 18 min 48 sec) 
Heartbeat CPU 0 instructions: 40000003 cycles: 10105870 heartbeat IPC: 4 cumulative IPC: 3.9581 (Simulation time: 0 hr 19 min 44 sec) 
Heartbeat CPU 0 instructions: 42000003 cycles: 10605870 heartbeat IPC: 4 cumulative IPC: 3.96007 (Simulation time: 0 hr 20 min 43 sec) 
Heartbeat CPU 0 instructions: 44000003 cycles: 11105870 heartbeat IPC: 4 cumulative IPC: 3.96187 (Simulation time: 0 hr 21 min 42 sec) 
Heartbeat CPU 0 instructions: 46000003 cycles: 11605870 heartbeat IPC: 4 cumulative IPC: 3.96351 (Simulation time: 0 hr 22 min 37 sec) 
Heartbeat CPU 0 instructions: 48000003 cycles: 12105870 heartbeat IPC: 4 cumulative IPC: 3.96502 (Simulation time: 0 hr 23 min 29 sec) 
Heartbeat CPU 0 instructions: 50000003 cycles: 12605870 heartbeat IPC: 4 cumulative IPC: 3.96641 (Simulation time: 0 hr 24 min 23 sec) 

Warmup complete CPU 0 instructions: 50000003 cycles: 12605870 (Simulation time: 0 hr 24 min 23 sec) 

Heartbeat CPU 0 instructions: 52000000 cycles: 14410685 heartbeat IPC: 1.10815 cumulative IPC: 1.10815 (Simulation time: 0 hr 25 min 27 sec) 

Region of Interest Statistics
cpu0_DTLB TOTAL     ACCESS:     417198  HIT:     417040  MISS:        158
cpu0_DTLB LOAD      ACCESS:     293127  HIT:     292994  MISS:        133
cpu0_DTLB RFO       ACCESS:     124071  HIT:     124046  MISS:         25
cpu0_DTLB PREFETCH  ACCESS:          0  HIT:          0  MISS:          0
cpu0_DTLB WRITEBACK ACCESS:          0  HIT:          0  MISS:          0
cpu0_ITLB TOTAL     ACCESS:     188075  HIT:     188075  MISS:          0
cpu0_ITLB LOAD      ACCESS:     188075  HIT:     188075  MISS:          0
cpu0_ITLB RFO       ACCESS:          0  HIT:          0  MISS:          0
cpu0_ITLB PREFETCH  ACCESS:          0  HIT:          0  MISS:          0
cpu0_ITLB WRITEBACK ACCESS:          0  HIT:          0  MISS:          0
cpu0_L1I TOTAL     ACCESS:      62321  HIT:      62219  MISS:        102
cpu0_L1I LOAD      ACCESS:      62321  HIT:      62219  MISS:        102
cpu0_L1I RFO       ACCESS:          0  HIT:          0  MISS:          0
cpu0_L1I PREFETCH  ACCESS:          0  HIT:          0  MISS:          0
cpu0_L1I WRITEBACK ACCESS:          0  HIT:          0  MISS:          0
cpu0_STLB TOTAL     ACCESS:        158  HIT:        147  MISS:         11
cpu0_STLB LOAD      ACCESS:        133  HIT:        124  MISS:          9
cpu0_STLB RFO       ACCESS:         25  HIT:         23  MISS:          2
cpu0_STLB PREFETCH  ACCESS:          0  HIT:          0  MISS:          0
cpu0_STLB WRITEBACK ACCESS:          0  HIT:          0  MISS:          0
cpu0_L1D TOTAL     ACCESS:     479091  HIT:     478908  MISS:        183
cpu0_L1D LOAD      ACCESS:     269299  HIT:     269123  MISS:        176
cpu0_L1D RFO       ACCESS:     209781  HIT:     209775  MISS:          6
cpu0_L1D PREFETCH  ACCESS:          0  HIT:          0  MISS:          0
cpu0_L1D WRITEBACK ACCESS:          0  HIT:          0  MISS:          0
cpu0_L2C TOTAL     ACCESS:        299  HIT:        117  MISS:        182
cpu0_L2C LOAD      ACCESS:        278  HIT:        102  MISS:        176
cpu0_L2C RFO       ACCESS:          6  HIT:          0  MISS:          6
cpu0_L2C PREFETCH  ACCESS:          0  HIT:          0  MISS:          0
cpu0_L2C WRITEBACK ACCESS:         14  HIT:         14  MISS:          0
LLC TOTAL     ACCESS:        230  HIT:         50  MISS:        180
LLC LOAD      ACCESS:        176  HIT:          1  MISS:        175
LLC RFO       ACCESS:          6  HIT:          1  MISS:          5
LLC PREFETCH  ACCESS:          0  HIT:          0  MISS:          0
LLC WRITEBACK ACCESS:         48  HIT:         48  MISS:          0
Heartbeat CPU 0 instructions: 54000004 cycles: 16235839 heartbeat IPC: 1.0958 cumulative IPC: 1.10194 (Simulation time: 0 hr 26 min 27 sec) 

Region of Interest Statistics
cpu0_DTLB TOTAL     ACCESS:     821653  HIT:     820990  MISS:        663
cpu0_DTLB LOAD      ACCESS:     566111  HIT:     565553  MISS:        558
cpu0_DTLB RFO       ACCESS:     255542  HIT:     255437  MISS:        105
cpu0_DTLB PREFETCH  ACCESS:          0  HIT:          0  MISS:          0
cpu0_DTLB WRITEBACK ACCESS:          0  HIT:          0  MISS:          0
cpu0_ITLB TOTAL     ACCESS:     356894  HIT:     356894  MISS:          0
cpu0_ITLB LOAD      ACCESS:     356894  HIT:     356894  MISS:          0
cpu0_ITLB RFO       ACCESS:          0  HIT:          0  MISS:          0
cpu0_ITLB PREFETCH  ACCESS:          0  HIT:          0  MISS:          0
cpu0_ITLB WRITEBACK ACCESS:          0  HIT:          0  MISS:          0
cpu0_L1I TOTAL     ACCESS:     155625  HIT:     155186  MISS:        439
cpu0_L1I LOAD      ACCESS:     155625  HIT:     155186  MISS:        439
cpu0_L1I RFO       ACCESS:          0  HIT:          0  MISS:          0
cpu0_L1I PREFETCH  ACCESS:          0  HIT:          0  MISS:          0
cpu0_L1I WRITEBACK ACCESS:          0  HIT:          0  MISS:          0
cpu0_STLB TOTAL     ACCESS:        663  HIT:        629  MISS:         34
cpu0_STLB LOAD      ACCESS:        558  HIT:        528  MISS:         30
cpu0_STLB RFO       ACCESS:        105  HIT:        101  MISS:          4
cpu0_STLB PREFETCH  ACCESS:          0  HIT:          0  MISS:          0
cpu0_STLB WRITEBACK ACCESS:          0  HIT:          0  MISS:          0
cpu0_L1D TOTAL     ACCESS:     986057  HIT:     985283  MISS:        774
cpu0_L1D LOAD      ACCESS:     524006  HIT:     523259  MISS:        747
cpu0_L1D RFO       ACCESS:     462017  HIT:     461991  MISS:         26
cpu0_L1D PREFETCH  ACCESS:          0  HIT:          0  MISS:          0
cpu0_L1D WRITEBACK ACCESS:          0  HIT:          0  MISS:          0
cpu0_L2C TOTAL     ACCESS:       1293  HIT:        511  MISS:        782
cpu0_L2C LOAD      ACCESS:       1186  HIT:        428  MISS:        758
cpu0_L2C RFO       ACCESS:         26  HIT:          2  MISS:         24
cpu0_L2C PREFETCH  ACCESS:          0  HIT:          0  MISS:          0
cpu0_L2C WRITEBACK ACCESS:         80  HIT:         80  MISS:          0
LLC TOTAL     ACCESS:        972  HIT:        218  MISS:        754
LLC LOAD      ACCESS:        758  HIT:         24  MISS:        734
LLC RFO       ACCESS:         24  HIT:          5  MISS:         19
LLC PREFETCH  ACCESS:          0  HIT:          0  MISS:          0
LLC WRITEBACK ACCESS:        190  HIT:        189  MISS:          1
Heartbeat CPU 0 instructions: 56000002 cycles: 17890388 heartbeat IPC: 1.20879 cumulative IPC: 1.13539 (Simulation time: 0 hr 27 min 24 sec) 

Region of Interest Statistics
cpu0_DTLB TOTAL     ACCESS:    1203603  HIT:    1202300  MISS:       1303
cpu0_DTLB LOAD      ACCESS:     825784  HIT:     824691  MISS:       1093
cpu0_DTLB RFO       ACCESS:     377819  HIT:     377609  MISS:        210
cpu0_DTLB PREFETCH  ACCESS:          0  HIT:          0  MISS:          0
cpu0_DTLB WRITEBACK ACCESS:          0  HIT:          0  MISS:          0
cpu0_ITLB TOTAL     ACCESS:     509831  HIT:     509831  MISS:          0
cpu0_ITLB LOAD      ACCESS:     509831  HIT:     509831  MISS:          0
cpu0_ITLB RFO       ACCESS:          0  HIT:          0  MISS:          0
cpu0_ITLB PREFETCH  ACCESS:          0  HIT:          0  MISS:          0
cpu0_ITLB WRITEBACK ACCESS:          0  HIT:          0  MISS:          0
cpu0_L1I TOTAL     ACCESS:     266209  HIT:     265390  MISS:        819
cpu0_L1I LOAD      ACCESS:     266209  HIT:     265390  MISS:        819
cpu0_L1I RFO       ACCESS:          0  HIT:          0  MISS:          0
cpu0_L1I PREFETCH  ACCESS:          0  HIT:          0  MISS:          0
cpu0_L1I WRITEBACK ACCESS:          0  HIT:          0  MISS:          0
cpu0_STLB TOTAL     ACCESS:       1303  HIT:       1237  MISS:         66
cpu0_STLB LOAD      ACCESS:       1093  HIT:       1034  MISS:         59
cpu0_STLB RFO       ACCESS:        210  HIT:        203  MISS:          7
cpu0_STLB PREFETCH  ACCESS:          0  HIT:          0  MISS:          0
cpu0_STLB WRITEBACK ACCESS:          0  HIT:          0  MISS:          0
cpu0_L1D TOTAL     ACCESS:    1468489  HIT:    1466921  MISS:       1568
cpu0_L1D LOAD      ACCESS:     764406  HIT:     762887  MISS:       1519
cpu0_L1D RFO       ACCESS:     704017  HIT:     703970  MISS:         47
cpu0_L1D PREFETCH  ACCESS:          0  HIT:          0  MISS:          0
cpu0_L1D WRITEBACK ACCESS:          0  HIT:          0  MISS:          0
cpu0_L2C TOTAL     ACCESS:       2555  HIT:        990  MISS:       1565
cpu0_L2C LOAD      ACCESS:       2338  HIT:        815  MISS:       1523
cpu0_L2C RFO       ACCESS:         47  HIT:          5  MISS:         42
cpu0_L2C PREFETCH  ACCESS:          0  HIT:          0  MISS:          0
cpu0_L2C WRITEBACK ACCESS:        168  HIT:        168  MISS:          0
LLC TOTAL     ACCESS:       1883  HIT:        364  MISS:       1519
LLC LOAD      ACCESS:       1523  HIT:         43  MISS:       1480
LLC RFO       ACCESS:         42  HIT:          6  MISS:         36
LLC PREFETCH  ACCESS:          0  HIT:          0  MISS:          0
LLC WRITEBACK ACCESS:        318  HIT:        315  MISS:          3
Heartbeat CPU 0 instructions: 58000000 cycles: 19592911 heartbeat IPC: 1.17473 cumulative IPC: 1.14498 (Simulation time: 0 hr 28 min 22 sec) 

Region of Interest Statistics
cpu0_DTLB TOTAL     ACCESS:    1599622  HIT:    1597904  MISS:       1718
cpu0_DTLB LOAD      ACCESS:    1097297  HIT:    1095850  MISS:       1447
cpu0_DTLB RFO       ACCESS:     502325  HIT:     502054  MISS:        271
cpu0_DTLB PREFETCH  ACCESS:          0  HIT:          0  MISS:          0
cpu0_DTLB WRITEBACK ACCESS:          0  HIT:          0  MISS:          0
cpu0_ITLB TOTAL     ACCESS:     674078  HIT:     674078  MISS:          0
cpu0_ITLB LOAD      ACCESS:     674078  HIT:     674078  MISS:          0
cpu0_ITLB RFO       ACCESS:          0  HIT:          0  MISS:          0
cpu0_ITLB PREFETCH  ACCESS:          0  HIT:          0  MISS:          0
cpu0_ITLB WRITEBACK ACCESS:          0  HIT:          0  MISS:          0
cpu0_L1I TOTAL     ACCESS:     362044  HIT:     361004  MISS:       1040
cpu0_L1I LOAD      ACCESS:     362044  HIT:     361004  MISS:       1040
cpu0_L1I RFO       ACCESS:          0  HIT:          0  MISS:          0
cpu0_L1I PREFETCH  ACCESS:          0  HIT:          0  MISS:          0
cpu0_L1I WRITEBACK ACCESS:          0  HIT:          0  MISS:          0
cpu0_STLB TOTAL     ACCESS:       1718  HIT:       1635  MISS:         83
cpu0_STLB LOAD      ACCESS:       1447  HIT:       1373  MISS:         74
cpu0_STLB RFO       ACCESS:        271  HIT:        262  MISS:          9
cpu0_STLB PREFETCH  ACCESS:          0  HIT:          0  MISS:          0
cpu0_STLB WRITEBACK ACCESS:          0  HIT:          0  MISS:          0
cpu0_L1D TOTAL     ACCESS:    1953111  HIT:    1951051  MISS:       2060
cpu0_L1D LOAD      ACCESS:    1014800  HIT:    1012804  MISS:       1996
cpu0_L1D RFO       ACCESS:     938228  HIT:     938166  MISS:         62
cpu0_L1D PREFETCH  ACCESS:          0  HIT:          0  MISS:          0
cpu0_L1D WRITEBACK ACCESS:          0  HIT:          0  MISS:          0
cpu0_L2C TOTAL     ACCESS:       3316  HIT:       1261  MISS:       2055
cpu0_L2C LOAD      ACCESS:       3036  HIT:       1036  MISS:       2000
cpu0_L2C RFO       ACCESS:         62  HIT:          7  MISS:         55
cpu0_L2C PREFETCH  ACCESS:          0  HIT:          0  MISS:          0
cpu0_L2C WRITEBACK ACCESS:        216  HIT:        216  MISS:          0
LLC TOTAL     ACCESS:       2454  HIT:        451  MISS:       2003
LLC LOAD      ACCESS:       2000  HIT:         50  MISS:       1950
LLC RFO       ACCESS:         55  HIT:          6  MISS:         49
LLC PREFETCH  ACCESS:          0  HIT:          0  MISS:          0
LLC WRITEBACK ACCESS:        399  HIT:        395  MISS:          4
Heartbeat CPU 0 instructions: 60000001 cycles: 21342871 heartbeat IPC: 1.14288 cumulative IPC: 1.14456 (Simulation time: 0 hr 29 min 22 sec) 

Region of Interest Statistics
cpu0_DTLB TOTAL     ACCESS:    2006152  HIT:    2004188  MISS:       1964
cpu0_DTLB LOAD      ACCESS:    1380253  HIT:    1378604  MISS:       1649
cpu0_DTLB RFO       ACCESS:     625899  HIT:     625584  MISS:        315
cpu0_DTLB PREFETCH  ACCESS:          0  HIT:          0  MISS:          0
cpu0_DTLB WRITEBACK ACCESS:          0  HIT:          0  MISS:          0
cpu0_ITLB TOTAL     ACCESS:     852334  HIT:     852334  MISS:          0
cpu0_ITLB LOAD      ACCESS:     852334  HIT:     852334  MISS:          0
cpu0_ITLB RFO       ACCESS:          0  HIT:          0  MISS:          0
cpu0_ITLB PREFETCH  ACCESS:          0  HIT:          0  MISS:          0
cpu0_ITLB WRITEBACK ACCESS:          0  HIT:          0  MISS:          0
cpu0_L1I TOTAL     ACCESS:     440197  HIT:     439002  MISS:       1195
cpu0_L1I LOAD      ACCESS:     440197  HIT:     439002  MISS:       1195
cpu0_L1I RFO       ACCESS:          0  HIT:          0  MISS:          0
cpu0_L1I PREFETCH  ACCESS:          0  HIT:          0  MISS:          0
cpu0_L1I WRITEBACK ACCESS:          0  HIT:          0  MISS:          0
cpu0_STLB TOTAL     ACCESS:       1964  HIT:       1870  MISS:         94
cpu0_STLB LOAD      ACCESS:       1649  HIT:       1565  MISS:         84
cpu0_STLB RFO       ACCESS:        315  HIT:        305  MISS:         10
cpu0_STLB PREFETCH  ACCESS:          0  HIT:          0  MISS:          0
cpu0_STLB WRITEBACK ACCESS:          0  HIT:          0  MISS:          0
cpu0_L1D TOTAL     ACCESS:    2432975  HIT:    2430628  MISS:       2347
cpu0_L1D LOAD      ACCESS:    1274677  HIT:    1272402  MISS:       2275
cpu0_L1D RFO       ACCESS:    1158204  HIT:    1158134  MISS:         70
cpu0_L1D PREFETCH  ACCESS:          0  HIT:          0  MISS:          0
cpu0_L1D WRITEBACK ACCESS:          0  HIT:          0  MISS:          0
cpu0_L2C TOTAL     ACCESS:       3780  HIT:       1439  MISS:       2341
cpu0_L2C LOAD      ACCESS:       3470  HIT:       1192  MISS:       2278
cpu0_L2C RFO       ACCESS:         70  HIT:          7  MISS:         63
cpu0_L2C PREFETCH  ACCESS:          0  HIT:          0  MISS:          0
cpu0_L2C WRITEBACK ACCESS:        238  HIT:        238  MISS:          0
LLC TOTAL     ACCESS:       2792  HIT:        505  MISS:       2287
LLC LOAD      ACCESS:       2278  HIT:         52  MISS:       2226
LLC RFO       ACCESS:         63  HIT:          6  MISS:         57
LLC PREFETCH  ACCESS:          0  HIT:          0  MISS:          0
LLC WRITEBACK ACCESS:        451  HIT:        447  MISS:          4
Heartbeat CPU 0 instructions: 62000002 cycles: 23148792 heartbeat IPC: 1.10747 cumulative IPC: 1.1382 (Simulation time: 0 hr 30 min 18 sec) 

Region of Interest Statistics
cpu0_DTLB TOTAL     ACCESS:    2409610  HIT:    2407211  MISS:       2399
cpu0_DTLB LOAD      ACCESS:    1651725  HIT:    1649707  MISS:       2018
cpu0_DTLB RFO       ACCESS:     757885  HIT:     757504  MISS:        381
cpu0_DTLB PREFETCH  ACCESS:          0  HIT:          0  MISS:          0
cpu0_DTLB WRITEBACK ACCESS:          0  HIT:          0  MISS:          0
cpu0_ITLB TOTAL     ACCESS:    1022289  HIT:    1022289  MISS:          0
cpu0_ITLB LOAD      ACCESS:    1022289  HIT:    1022289  MISS:          0
cpu0_ITLB RFO       ACCESS:          0  HIT:          0  MISS:          0
cpu0_ITLB PREFETCH  ACCESS:          0  HIT:          0  MISS:          0
cpu0_ITLB WRITEBACK ACCESS:          0  HIT:          0  MISS:          0
cpu0_L1I TOTAL     ACCESS:     542958  HIT:     541526  MISS:       1432
cpu0_L1I LOAD      ACCESS:     542958  HIT:     541526  MISS:       1432
cpu0_L1I RFO       ACCESS:          0  HIT:          0  MISS:          0
cpu0_L1I PREFETCH  ACCESS:          0  HIT:          0  MISS:          0
cpu0_L1I WRITEBACK ACCESS:          0  HIT:          0  MISS:          0
cpu0_STLB TOTAL     ACCESS:       2399  HIT:       2284  MISS:        115
cpu0_STLB LOAD      ACCESS:       2018  HIT:       1915  MISS:        103
cpu0_STLB RFO       ACCESS:        381  HIT:        369  MISS:         12
cpu0_STLB PREFETCH  ACCESS:          0  HIT:          0  MISS:          0
cpu0_STLB WRITEBACK ACCESS:          0  HIT:          0  MISS:          0
cpu0_L1D TOTAL     ACCESS:    2945574  HIT:    2942692  MISS:       2882
cpu0_L1D LOAD      ACCESS:    1530483  HIT:    1527688  MISS:       2795
cpu0_L1D RFO       ACCESS:    1414976  HIT:    1414891  MISS:         85
cpu0_L1D PREFETCH  ACCESS:          0  HIT:          0  MISS:          0
cpu0_L1D WRITEBACK ACCESS:          0  HIT:          0  MISS:          0
cpu0_L2C TOTAL     ACCESS:       4611  HIT:       1740  MISS:       2871
cpu0_L2C LOAD      ACCESS:       4227  HIT:       1432  MISS:       2795
cpu0_L2C RFO       ACCESS:         85  HIT:          9  MISS:         76
cpu0_L2C PREFETCH  ACCESS:          0  HIT:          0  MISS:          0
cpu0_L2C WRITEBACK ACCESS:        297  HIT:        297  MISS:          0
LLC TOTAL     ACCESS:       3409  HIT:        598  MISS:       2811
LLC LOAD      ACCESS:       2795  HIT:         58  MISS:       2737
LLC RFO       ACCESS:         76  HIT:          6  MISS:         70
LLC PREFETCH  ACCESS:          0  HIT:          0  MISS:          0
LLC WRITEBACK ACCESS:        538  HIT:        534  MISS:          4
Heartbeat CPU 0 instructions: 64000000 cycles: 25148136 heartbeat IPC: 1.00033 cumulative IPC: 1.11623 (Simulation time: 0 hr 31 min 20 sec) 

Region of Interest Statistics
cpu0_DTLB TOTAL     ACCESS:    2835769  HIT:    2833117  MISS:       2652
cpu0_DTLB LOAD      ACCESS:    1930849  HIT:    1928620  MISS:       2229
cpu0_DTLB RFO       ACCESS:     904920  HIT:     904497  MISS:        423
cpu0_DTLB PREFETCH  ACCESS:          0  HIT:          0  MISS:          0
cpu0_DTLB WRITEBACK ACCESS:          0  HIT:          0  MISS:          0
cpu0_ITLB TOTAL     ACCESS:    1221505  HIT:    1221505  MISS:          0
cpu0_ITLB LOAD      ACCESS:    1221505  HIT:    1221505  MISS:          0
cpu0_ITLB RFO       ACCESS:          0  HIT:          0  MISS:          0
cpu0_ITLB PREFETCH  ACCESS:          0  HIT:          0  MISS:          0
cpu0_ITLB WRITEBACK ACCESS:          0  HIT:          0  MISS:          0
cpu0_L1I TOTAL     ACCESS:     604738  HIT:     603104  MISS:       1634
cpu0_L1I LOAD      ACCESS:     604738  HIT:     603104  MISS:       1634
cpu0_L1I RFO       ACCESS:          0  HIT:          0  MISS:          0
cpu0_L1I PREFETCH  ACCESS:          0  HIT:          0  MISS:          0
cpu0_L1I WRITEBACK ACCESS:          0  HIT:          0  MISS:          0
cpu0_STLB TOTAL     ACCESS:       2652  HIT:       2520  MISS:        132
cpu0_STLB LOAD      ACCESS:       2229  HIT:       2111  MISS:        118
cpu0_STLB RFO       ACCESS:        423  HIT:        409  MISS:         14
cpu0_STLB PREFETCH  ACCESS:          0  HIT:          0  MISS:          0
cpu0_STLB WRITEBACK ACCESS:          0  HIT:          0  MISS:          0
cpu0_L1D TOTAL     ACCESS:    3491243  HIT:    3488027  MISS:       3216
cpu0_L1D LOAD      ACCESS:    1796927  HIT:    1793812  MISS:       3115
cpu0_L1D RFO       ACCESS:    1694184  HIT:    1694085  MISS:         99
cpu0_L1D PREFETCH  ACCESS:          0  HIT:          0  MISS:          0
cpu0_L1D WRITEBACK ACCESS:          0  HIT:          0  MISS:          0
cpu0_L2C TOTAL     ACCESS:       5188  HIT:       1992  MISS:       3196
cpu0_L2C LOAD      ACCESS:       4749  HIT:       1639  MISS:       3110
cpu0_L2C RFO       ACCESS:         99  HIT:         13  MISS:         86
cpu0_L2C PREFETCH  ACCESS:          0  HIT:          0  MISS:          0
cpu0_L2C WRITEBACK ACCESS:        338  HIT:        338  MISS:          0
LLC TOTAL     ACCESS:       3783  HIT:        652  MISS:       3131
LLC LOAD      ACCESS:       3110  HIT:         63  MISS:       3047
LLC RFO       ACCESS:         86  HIT:          6  MISS:         80
LLC PREFETCH  ACCESS:          0  HIT:          0  MISS:          0
LLC WRITEBACK ACCESS:        587  HIT:        583  MISS:          4
Heartbeat CPU 0 instructions: 66000000 cycles: 26901040 heartbeat IPC: 1.14096 cumulative IPC: 1.11926 (Simulation time: 0 hr 32 min 31 sec) 

Region of Interest Statistics
cpu0_DTLB TOTAL     ACCESS:    3260708  HIT:    3257734  MISS:       2974
cpu0_DTLB LOAD      ACCESS:    2203634  HIT:    2201139  MISS:       2495
cpu0_DTLB RFO       ACCESS:    1057074  HIT:    1056595  MISS:        479
cpu0_DTLB PREFETCH  ACCESS:          0  HIT:          0  MISS:          0
cpu0_DTLB WRITEBACK ACCESS:          0  HIT:          0  MISS:          0
cpu0_ITLB TOTAL     ACCESS:    1405515  HIT:    1405515  MISS:          0
cpu0_ITLB LOAD      ACCESS:    1405515  HIT:    1405515  MISS:          0
cpu0_ITLB RFO       ACCESS:          0  HIT:          0  MISS:          0
cpu0_ITLB PREFETCH  ACCESS:          0  HIT:          0  MISS:          0
cpu0_ITLB WRITEBACK ACCESS:          0  HIT:          0  MISS:          0
cpu0_L1I TOTAL     ACCESS:     667937  HIT:     666137  MISS:       1800
cpu0_L1I LOAD      ACCESS:     667937  HIT:     666137  MISS:       1800
cpu0_L1I RFO       ACCESS:          0  HIT:          0  MISS:          0
cpu0_L1I PREFETCH  ACCESS:          0  HIT:          0  MISS:          0
cpu0_L1I WRITEBACK ACCESS:          0  HIT:          0  MISS:          0
cpu0_STLB TOTAL     ACCESS:       2974  HIT:       2814  MISS:        160
cpu0_STLB LOAD      ACCESS:       2495  HIT:       2351  MISS:        144
cpu0_STLB RFO       ACCESS:        479  HIT:        463  MISS:         16
cpu0_STLB PREFETCH  ACCESS:          0  HIT:          0  MISS:          0
cpu0_STLB WRITEBACK ACCESS:          0  HIT:          0  MISS:          0
cpu0_L1D TOTAL     ACCESS:    4052922  HIT:    4049259  MISS:       3663
cpu0_L1D LOAD      ACCESS:    2060682  HIT:    2057130  MISS:       3552
cpu0_L1D RFO       ACCESS:    1992080  HIT:    1991971  MISS:        109
cpu0_L1D PREFETCH  ACCESS:          0  HIT:          0  MISS:          0
cpu0_L1D WRITEBACK ACCESS:          0  HIT:          0  MISS:          0
cpu0_L2C TOTAL     ACCESS:       5844  HIT:       2198  MISS:       3646
cpu0_L2C LOAD      ACCESS:       5352  HIT:       1802  MISS:       3550
cpu0_L2C RFO       ACCESS:        109  HIT:         14  MISS:         95
cpu0_L2C PREFETCH  ACCESS:          0  HIT:          0  MISS:          0
cpu0_L2C WRITEBACK ACCESS:        381  HIT:        380  MISS:          1
LLC TOTAL     ACCESS:       4311  HIT:        739  MISS:       3572
LLC LOAD      ACCESS:       3550  HIT:         73  MISS:       3477
LLC RFO       ACCESS:         95  HIT:          6  MISS:         89
LLC PREFETCH  ACCESS:          0  HIT:          0  MISS:          0
LLC WRITEBACK ACCESS:        666  HIT:        660  MISS:          6
Heartbeat CPU 0 instructions: 68000000 cycles: 28670178 heartbeat IPC: 1.13049 cumulative IPC: 1.1205 (Simulation time: 0 hr 33 min 39 sec) 

Region of Interest Statistics
cpu0_DTLB TOTAL     ACCESS:    3677087  HIT:    3673882  MISS:       3205
cpu0_DTLB LOAD      ACCESS:    2472467  HIT:    2469788  MISS:       2679
cpu0_DTLB RFO       ACCESS:    1204620  HIT:    1204094  MISS:        526
cpu0_DTLB PREFETCH  ACCESS:          0  HIT:          0  MISS:          0
cpu0_DTLB WRITEBACK ACCESS:          0  HIT:          0  MISS:          0
cpu0_ITLB TOTAL     ACCESS:    1583705  HIT:    1583705  MISS:          0
cpu0_ITLB LOAD      ACCESS:    1583705  HIT:    1583705  MISS:          0
cpu0_ITLB RFO       ACCESS:          0  HIT:          0  MISS:          0
cpu0_ITLB PREFETCH  ACCESS:          0  HIT:          0  MISS:          0
cpu0_ITLB WRITEBACK ACCESS:          0  HIT:          0  MISS:          0
cpu0_L1I TOTAL     ACCESS:     794896  HIT:     792833  MISS:       2063
cpu0_L1I LOAD      ACCESS:     794896  HIT:     792833  MISS:       2063
cpu0_L1I RFO       ACCESS:          0  HIT:          0  MISS:          0
cpu0_L1I PREFETCH  ACCESS:          0  HIT:          0  MISS:          0
cpu0_L1I WRITEBACK ACCESS:          0  HIT:          0  MISS:          0
cpu0_STLB TOTAL     ACCESS:       3205  HIT:       3030  MISS:        175
cpu0_STLB LOAD      ACCESS:       2679  HIT:       2522  MISS:        157
cpu0_STLB RFO       ACCESS:        526  HIT:        508  MISS:         18
cpu0_STLB PREFETCH  ACCESS:          0  HIT:          0  MISS:          0
cpu0_STLB WRITEBACK ACCESS:          0  HIT:          0  MISS:          0
cpu0_L1D TOTAL     ACCESS:    4622896  HIT:    4618870  MISS:       4026
cpu0_L1D LOAD      ACCESS:    2327891  HIT:    2324018  MISS:       3873
cpu0_L1D RFO       ACCESS:    2294830  HIT:    2294682  MISS:        148
cpu0_L1D PREFETCH  ACCESS:          0  HIT:          0  MISS:          0
cpu0_L1D WRITEBACK ACCESS:          0  HIT:          0  MISS:          0
cpu0_L2C TOTAL     ACCESS:       6506  HIT:       2506  MISS:       4000
cpu0_L2C LOAD      ACCESS:       5936  HIT:       2059  MISS:       3877
cpu0_L2C RFO       ACCESS:        148  HIT:         27  MISS:        121
cpu0_L2C PREFETCH  ACCESS:          0  HIT:          0  MISS:          0
cpu0_L2C WRITEBACK ACCESS:        417  HIT:        416  MISS:          1
LLC TOTAL     ACCESS:       4714  HIT:        822  MISS:       3892
LLC LOAD      ACCESS:       3877  HIT:         89  MISS:       3788
LLC RFO       ACCESS:        121  HIT:         23  MISS:         98
LLC PREFETCH  ACCESS:          0  HIT:          0  MISS:          0
LLC WRITEBACK ACCESS:        715  HIT:        709  MISS:          6
Heartbeat CPU 0 instructions: 70000003 cycles: 30747543 heartbeat IPC: 0.96276 cumulative IPC: 1.10243 (Simulation time: 0 hr 34 min 54 sec) 

Region of Interest Statistics
cpu0_DTLB TOTAL     ACCESS:    4094683  HIT:    4091411  MISS:       3272
cpu0_DTLB LOAD      ACCESS:    2767660  HIT:    2764926  MISS:       2734
cpu0_DTLB RFO       ACCESS:    1327023  HIT:    1326485  MISS:        538
cpu0_DTLB PREFETCH  ACCESS:          0  HIT:          0  MISS:          0
cpu0_DTLB WRITEBACK ACCESS:          0  HIT:          0  MISS:          0
cpu0_ITLB TOTAL     ACCESS:    1787308  HIT:    1787308  MISS:          0
cpu0_ITLB LOAD      ACCESS:    1787308  HIT:    1787308  MISS:          0
cpu0_ITLB RFO       ACCESS:          0  HIT:          0  MISS:          0
cpu0_ITLB PREFETCH  ACCESS:          0  HIT:          0  MISS:          0
cpu0_ITLB WRITEBACK ACCESS:          0  HIT:          0  MISS:          0
cpu0_L1I TOTAL     ACCESS:     859549  HIT:     857456  MISS:       2093
cpu0_L1I LOAD      ACCESS:     859549  HIT:     857456  MISS:       2093
cpu0_L1I RFO       ACCESS:          0  HIT:          0  MISS:          0
cpu0_L1I PREFETCH  ACCESS:          0  HIT:          0  MISS:          0
cpu0_L1I WRITEBACK ACCESS:          0  HIT:          0  MISS:          0
cpu0_STLB TOTAL     ACCESS:       3272  HIT:       3089  MISS:        183
cpu0_STLB LOAD      ACCESS:       2734  HIT:       2571  MISS:        163
cpu0_STLB RFO       ACCESS:        538  HIT:        518  MISS:         20
cpu0_STLB PREFETCH  ACCESS:          0  HIT:          0  MISS:          0
cpu0_STLB WRITEBACK ACCESS:          0  HIT:          0  MISS:          0
cpu0_L1D TOTAL     ACCESS:    5080035  HIT:    5075913  MISS:       4122
cpu0_L1D LOAD      ACCESS:    2602674  HIT:    2598708  MISS:       3966
cpu0_L1D RFO       ACCESS:    2477178  HIT:    2477027  MISS:        151
cpu0_L1D PREFETCH  ACCESS:          0  HIT:          0  MISS:          0
cpu0_L1D WRITEBACK ACCESS:          0  HIT:          0  MISS:          0
cpu0_L2C TOTAL     ACCESS:       6639  HIT:       2545  MISS:       4094
cpu0_L2C LOAD      ACCESS:       6059  HIT:       2091  MISS:       3968
cpu0_L2C RFO       ACCESS:        151  HIT:         27  MISS:        124
cpu0_L2C PREFETCH  ACCESS:          0  HIT:          0  MISS:          0
cpu0_L2C WRITEBACK ACCESS:        424  HIT:        423  MISS:          1
LLC TOTAL     ACCESS:       4825  HIT:        840  MISS:       3985
LLC LOAD      ACCESS:       3968  HIT:         90  MISS:       3878
LLC RFO       ACCESS:        124  HIT:         23  MISS:        101
LLC PREFETCH  ACCESS:          0  HIT:          0  MISS:          0
LLC WRITEBACK ACCESS:        732  HIT:        726  MISS:          6
Heartbeat CPU 0 instructions: 72000000 cycles: 32387870 heartbeat IPC: 1.21927 cumulative IPC: 1.11212 (Simulation time: 0 hr 35 min 44 sec) 

Region of Interest Statistics
cpu0_DTLB TOTAL     ACCESS:    4477704  HIT:    4474001  MISS:       3703
cpu0_DTLB LOAD      ACCESS:    3027051  HIT:    3023963  MISS:       3088
cpu0_DTLB RFO       ACCESS:    1450653  HIT:    1450038  MISS:        615
cpu0_DTLB PREFETCH  ACCESS:          0  HIT:          0  MISS:          0
cpu0_DTLB WRITEBACK ACCESS:          0  HIT:          0  MISS:          0
cpu0_ITLB TOTAL     ACCESS:    1943081  HIT:    1943081  MISS:          0
cpu0_ITLB LOAD      ACCESS:    1943081  HIT:    1943081  MISS:          0
cpu0_ITLB RFO       ACCESS:          0  HIT:          0  MISS:          0
cpu0_ITLB PREFETCH  ACCESS:          0  HIT:          0  MISS:          0
cpu0_ITLB WRITEBACK ACCESS:          0  HIT:          0  MISS:          0
cpu0_L1I TOTAL     ACCESS:     971383  HIT:     968967  MISS:       2416
cpu0_L1I LOAD      ACCESS:     971383  HIT:     968967  MISS:       2416
cpu0_L1I RFO       ACCESS:          0  HIT:          0  MISS:          0
cpu0_L1I PREFETCH  ACCESS:          0  HIT:          0  MISS:          0
cpu0_L1I WRITEBACK ACCESS:          0  HIT:          0  MISS:          0
cpu0_STLB TOTAL     ACCESS:       3703  HIT:       3495  MISS:        208
cpu0_STLB LOAD      ACCESS:       3088  HIT:       2902  MISS:        186
cpu0_STLB RFO       ACCESS:        615  HIT:        593  MISS:         22
cpu0_STLB PREFETCH  ACCESS:          0  HIT:          0  MISS:          0
cpu0_STLB WRITEBACK ACCESS:          0  HIT:          0  MISS:          0
cpu0_L1D TOTAL     ACCESS:    5566981  HIT:    5562208  MISS:       4773
cpu0_L1D LOAD      ACCESS:    2845156  HIT:    2840573  MISS:       4583
cpu0_L1D RFO       ACCESS:    2721617  HIT:    2721432  MISS:        185
cpu0_L1D PREFETCH  ACCESS:          0  HIT:          0  MISS:          0
cpu0_L1D WRITEBACK ACCESS:          0  HIT:          0  MISS:          0
cpu0_L2C TOTAL     ACCESS:       7700  HIT:       2968  MISS:       4732
cpu0_L2C LOAD      ACCESS:       6999  HIT:       2417  MISS:       4582
cpu0_L2C RFO       ACCESS:        185  HIT:         38  MISS:        147
cpu0_L2C PREFETCH  ACCESS:          0  HIT:          0  MISS:          0
cpu0_L2C WRITEBACK ACCESS:        511  HIT:        509  MISS:          2
LLC TOTAL     ACCESS:       5545  HIT:        943  MISS:       4602
LLC LOAD      ACCESS:       4582  HIT:        107  MISS:       4475
LLC RFO       ACCESS:        147  HIT:         26  MISS:        121
LLC PREFETCH  ACCESS:          0  HIT:          0  MISS:          0
LLC WRITEBACK ACCESS:        815  HIT:        809  MISS:          6
Heartbeat CPU 0 instructions: 74000002 cycles: 34388934 heartbeat IPC: 0.999469 cumulative IPC: 1.10177 (Simulation time: 0 hr 36 min 43 sec) 

Region of Interest Statistics
cpu0_DTLB TOTAL     ACCESS:    4904610  HIT:    4900684  MISS:       3926
cpu0_DTLB LOAD      ACCESS:    3308264  HIT:    3304990  MISS:       3274
cpu0_DTLB RFO       ACCESS:    1596346  HIT:    1595694  MISS:        652
cpu0_DTLB PREFETCH  ACCESS:          0  HIT:          0  MISS:          0
cpu0_DTLB WRITEBACK ACCESS:          0  HIT:          0  MISS:          0
cpu0_ITLB TOTAL     ACCESS:    2147062  HIT:    2147062  MISS:          0
cpu0_ITLB LOAD      ACCESS:    2147062  HIT:    2147062  MISS:          0
cpu0_ITLB RFO       ACCESS:          0  HIT:          0  MISS:          0
cpu0_ITLB PREFETCH  ACCESS:          0  HIT:          0  MISS:          0
cpu0_ITLB WRITEBACK ACCESS:          0  HIT:          0  MISS:          0
cpu0_L1I TOTAL     ACCESS:    1025809  HIT:    1023152  MISS:       2657
cpu0_L1I LOAD      ACCESS:    1025809  HIT:    1023152  MISS:       2657
cpu0_L1I RFO       ACCESS:          0  HIT:          0  MISS:          0
cpu0_L1I PREFETCH  ACCESS:          0  HIT:          0  MISS:          0
cpu0_L1I WRITEBACK ACCESS:          0  HIT:          0  MISS:          0
cpu0_STLB TOTAL     ACCESS:       3926  HIT:       3705  MISS:        221
cpu0_STLB LOAD      ACCESS:       3274  HIT:       3076  MISS:        198
cpu0_STLB RFO       ACCESS:        652  HIT:        629  MISS:         23
cpu0_STLB PREFETCH  ACCESS:          0  HIT:          0  MISS:          0
cpu0_STLB WRITEBACK ACCESS:          0  HIT:          0  MISS:          0
cpu0_L1D TOTAL     ACCESS:    6108209  HIT:    6103103  MISS:       5106
cpu0_L1D LOAD      ACCESS:    3112640  HIT:    3107739  MISS:       4901
cpu0_L1D RFO       ACCESS:    2995348  HIT:    2995148  MISS:        200
cpu0_L1D PREFETCH  ACCESS:          0  HIT:          0  MISS:          0
cpu0_L1D WRITEBACK ACCESS:          0  HIT:          0  MISS:          0
cpu0_L2C TOTAL     ACCESS:       8323  HIT:       3262  MISS:       5061
cpu0_L2C LOAD      ACCESS:       7558  HIT:       2657  MISS:       4901
cpu0_L2C RFO       ACCESS:        200  HIT:         43  MISS:        157
cpu0_L2C PREFETCH  ACCESS:          0  HIT:          0  MISS:          0
cpu0_L2C WRITEBACK ACCESS:        560  HIT:        558  MISS:          2
LLC TOTAL     ACCESS:       5926  HIT:       1009  MISS:       4917
LLC LOAD      ACCESS:       4901  HIT:        122  MISS:       4779
LLC RFO       ACCESS:        157  HIT:         26  MISS:        131
LLC PREFETCH  ACCESS:          0  HIT:          0  MISS:          0
LLC WRITEBACK ACCESS:        867  HIT:        860  MISS:          7
Heartbeat CPU 0 instructions: 76000002 cycles: 36441298 heartbeat IPC: 0.974486 cumulative IPC: 1.09081 (Simulation time: 0 hr 37 min 43 sec) 

Region of Interest Statistics
cpu0_DTLB TOTAL     ACCESS:    5337523  HIT:    5333408  MISS:       4115
cpu0_DTLB LOAD      ACCESS:    3589820  HIT:    3586392  MISS:       3428
cpu0_DTLB RFO       ACCESS:    1747703  HIT:    1747016  MISS:        687
cpu0_DTLB PREFETCH  ACCESS:          0  HIT:          0  MISS:          0
cpu0_DTLB WRITEBACK ACCESS:          0  HIT:          0  MISS:          0
cpu0_ITLB TOTAL     ACCESS:    2377312  HIT:    2377312  MISS:          0
cpu0_ITLB LOAD      ACCESS:    2377312  HIT:    2377312  MISS:          0
cpu0_ITLB RFO       ACCESS:          0  HIT:          0  MISS:          0
cpu0_ITLB PREFETCH  ACCESS:          0  HIT:          0  MISS:          0
cpu0_ITLB WRITEBACK ACCESS:          0  HIT:          0  MISS:          0
cpu0_L1I TOTAL     ACCESS:    1053551  HIT:    1050781  MISS:       2770
cpu0_L1I LOAD      ACCESS:    1053551  HIT:    1050781  MISS:       2770
cpu0_L1I RFO       ACCESS:          0  HIT:          0  MISS:          0
cpu0_L1I PREFETCH  ACCESS:          0  HIT:          0  MISS:          0
cpu0_L1I WRITEBACK ACCESS:          0  HIT:          0  MISS:          0
cpu0_STLB TOTAL     ACCESS:       4115  HIT:       3881  MISS:        234
cpu0_STLB LOAD      ACCESS:       3428  HIT:       3218  MISS:        210
cpu0_STLB RFO       ACCESS:        687  HIT:        663  MISS:         24
cpu0_STLB PREFETCH  ACCESS:          0  HIT:          0  MISS:          0
cpu0_STLB WRITEBACK ACCESS:          0  HIT:          0  MISS:          0
cpu0_L1D TOTAL     ACCESS:    6661980  HIT:    6656601  MISS:       5379
cpu0_L1D LOAD      ACCESS:    3384293  HIT:    3379126  MISS:       5167
cpu0_L1D RFO       ACCESS:    3277453  HIT:    3277246  MISS:        207
cpu0_L1D PREFETCH  ACCESS:          0  HIT:          0  MISS:          0
cpu0_L1D WRITEBACK ACCESS:          0  HIT:          0  MISS:          0
cpu0_L2C TOTAL     ACCESS:       8740  HIT:       3409  MISS:       5331
cpu0_L2C LOAD      ACCESS:       7937  HIT:       2773  MISS:       5164
cpu0_L2C RFO       ACCESS:        207  HIT:         43  MISS:        164
cpu0_L2C PREFETCH  ACCESS:          0  HIT:          0  MISS:          0
cpu0_L2C WRITEBACK ACCESS:        591  HIT:        589  MISS:          2
LLC TOTAL     ACCESS:       6226  HIT:       1041  MISS:       5185
LLC LOAD      ACCESS:       5164  HIT:        124  MISS:       5040
LLC RFO       ACCESS:        164  HIT:         26  MISS:        138
LLC PREFETCH  ACCESS:          0  HIT:          0  MISS:          0
LLC WRITEBACK ACCESS:        897  HIT:        890  MISS:          7
Heartbeat CPU 0 instructions: 78000002 cycles: 38078538 heartbeat IPC: 1.22157 cumulative IPC: 1.09922 (Simulation time: 0 hr 38 min 39 sec) 

Region of Interest Statistics
cpu0_DTLB TOTAL     ACCESS:    5716946  HIT:    5712246  MISS:       4700
cpu0_DTLB LOAD      ACCESS:    3851057  HIT:    3847142  MISS:       3915
cpu0_DTLB RFO       ACCESS:    1865889  HIT:    1865104  MISS:        785
cpu0_DTLB PREFETCH  ACCESS:          0  HIT:          0  MISS:          0
cpu0_DTLB WRITEBACK ACCESS:          0  HIT:          0  MISS:          0
cpu0_ITLB TOTAL     ACCESS:    2532211  HIT:    2532211  MISS:          0
cpu0_ITLB LOAD      ACCESS:    2532211  HIT:    2532211  MISS:          0
cpu0_ITLB RFO       ACCESS:          0  HIT:          0  MISS:          0
cpu0_ITLB PREFETCH  ACCESS:          0  HIT:          0  MISS:          0
cpu0_ITLB WRITEBACK ACCESS:          0  HIT:          0  MISS:          0
cpu0_L1I TOTAL     ACCESS:    1160854  HIT:    1157750  MISS:       3104
cpu0_L1I LOAD      ACCESS:    1160854  HIT:    1157750  MISS:       3104
cpu0_L1I RFO       ACCESS:          0  HIT:          0  MISS:          0
cpu0_L1I PREFETCH  ACCESS:          0  HIT:          0  MISS:          0
cpu0_L1I WRITEBACK ACCESS:          0  HIT:          0  MISS:          0
cpu0_STLB TOTAL     ACCESS:       4700  HIT:       4436  MISS:        264
cpu0_STLB LOAD      ACCESS:       3915  HIT:       3678  MISS:        237
cpu0_STLB RFO       ACCESS:        785  HIT:        758  MISS:         27
cpu0_STLB PREFETCH  ACCESS:          0  HIT:          0  MISS:          0
cpu0_STLB WRITEBACK ACCESS:          0  HIT:          0  MISS:          0
cpu0_L1D TOTAL     ACCESS:    7136000  HIT:    7129840  MISS:       6160
cpu0_L1D LOAD      ACCESS:    3625053  HIT:    3619125  MISS:       5928
cpu0_L1D RFO       ACCESS:    3510683  HIT:    3510457  MISS:        226
cpu0_L1D PREFETCH  ACCESS:          0  HIT:          0  MISS:          0
cpu0_L1D WRITEBACK ACCESS:          0  HIT:          0  MISS:          0
cpu0_L2C TOTAL     ACCESS:       9939  HIT:       3837  MISS:       6102
cpu0_L2C LOAD      ACCESS:       9032  HIT:       3116  MISS:       5916
cpu0_L2C RFO       ACCESS:        226  HIT:         43  MISS:        183
cpu0_L2C PREFETCH  ACCESS:          0  HIT:          0  MISS:          0
cpu0_L2C WRITEBACK ACCESS:        675  HIT:        673  MISS:          2
LLC TOTAL     ACCESS:       7105  HIT:       1161  MISS:       5944
LLC LOAD      ACCESS:       5916  HIT:        136  MISS:       5780
LLC RFO       ACCESS:        183  HIT:         26  MISS:        157
LLC PREFETCH  ACCESS:          0  HIT:          0  MISS:          0
LLC WRITEBACK ACCESS:       1005  HIT:        998  MISS:          7
Heartbeat CPU 0 instructions: 80000000 cycles: 39988668 heartbeat IPC: 1.04705 cumulative IPC: 1.09558 (Simulation time: 0 hr 39 min 43 sec) 

Region of Interest Statistics
cpu0_DTLB TOTAL     ACCESS:    6166961  HIT:    6162082  MISS:       4879
cpu0_DTLB LOAD      ACCESS:    4148746  HIT:    4144679  MISS:       4067
cpu0_DTLB RFO       ACCESS:    2018215  HIT:    2017403  MISS:        812
cpu0_DTLB PREFETCH  ACCESS:          0  HIT:          0  MISS:          0
cpu0_DTLB WRITEBACK ACCESS:          0  HIT:          0  MISS:          0
cpu0_ITLB TOTAL     ACCESS:    2739195  HIT:    2739195  MISS:          0
cpu0_ITLB LOAD      ACCESS:    2739195  HIT:    2739195  MISS:          0
cpu0_ITLB RFO       ACCESS:          0  HIT:          0  MISS:          0
cpu0_ITLB PREFETCH  ACCESS:          0  HIT:          0  MISS:          0
cpu0_ITLB WRITEBACK ACCESS:          0  HIT:          0  MISS:          0
cpu0_L1I TOTAL     ACCESS:    1195783  HIT:    1192560  MISS:       3223
cpu0_L1I LOAD      ACCESS:    1195783  HIT:    1192560  MISS:       3223
cpu0_L1I RFO       ACCESS:          0  HIT:          0  MISS:          0
cpu0_L1I PREFETCH  ACCESS:          0  HIT:          0  MISS:          0
cpu0_L1I WRITEBACK ACCESS:          0  HIT:          0  MISS:          0
cpu0_STLB TOTAL     ACCESS:       4879  HIT:       4607  MISS:        272
cpu0_STLB LOAD      ACCESS:       4067  HIT:       3824  MISS:        243
cpu0_STLB RFO       ACCESS:        812  HIT:        783  MISS:         29
cpu0_STLB PREFETCH  ACCESS:          0  HIT:          0  MISS:          0
cpu0_STLB WRITEBACK ACCESS:          0  HIT:          0  MISS:          0
cpu0_L1D TOTAL     ACCESS:    7697343  HIT:    7690953  MISS:       6390
cpu0_L1D LOAD      ACCESS:    3907746  HIT:    3901602  MISS:       6144
cpu0_L1D RFO       ACCESS:    3789325  HIT:    3789085  MISS:        240
cpu0_L1D PREFETCH  ACCESS:          0  HIT:          0  MISS:          0
cpu0_L1D WRITEBACK ACCESS:          0  HIT:          0  MISS:          0
cpu0_L2C TOTAL     ACCESS:      10314  HIT:       3990  MISS:       6324
cpu0_L2C LOAD      ACCESS:       9367  HIT:       3237  MISS:       6130
cpu0_L2C RFO       ACCESS:        240  HIT:         49  MISS:        191
cpu0_L2C PREFETCH  ACCESS:          0  HIT:          0  MISS:          0
cpu0_L2C WRITEBACK ACCESS:        701  HIT:        699  MISS:          2
LLC TOTAL     ACCESS:       7360  HIT:       1197  MISS:       6163
LLC LOAD      ACCESS:       6130  HIT:        138  MISS:       5992
LLC RFO       ACCESS:        191  HIT:         27  MISS:        164
LLC PREFETCH  ACCESS:          0  HIT:          0  MISS:          0
LLC WRITEBACK ACCESS:       1038  HIT:       1031  MISS:          7
Heartbeat CPU 0 instructions: 82000000 cycles: 41960480 heartbeat IPC: 1.0143 cumulative IPC: 1.09012 (Simulation time: 0 hr 40 min 45 sec) 

Region of Interest Statistics
cpu0_DTLB TOTAL     ACCESS:    6609314  HIT:    6604225  MISS:       5089
cpu0_DTLB LOAD      ACCESS:    4456083  HIT:    4451832  MISS:       4251
cpu0_DTLB RFO       ACCESS:    2153231  HIT:    2152393  MISS:        838
cpu0_DTLB PREFETCH  ACCESS:          0  HIT:          0  MISS:          0
cpu0_DTLB WRITEBACK ACCESS:          0  HIT:          0  MISS:          0
cpu0_ITLB TOTAL     ACCESS:    2946290  HIT:    2946290  MISS:          0
cpu0_ITLB LOAD      ACCESS:    2946290  HIT:    2946290  MISS:          0
cpu0_ITLB RFO       ACCESS:          0  HIT:          0  MISS:          0
cpu0_ITLB PREFETCH  ACCESS:          0  HIT:          0  MISS:          0
cpu0_ITLB WRITEBACK ACCESS:          0  HIT:          0  MISS:          0
cpu0_L1I TOTAL     ACCESS:    1233478  HIT:    1230128  MISS:       3350
cpu0_L1I LOAD      ACCESS:    1233478  HIT:    1230128  MISS:       3350
cpu0_L1I RFO       ACCESS:          0  HIT:          0  MISS:          0
cpu0_L1I PREFETCH  ACCESS:          0  HIT:          0  MISS:          0
cpu0_L1I WRITEBACK ACCESS:          0  HIT:          0  MISS:          0
cpu0_STLB TOTAL     ACCESS:       5089  HIT:       4807  MISS:        282
cpu0_STLB LOAD      ACCESS:       4251  HIT:       3998  MISS:        253
cpu0_STLB RFO       ACCESS:        838  HIT:        809  MISS:         29
cpu0_STLB PREFETCH  ACCESS:          0  HIT:          0  MISS:          0
cpu0_STLB WRITEBACK ACCESS:          0  HIT:          0  MISS:          0
cpu0_L1D TOTAL     ACCESS:    8208965  HIT:    8202311  MISS:       6654
cpu0_L1D LOAD      ACCESS:    4189172  HIT:    4182769  MISS:       6403
cpu0_L1D RFO       ACCESS:    4019511  HIT:    4019266  MISS:        245
cpu0_L1D PREFETCH  ACCESS:          0  HIT:          0  MISS:          0
cpu0_L1D WRITEBACK ACCESS:          0  HIT:          0  MISS:          0
cpu0_L2C TOTAL     ACCESS:      10725  HIT:       4138  MISS:       6587
cpu0_L2C LOAD      ACCESS:       9753  HIT:       3365  MISS:       6388
cpu0_L2C RFO       ACCESS:        245  HIT:         49  MISS:        196
cpu0_L2C PREFETCH  ACCESS:          0  HIT:          0  MISS:          0
cpu0_L2C WRITEBACK ACCESS:        721  HIT:        719  MISS:          2
LLC TOTAL     ACCESS:       7656  HIT:       1236  MISS:       6420
LLC LOAD      ACCESS:       6388  HIT:        144  MISS:       6244
LLC RFO       ACCESS:        196  HIT:         27  MISS:        169
LLC PREFETCH  ACCESS:          0  HIT:          0  MISS:          0
LLC WRITEBACK ACCESS:       1071  HIT:       1064  MISS:          7
Heartbeat CPU 0 instructions: 84000000 cycles: 43923486 heartbeat IPC: 1.01885 cumulative IPC: 1.08565 (Simulation time: 0 hr 41 min 45 sec) 

Region of Interest Statistics
cpu0_DTLB TOTAL     ACCESS:    7054037  HIT:    7048639  MISS:       5398
cpu0_DTLB LOAD      ACCESS:    4750991  HIT:    4746485  MISS:       4506
cpu0_DTLB RFO       ACCESS:    2303046  HIT:    2302154  MISS:        892
cpu0_DTLB PREFETCH  ACCESS:          0  HIT:          0  MISS:          0
cpu0_DTLB WRITEBACK ACCESS:          0  HIT:          0  MISS:          0
cpu0_ITLB TOTAL     ACCESS:    3142408  HIT:    3142408  MISS:          0
cpu0_ITLB LOAD      ACCESS:    3142408  HIT:    3142408  MISS:          0
cpu0_ITLB RFO       ACCESS:          0  HIT:          0  MISS:          0
cpu0_ITLB PREFETCH  ACCESS:          0  HIT:          0  MISS:          0
cpu0_ITLB WRITEBACK ACCESS:          0  HIT:          0  MISS:          0
cpu0_L1I TOTAL     ACCESS:    1284744  HIT:    1281185  MISS:       3559
cpu0_L1I LOAD      ACCESS:    1284744  HIT:    1281185  MISS:       3559
cpu0_L1I RFO       ACCESS:          0  HIT:          0  MISS:          0
cpu0_L1I PREFETCH  ACCESS:          0  HIT:          0  MISS:          0
cpu0_L1I WRITEBACK ACCESS:          0  HIT:          0  MISS:          0
cpu0_STLB TOTAL     ACCESS:       5398  HIT:       5101  MISS:        297
cpu0_STLB LOAD      ACCESS:       4506  HIT:       4239  MISS:        267
cpu0_STLB RFO       ACCESS:        892  HIT:        862  MISS:         30
cpu0_STLB PREFETCH  ACCESS:          0  HIT:          0  MISS:          0
cpu0_STLB WRITEBACK ACCESS:          0  HIT:          0  MISS:          0
cpu0_L1D TOTAL     ACCESS:    8762824  HIT:    8755742  MISS:       7082
cpu0_L1D LOAD      ACCESS:    4461872  HIT:    4455054  MISS:       6818
cpu0_L1D RFO       ACCESS:    4300655  HIT:    4300398  MISS:        257
cpu0_L1D PREFETCH  ACCESS:          0  HIT:          0  MISS:          0
cpu0_L1D WRITEBACK ACCESS:          0  HIT:          0  MISS:          0
cpu0_L2C TOTAL     ACCESS:      11403  HIT:       4394  MISS:       7009
cpu0_L2C LOAD      ACCESS:      10377  HIT:       3579  MISS:       6798
cpu0_L2C RFO       ACCESS:        257  HIT:         49  MISS:        208
cpu0_L2C PREFETCH  ACCESS:          0  HIT:          0  MISS:          0
cpu0_L2C WRITEBACK ACCESS:        762  HIT:        760  MISS:          2
LLC TOTAL     ACCESS:       8137  HIT:       1301  MISS:       6836
LLC LOAD      ACCESS:       6798  HIT:        151  MISS:       6647
LLC RFO       ACCESS:        208  HIT:         27  MISS:        181
LLC PREFETCH  ACCESS:          0  HIT:          0  MISS:          0
LLC WRITEBACK ACCESS:       1130  HIT:       1122  MISS:          8
Heartbeat CPU 0 instructions: 86000000 cycles: 45733709 heartbeat IPC: 1.10484 cumulative IPC: 1.0867 (Simulation time: 0 hr 42 min 42 sec) 

Region of Interest Statistics
cpu0_DTLB TOTAL     ACCESS:    7476719  HIT:    7470994  MISS:       5725
cpu0_DTLB LOAD      ACCESS:    5026531  HIT:    5021757  MISS:       4774
cpu0_DTLB RFO       ACCESS:    2450188  HIT:    2449237  MISS:        951
cpu0_DTLB PREFETCH  ACCESS:          0  HIT:          0  MISS:          0
cpu0_DTLB WRITEBACK ACCESS:          0  HIT:          0  MISS:          0
cpu0_ITLB TOTAL     ACCESS:    3321643  HIT:    3321643  MISS:          0
cpu0_ITLB LOAD      ACCESS:    3321643  HIT:    3321643  MISS:          0
cpu0_ITLB RFO       ACCESS:          0  HIT:          0  MISS:          0
cpu0_ITLB PREFETCH  ACCESS:          0  HIT:          0  MISS:          0
cpu0_ITLB WRITEBACK ACCESS:          0  HIT:          0  MISS:          0
cpu0_L1I TOTAL     ACCESS:    1363473  HIT:    1359715  MISS:       3758
cpu0_L1I LOAD      ACCESS:    1363473  HIT:    1359715  MISS:       3758
cpu0_L1I RFO       ACCESS:          0  HIT:          0  MISS:          0
cpu0_L1I PREFETCH  ACCESS:          0  HIT:          0  MISS:          0
cpu0_L1I WRITEBACK ACCESS:          0  HIT:          0  MISS:          0
cpu0_STLB TOTAL     ACCESS:       5725  HIT:       5413  MISS:        312
cpu0_STLB LOAD      ACCESS:       4774  HIT:       4495  MISS:        279
cpu0_STLB RFO       ACCESS:        951  HIT:        918  MISS:         33
cpu0_STLB PREFETCH  ACCESS:          0  HIT:          0  MISS:          0
cpu0_STLB WRITEBACK ACCESS:          0  HIT:          0  MISS:          0
cpu0_L1D TOTAL     ACCESS:    9310692  HIT:    9303175  MISS:       7517
cpu0_L1D LOAD      ACCESS:    4723691  HIT:    4716453  MISS:       7238
cpu0_L1D RFO       ACCESS:    4586689  HIT:    4586419  MISS:        270
cpu0_L1D PREFETCH  ACCESS:          0  HIT:          0  MISS:          0
cpu0_L1D WRITEBACK ACCESS:          0  HIT:          0  MISS:          0
cpu0_L2C TOTAL     ACCESS:      12091  HIT:       4655  MISS:       7436
cpu0_L2C LOAD      ACCESS:      10996  HIT:       3784  MISS:       7212
cpu0_L2C RFO       ACCESS:        270  HIT:         50  MISS:        220
cpu0_L2C PREFETCH  ACCESS:          0  HIT:          0  MISS:          0
cpu0_L2C WRITEBACK ACCESS:        816  HIT:        813  MISS:          3
LLC TOTAL     ACCESS:       8617  HIT:       1361  MISS:       7256
LLC LOAD      ACCESS:       7212  HIT:        157  MISS:       7055
LLC RFO       ACCESS:        220  HIT:         27  MISS:        193
LLC PREFETCH  ACCESS:          0  HIT:          0  MISS:          0
LLC WRITEBACK ACCESS:       1184  HIT:       1176  MISS:          8
Heartbeat CPU 0 instructions: 88000000 cycles: 47522592 heartbeat IPC: 1.11802 cumulative IPC: 1.0883 (Simulation time: 0 hr 43 min 41 sec) 

Region of Interest Statistics
cpu0_DTLB TOTAL     ACCESS:    7886968  HIT:    7881078  MISS:       5890
cpu0_DTLB LOAD      ACCESS:    5305598  HIT:    5300693  MISS:       4905
cpu0_DTLB RFO       ACCESS:    2581370  HIT:    2580385  MISS:        985
cpu0_DTLB PREFETCH  ACCESS:          0  HIT:          0  MISS:          0
cpu0_DTLB WRITEBACK ACCESS:          0  HIT:          0  MISS:          0
cpu0_ITLB TOTAL     ACCESS:    3498628  HIT:    3498628  MISS:          0
cpu0_ITLB LOAD      ACCESS:    3498628  HIT:    3498628  MISS:          0
cpu0_ITLB RFO       ACCESS:          0  HIT:          0  MISS:          0
cpu0_ITLB PREFETCH  ACCESS:          0  HIT:          0  MISS:          0
cpu0_ITLB WRITEBACK ACCESS:          0  HIT:          0  MISS:          0
cpu0_L1I TOTAL     ACCESS:    1446735  HIT:    1442809  MISS:       3926
cpu0_L1I LOAD      ACCESS:    1446735  HIT:    1442809  MISS:       3926
cpu0_L1I RFO       ACCESS:          0  HIT:          0  MISS:          0
cpu0_L1I PREFETCH  ACCESS:          0  HIT:          0  MISS:          0
cpu0_L1I WRITEBACK ACCESS:          0  HIT:          0  MISS:          0
cpu0_STLB TOTAL     ACCESS:       5890  HIT:       5568  MISS:        322
cpu0_STLB LOAD      ACCESS:       4905  HIT:       4616  MISS:        289
cpu0_STLB RFO       ACCESS:        985  HIT:        952  MISS:         33
cpu0_STLB PREFETCH  ACCESS:          0  HIT:          0  MISS:          0
cpu0_STLB WRITEBACK ACCESS:          0  HIT:          0  MISS:          0
cpu0_L1D TOTAL     ACCESS:    9812565  HIT:    9804796  MISS:       7769
cpu0_L1D LOAD      ACCESS:    4984090  HIT:    4976623  MISS:       7467
cpu0_L1D RFO       ACCESS:    4828153  HIT:    4827860  MISS:        293
cpu0_L1D PREFETCH  ACCESS:          0  HIT:          0  MISS:          0
cpu0_L1D WRITEBACK ACCESS:          0  HIT:          0  MISS:          0
cpu0_L2C TOTAL     ACCESS:      12535  HIT:       4864  MISS:       7671
cpu0_L2C LOAD      ACCESS:      11393  HIT:       3955  MISS:       7438
cpu0_L2C RFO       ACCESS:        293  HIT:         64  MISS:        229
cpu0_L2C PREFETCH  ACCESS:          0  HIT:          0  MISS:          0
cpu0_L2C WRITEBACK ACCESS:        840  HIT:        837  MISS:          3
LLC TOTAL     ACCESS:       8892  HIT:       1405  MISS:       7487
LLC LOAD      ACCESS:       7438  HIT:        161  MISS:       7277
LLC RFO       ACCESS:        229  HIT:         27  MISS:        202
LLC PREFETCH  ACCESS:          0  HIT:          0  MISS:          0
LLC WRITEBACK ACCESS:       1224  HIT:       1216  MISS:          8
Heartbeat CPU 0 instructions: 90000000 cycles: 49353545 heartbeat IPC: 1.09233 cumulative IPC: 1.0885 (Simulation time: 0 hr 44 min 45 sec) 

Region of Interest Statistics
cpu0_DTLB TOTAL     ACCESS:    8303922  HIT:    8297742  MISS:       6180
cpu0_DTLB LOAD      ACCESS:    5597014  HIT:    5591870  MISS:       5144
cpu0_DTLB RFO       ACCESS:    2706908  HIT:    2705872  MISS:       1036
cpu0_DTLB PREFETCH  ACCESS:          0  HIT:          0  MISS:          0
cpu0_DTLB WRITEBACK ACCESS:          0  HIT:          0  MISS:          0
cpu0_ITLB TOTAL     ACCESS:    3675439  HIT:    3675439  MISS:          0
cpu0_ITLB LOAD      ACCESS:    3675439  HIT:    3675439  MISS:          0
cpu0_ITLB RFO       ACCESS:          0  HIT:          0  MISS:          0
cpu0_ITLB PREFETCH  ACCESS:          0  HIT:          0  MISS:          0
cpu0_ITLB WRITEBACK ACCESS:          0  HIT:          0  MISS:          0
cpu0_L1I TOTAL     ACCESS:    1515468  HIT:    1511288  MISS:       4180
cpu0_L1I LOAD      ACCESS:    1515468  HIT:    1511288  MISS:       4180
cpu0_L1I RFO       ACCESS:          0  HIT:          0  MISS:          0
cpu0_L1I PREFETCH  ACCESS:          0  HIT:          0  MISS:          0
cpu0_L1I WRITEBACK ACCESS:          0  HIT:          0  MISS:          0
cpu0_STLB TOTAL     ACCESS:       6180  HIT:       5845  MISS:        335
cpu0_STLB LOAD      ACCESS:       5144  HIT:       4843  MISS:        301
cpu0_STLB RFO       ACCESS:       1036  HIT:       1002  MISS:         34
cpu0_STLB PREFETCH  ACCESS:          0  HIT:          0  MISS:          0
cpu0_STLB WRITEBACK ACCESS:          0  HIT:          0  MISS:          0
cpu0_L1D TOTAL     ACCESS:   10298034  HIT:   10289846  MISS:       8188
cpu0_L1D LOAD      ACCESS:    5244569  HIT:    5236698  MISS:       7871
cpu0_L1D RFO       ACCESS:    5053130  HIT:    5052822  MISS:        308
cpu0_L1D PREFETCH  ACCESS:          0  HIT:          0  MISS:          0
cpu0_L1D WRITEBACK ACCESS:          0  HIT:          0  MISS:          0
cpu0_L2C TOTAL     ACCESS:      13260  HIT:       5181  MISS:       8079
cpu0_L2C LOAD      ACCESS:      12051  HIT:       4215  MISS:       7836
cpu0_L2C RFO       ACCESS:        308  HIT:         69  MISS:        239
cpu0_L2C PREFETCH  ACCESS:          0  HIT:          0  MISS:          0
cpu0_L2C WRITEBACK ACCESS:        892  HIT:        889  MISS:          3
LLC TOTAL     ACCESS:       9337  HIT:       1448  MISS:       7889
LLC LOAD      ACCESS:       7836  HIT:        167  MISS:       7669
LLC RFO       ACCESS:        239  HIT:         27  MISS:        212
LLC PREFETCH  ACCESS:          0  HIT:          0  MISS:          0
LLC WRITEBACK ACCESS:       1261  HIT:       1253  MISS:          8
Heartbeat CPU 0 instructions: 92000003 cycles: 51279660 heartbeat IPC: 1.03836 cumulative IPC: 1.08601 (Simulation time: 0 hr 45 min 45 sec) 

Region of Interest Statistics
cpu0_DTLB TOTAL     ACCESS:    8721230  HIT:    8714689  MISS:       6541
cpu0_DTLB LOAD      ACCESS:    5879133  HIT:    5873686  MISS:       5447
cpu0_DTLB RFO       ACCESS:    2842097  HIT:    2841003  MISS:       1094
cpu0_DTLB PREFETCH  ACCESS:          0  HIT:          0  MISS:          0
cpu0_DTLB WRITEBACK ACCESS:          0  HIT:          0  MISS:          0
cpu0_ITLB TOTAL     ACCESS:    3856228  HIT:    3856228  MISS:          0
cpu0_ITLB LOAD      ACCESS:    3856228  HIT:    3856228  MISS:          0
cpu0_ITLB RFO       ACCESS:          0  HIT:          0  MISS:          0
cpu0_ITLB PREFETCH  ACCESS:          0  HIT:          0  MISS:          0
cpu0_ITLB WRITEBACK ACCESS:          0  HIT:          0  MISS:          0
cpu0_L1I TOTAL     ACCESS:    1594765  HIT:    1590352  MISS:       4413
cpu0_L1I LOAD      ACCESS:    1594765  HIT:    1590352  MISS:       4413
cpu0_L1I RFO       ACCESS:          0  HIT:          0  MISS:          0
cpu0_L1I PREFETCH  ACCESS:          0  HIT:          0  MISS:          0
cpu0_L1I WRITEBACK ACCESS:          0  HIT:          0  MISS:          0
cpu0_STLB TOTAL     ACCESS:       6541  HIT:       6193  MISS:        348
cpu0_STLB LOAD      ACCESS:       5447  HIT:       5134  MISS:        313
cpu0_STLB RFO       ACCESS:       1094  HIT:       1059  MISS:         35
cpu0_STLB PREFETCH  ACCESS:          0  HIT:          0  MISS:          0
cpu0_STLB WRITEBACK ACCESS:          0  HIT:          0  MISS:          0
cpu0_L1D TOTAL     ACCESS:   10816280  HIT:   10807668  MISS:       8612
cpu0_L1D LOAD      ACCESS:    5506761  HIT:    5498480  MISS:       8281
cpu0_L1D RFO       ACCESS:    5309171  HIT:    5308849  MISS:        322
cpu0_L1D PREFETCH  ACCESS:          0  HIT:          0  MISS:          0
cpu0_L1D WRITEBACK ACCESS:          0  HIT:          0  MISS:          0
cpu0_L2C TOTAL     ACCESS:      13963  HIT:       5455  MISS:       8508
cpu0_L2C LOAD      ACCESS:      12694  HIT:       4441  MISS:       8253
cpu0_L2C RFO       ACCESS:        322  HIT:         71  MISS:        251
cpu0_L2C PREFETCH  ACCESS:          0  HIT:          0  MISS:          0
cpu0_L2C WRITEBACK ACCESS:        938  HIT:        935  MISS:          3
LLC TOTAL     ACCESS:       9809  HIT:       1509  MISS:       8300
LLC LOAD      ACCESS:       8253  HIT:        186  MISS:       8067
LLC RFO       ACCESS:        251  HIT:         27  MISS:        224
LLC PREFETCH  ACCESS:          0  HIT:          0  MISS:          0
LLC WRITEBACK ACCESS:       1304  HIT:       1295  MISS:          9
Heartbeat CPU 0 instructions: 94000003 cycles: 53296826 heartbeat IPC: 0.99149 cumulative IPC: 1.08132 (Simulation time: 0 hr 46 min 51 sec) 

Region of Interest Statistics
cpu0_DTLB TOTAL     ACCESS:    9150042  HIT:    9143231  MISS:       6811
cpu0_DTLB LOAD      ACCESS:    6170365  HIT:    6164693  MISS:       5672
cpu0_DTLB RFO       ACCESS:    2979677  HIT:    2978538  MISS:       1139
cpu0_DTLB PREFETCH  ACCESS:          0  HIT:          0  MISS:          0
cpu0_DTLB WRITEBACK ACCESS:          0  HIT:          0  MISS:          0
cpu0_ITLB TOTAL     ACCESS:    4055072  HIT:    4055072  MISS:          0
cpu0_ITLB LOAD      ACCESS:    4055072  HIT:    4055072  MISS:          0
cpu0_ITLB RFO       ACCESS:          0  HIT:          0  MISS:          0
cpu0_ITLB PREFETCH  ACCESS:          0  HIT:          0  MISS:          0
cpu0_ITLB WRITEBACK ACCESS:          0  HIT:          0  MISS:          0
cpu0_L1I TOTAL     ACCESS:    1655243  HIT:    1650672  MISS:       4571
cpu0_L1I LOAD      ACCESS:    1655243  HIT:    1650672  MISS:       4571
cpu0_L1I RFO       ACCESS:          0  HIT:          0  MISS:          0
cpu0_L1I PREFETCH  ACCESS:          0  HIT:          0  MISS:          0
cpu0_L1I WRITEBACK ACCESS:          0  HIT:          0  MISS:          0
cpu0_STLB TOTAL     ACCESS:       6811  HIT:       6446  MISS:        365
cpu0_STLB LOAD      ACCESS:       5672  HIT:       5344  MISS:        328
cpu0_STLB RFO       ACCESS:       1139  HIT:       1102  MISS:         37
cpu0_STLB PREFETCH  ACCESS:          0  HIT:          0  MISS:          0
cpu0_STLB WRITEBACK ACCESS:          0  HIT:          0  MISS:          0
cpu0_L1D TOTAL     ACCESS:   11340530  HIT:   11331533  MISS:       8997
cpu0_L1D LOAD      ACCESS:    5782780  HIT:    5774125  MISS:       8655
cpu0_L1D RFO       ACCESS:    5557385  HIT:    5557053  MISS:        332
cpu0_L1D PREFETCH  ACCESS:          0  HIT:          0  MISS:          0
cpu0_L1D WRITEBACK ACCESS:          0  HIT:          0  MISS:          0
cpu0_L2C TOTAL     ACCESS:      14551  HIT:       5665  MISS:       8886
cpu0_L2C LOAD      ACCESS:      13226  HIT:       4606  MISS:       8620
cpu0_L2C RFO       ACCESS:        332  HIT:         72  MISS:        260
cpu0_L2C PREFETCH  ACCESS:          0  HIT:          0  MISS:          0
cpu0_L2C WRITEBACK ACCESS:        983  HIT:        978  MISS:          5
LLC TOTAL     ACCESS:      10227  HIT:       1565  MISS:       8662
LLC LOAD      ACCESS:       8620  HIT:        200  MISS:       8420
LLC RFO       ACCESS:        260  HIT:         27  MISS:        233
LLC PREFETCH  ACCESS:          0  HIT:          0  MISS:          0
LLC WRITEBACK ACCESS:       1346  HIT:       1337  MISS:          9
Heartbeat CPU 0 instructions: 96000004 cycles: 55324900 heartbeat IPC: 0.986158 cumulative IPC: 1.0768 (Simulation time: 0 hr 47 min 55 sec) 

Region of Interest Statistics
cpu0_DTLB TOTAL     ACCESS:    9595671  HIT:    9588723  MISS:       6948
cpu0_DTLB LOAD      ACCESS:    6467042  HIT:    6461260  MISS:       5782
cpu0_DTLB RFO       ACCESS:    3128629  HIT:    3127463  MISS:       1166
cpu0_DTLB PREFETCH  ACCESS:          0  HIT:          0  MISS:          0
cpu0_DTLB WRITEBACK ACCESS:          0  HIT:          0  MISS:          0
cpu0_ITLB TOTAL     ACCESS:    4266696  HIT:    4266696  MISS:          0
cpu0_ITLB LOAD      ACCESS:    4266696  HIT:    4266696  MISS:          0
cpu0_ITLB RFO       ACCESS:          0  HIT:          0  MISS:          0
cpu0_ITLB PREFETCH  ACCESS:          0  HIT:          0  MISS:          0
cpu0_ITLB WRITEBACK ACCESS:          0  HIT:          0  MISS:          0
cpu0_L1I TOTAL     ACCESS:    1697424  HIT:    1692762  MISS:       4662
cpu0_L1I LOAD      ACCESS:    1697424  HIT:    1692762  MISS:       4662
cpu0_L1I RFO       ACCESS:          0  HIT:          0  MISS:          0
cpu0_L1I PREFETCH  ACCESS:          0  HIT:          0  MISS:          0
cpu0_L1I WRITEBACK ACCESS:          0  HIT:          0  MISS:          0
cpu0_STLB TOTAL     ACCESS:       6948  HIT:       6577  MISS:        371
cpu0_STLB LOAD      ACCESS:       5782  HIT:       5448  MISS:        334
cpu0_STLB RFO       ACCESS:       1166  HIT:       1129  MISS:         37
cpu0_STLB PREFETCH  ACCESS:          0  HIT:          0  MISS:          0
cpu0_STLB WRITEBACK ACCESS:          0  HIT:          0  MISS:          0
cpu0_L1D TOTAL     ACCESS:   11890177  HIT:   11881002  MISS:       9175
cpu0_L1D LOAD      ACCESS:    6066491  HIT:    6057665  MISS:       8826
cpu0_L1D RFO       ACCESS:    5823315  HIT:    5822976  MISS:        339
cpu0_L1D PREFETCH  ACCESS:          0  HIT:          0  MISS:          0
cpu0_L1D WRITEBACK ACCESS:          0  HIT:          0  MISS:          0
cpu0_L2C TOTAL     ACCESS:      14837  HIT:       5775  MISS:       9062
cpu0_L2C LOAD      ACCESS:      13488  HIT:       4698  MISS:       8790
cpu0_L2C RFO       ACCESS:        339  HIT:         73  MISS:        266
cpu0_L2C PREFETCH  ACCESS:          0  HIT:          0  MISS:          0
cpu0_L2C WRITEBACK ACCESS:       1000  HIT:        995  MISS:          5
LLC TOTAL     ACCESS:      10420  HIT:       1585  MISS:       8835
LLC LOAD      ACCESS:       8790  HIT:        203  MISS:       8587
LLC RFO       ACCESS:        266  HIT:         27  MISS:        239
LLC PREFETCH  ACCESS:          0  HIT:          0  MISS:          0
LLC WRITEBACK ACCESS:       1363  HIT:       1354  MISS:          9
Heartbeat CPU 0 instructions: 98000001 cycles: 57330683 heartbeat IPC: 0.997115 cumulative IPC: 1.07323 (Simulation time: 0 hr 49 min 0 sec) 

Region of Interest Statistics
cpu0_DTLB TOTAL     ACCESS:   10050885  HIT:   10043723  MISS:       7162
cpu0_DTLB LOAD      ACCESS:    6769231  HIT:    6763266  MISS:       5965
cpu0_DTLB RFO       ACCESS:    3281654  HIT:    3280457  MISS:       1197
cpu0_DTLB PREFETCH  ACCESS:          0  HIT:          0  MISS:          0
cpu0_DTLB WRITEBACK ACCESS:          0  HIT:          0  MISS:          0
cpu0_ITLB TOTAL     ACCESS:    4477863  HIT:    4477863  MISS:          0
cpu0_ITLB LOAD      ACCESS:    4477863  HIT:    4477863  MISS:          0
cpu0_ITLB RFO       ACCESS:          0  HIT:          0  MISS:          0
cpu0_ITLB PREFETCH  ACCESS:          0  HIT:          0  MISS:          0
cpu0_ITLB WRITEBACK ACCESS:          0  HIT:          0  MISS:          0
cpu0_L1I TOTAL     ACCESS:    1728745  HIT:    1723981  MISS:       4764
cpu0_L1I LOAD      ACCESS:    1728745  HIT:    1723981  MISS:       4764
cpu0_L1I RFO       ACCESS:          0  HIT:          0  MISS:          0
cpu0_L1I PREFETCH  ACCESS:          0  HIT:          0  MISS:          0
cpu0_L1I WRITEBACK ACCESS:          0  HIT:          0  MISS:          0
cpu0_STLB TOTAL     ACCESS:       7162  HIT:       6776  MISS:        386
cpu0_STLB LOAD      ACCESS:       5965  HIT:       5617  MISS:        348
cpu0_STLB RFO       ACCESS:       1197  HIT:       1159  MISS:         38
cpu0_STLB PREFETCH  ACCESS:          0  HIT:          0  MISS:          0
cpu0_STLB WRITEBACK ACCESS:          0  HIT:          0  MISS:          0
cpu0_L1D TOTAL     ACCESS:   12453040  HIT:   12443572  MISS:       9468
cpu0_L1D LOAD      ACCESS:    6348606  HIT:    6339493  MISS:       9113
cpu0_L1D RFO       ACCESS:    6104048  HIT:    6103704  MISS:        344
cpu0_L1D PREFETCH  ACCESS:          0  HIT:          0  MISS:          0
cpu0_L1D WRITEBACK ACCESS:          0  HIT:          0  MISS:          0
cpu0_L2C TOTAL     ACCESS:      15262  HIT:       5914  MISS:       9348
cpu0_L2C LOAD      ACCESS:      13877  HIT:       4806  MISS:       9071
cpu0_L2C RFO       ACCESS:        344  HIT:         73  MISS:        271
cpu0_L2C PREFETCH  ACCESS:          0  HIT:          0  MISS:          0
cpu0_L2C WRITEBACK ACCESS:       1030  HIT:       1025  MISS:          5
LLC TOTAL     ACCESS:      10733  HIT:       1619  MISS:       9114
LLC LOAD      ACCESS:       9071  HIT:        210  MISS:       8861
LLC RFO       ACCESS:        271  HIT:         27  MISS:        244
LLC PREFETCH  ACCESS:          0  HIT:          0  MISS:          0
LLC WRITEBACK ACCESS:       1390  HIT:       1381  MISS:          9
Heartbeat CPU 0 instructions: 100000001 cycles: 59192503 heartbeat IPC: 1.07422 cumulative IPC: 1.07327 (Simulation time: 0 hr 50 min 1 sec) 

Region of Interest Statistics
cpu0_DTLB TOTAL     ACCESS:   10462702  HIT:   10455140  MISS:       7562
cpu0_DTLB LOAD      ACCESS:    7053031  HIT:    7046740  MISS:       6291
cpu0_DTLB RFO       ACCESS:    3409671  HIT:    3408400  MISS:       1271
cpu0_DTLB PREFETCH  ACCESS:          0  HIT:          0  MISS:          0
cpu0_DTLB WRITEBACK ACCESS:          0  HIT:          0  MISS:          0
cpu0_ITLB TOTAL     ACCESS:    4655404  HIT:    4655404  MISS:          0
cpu0_ITLB LOAD      ACCESS:    4655404  HIT:    4655404  MISS:          0
cpu0_ITLB RFO       ACCESS:          0  HIT:          0  MISS:          0
cpu0_ITLB PREFETCH  ACCESS:          0  HIT:          0  MISS:          0
cpu0_ITLB WRITEBACK ACCESS:          0  HIT:          0  MISS:          0
cpu0_L1I TOTAL     ACCESS:    1805706  HIT:    1800679  MISS:       5027
cpu0_L1I LOAD      ACCESS:    1805706  HIT:    1800679  MISS:       5027
cpu0_L1I RFO       ACCESS:          0  HIT:          0  MISS:          0
cpu0_L1I PREFETCH  ACCESS:          0  HIT:          0  MISS:          0
cpu0_L1I WRITEBACK ACCESS:          0  HIT:          0  MISS:          0
cpu0_STLB TOTAL     ACCESS:       7562  HIT:       7161  MISS:        401
cpu0_STLB LOAD      ACCESS:       6291  HIT:       5930  MISS:        361
cpu0_STLB RFO       ACCESS:       1271  HIT:       1231  MISS:         40
cpu0_STLB PREFETCH  ACCESS:          0  HIT:          0  MISS:          0
cpu0_STLB WRITEBACK ACCESS:          0  HIT:          0  MISS:          0
cpu0_L1D TOTAL     ACCESS:   12949806  HIT:   12939787  MISS:      10019
cpu0_L1D LOAD      ACCESS:    6610640  HIT:    6600990  MISS:       9650
cpu0_L1D RFO       ACCESS:    6338765  HIT:    6338407  MISS:        358
cpu0_L1D PREFETCH  ACCESS:          0  HIT:          0  MISS:          0
cpu0_L1D WRITEBACK ACCESS:          0  HIT:          0  MISS:          0
cpu0_L2C TOTAL     ACCESS:      16131  HIT:       6240  MISS:       9891
cpu0_L2C LOAD      ACCESS:      14677  HIT:       5076  MISS:       9601
cpu0_L2C RFO       ACCESS:        358  HIT:         74  MISS:        284
cpu0_L2C PREFETCH  ACCESS:          0  HIT:          0  MISS:          0
cpu0_L2C WRITEBACK ACCESS:       1085  HIT:       1080  MISS:          5
LLC TOTAL     ACCESS:      11341  HIT:       1699  MISS:       9642
LLC LOAD      ACCESS:       9601  HIT:        225  MISS:       9376
LLC RFO       ACCESS:        284  HIT:         27  MISS:        257
LLC PREFETCH  ACCESS:          0  HIT:          0  MISS:          0
LLC WRITEBACK ACCESS:       1455  HIT:       1446  MISS:          9
Heartbeat CPU 0 instructions: 102000001 cycles: 61126903 heartbeat IPC: 1.03391 cumulative IPC: 1.0717 (Simulation time: 0 hr 51 min 9 sec) 

Region of Interest Statistics
cpu0_DTLB TOTAL     ACCESS:   10891187  HIT:   10883437  MISS:       7750
cpu0_DTLB LOAD      ACCESS:    7365570  HIT:    7359122  MISS:       6448
cpu0_DTLB RFO       ACCESS:    3525617  HIT:    3524315  MISS:       1302
cpu0_DTLB PREFETCH  ACCESS:          0  HIT:          0  MISS:          0
cpu0_DTLB WRITEBACK ACCESS:          0  HIT:          0  MISS:          0
cpu0_ITLB TOTAL     ACCESS:    4853945  HIT:    4853945  MISS:          0
cpu0_ITLB LOAD      ACCESS:    4853945  HIT:    4853945  MISS:          0
cpu0_ITLB RFO       ACCESS:          0  HIT:          0  MISS:          0
cpu0_ITLB PREFETCH  ACCESS:          0  HIT:          0  MISS:          0
cpu0_ITLB WRITEBACK ACCESS:          0  HIT:          0  MISS:          0
cpu0_L1I TOTAL     ACCESS:    1843193  HIT:    1838027  MISS:       5166
cpu0_L1I LOAD      ACCESS:    1843193  HIT:    1838027  MISS:       5166
cpu0_L1I RFO       ACCESS:          0  HIT:          0  MISS:          0
cpu0_L1I PREFETCH  ACCESS:          0  HIT:          0  MISS:          0
cpu0_L1I WRITEBACK ACCESS:          0  HIT:          0  MISS:          0
cpu0_STLB TOTAL     ACCESS:       7750  HIT:       7343  MISS:        407
cpu0_STLB LOAD      ACCESS:       6448  HIT:       6082  MISS:        366
cpu0_STLB RFO       ACCESS:       1302  HIT:       1261  MISS:         41
cpu0_STLB PREFETCH  ACCESS:          0  HIT:          0  MISS:          0
cpu0_STLB WRITEBACK ACCESS:          0  HIT:          0  MISS:          0
cpu0_L1D TOTAL     ACCESS:   13391943  HIT:   13381671  MISS:      10272
cpu0_L1D LOAD      ACCESS:    6883534  HIT:    6873638  MISS:       9896
cpu0_L1D RFO       ACCESS:    6508002  HIT:    6507637  MISS:        365
cpu0_L1D PREFETCH  ACCESS:          0  HIT:          0  MISS:          0
cpu0_L1D WRITEBACK ACCESS:          0  HIT:          0  MISS:          0
cpu0_L2C TOTAL     ACCESS:      16547  HIT:       6408  MISS:      10139
cpu0_L2C LOAD      ACCESS:      15062  HIT:       5219  MISS:       9843
cpu0_L2C RFO       ACCESS:        365  HIT:         75  MISS:        290
cpu0_L2C PREFETCH  ACCESS:          0  HIT:          0  MISS:          0
cpu0_L2C WRITEBACK ACCESS:       1109  HIT:       1104  MISS:          5
LLC TOTAL     ACCESS:      11613  HIT:       1728  MISS:       9885
LLC LOAD      ACCESS:       9843  HIT:        230  MISS:       9613
LLC RFO       ACCESS:        290  HIT:         27  MISS:        263
LLC PREFETCH  ACCESS:          0  HIT:          0  MISS:          0
LLC WRITEBACK ACCESS:       1479  HIT:       1470  MISS:          9
Heartbeat CPU 0 instructions: 104000003 cycles: 62837123 heartbeat IPC: 1.16944 cumulative IPC: 1.07503 (Simulation time: 0 hr 52 min 5 sec) 

Region of Interest Statistics
cpu0_DTLB TOTAL     ACCESS:   11288909  HIT:   11280783  MISS:       8126
cpu0_DTLB LOAD      ACCESS:    7629758  HIT:    7623006  MISS:       6752
cpu0_DTLB RFO       ACCESS:    3659151  HIT:    3657777  MISS:       1374
cpu0_DTLB PREFETCH  ACCESS:          0  HIT:          0  MISS:          0
cpu0_DTLB WRITEBACK ACCESS:          0  HIT:          0  MISS:          0
cpu0_ITLB TOTAL     ACCESS:    5019647  HIT:    5019647  MISS:          0
cpu0_ITLB LOAD      ACCESS:    5019647  HIT:    5019647  MISS:          0
cpu0_ITLB RFO       ACCESS:          0  HIT:          0  MISS:          0
cpu0_ITLB PREFETCH  ACCESS:          0  HIT:          0  MISS:          0
cpu0_ITLB WRITEBACK ACCESS:          0  HIT:          0  MISS:          0
cpu0_L1I TOTAL     ACCESS:    1943954  HIT:    1938550  MISS:       5404
cpu0_L1I LOAD      ACCESS:    1943954  HIT:    1938550  MISS:       5404
cpu0_L1I RFO       ACCESS:          0  HIT:          0  MISS:          0
cpu0_L1I PREFETCH  ACCESS:          0  HIT:          0  MISS:          0
cpu0_L1I WRITEBACK ACCESS:          0  HIT:          0  MISS:          0
cpu0_STLB TOTAL     ACCESS:       8126  HIT:       7705  MISS:        421
cpu0_STLB LOAD      ACCESS:       6752  HIT:       6374  MISS:        378
cpu0_STLB RFO       ACCESS:       1374  HIT:       1331  MISS:         43
cpu0_STLB PREFETCH  ACCESS:          0  HIT:          0  MISS:          0
cpu0_STLB WRITEBACK ACCESS:          0  HIT:          0  MISS:          0
cpu0_L1D TOTAL     ACCESS:   13902239  HIT:   13891516  MISS:      10723
cpu0_L1D LOAD      ACCESS:    7133977  HIT:    7123649  MISS:      10328
cpu0_L1D RFO       ACCESS:    6767841  HIT:    6767457  MISS:        384
cpu0_L1D PREFETCH  ACCESS:          0  HIT:          0  MISS:          0
cpu0_L1D WRITEBACK ACCESS:          0  HIT:          0  MISS:          0
cpu0_L2C TOTAL     ACCESS:      17281  HIT:       6697  MISS:      10584
cpu0_L2C LOAD      ACCESS:      15732  HIT:       5459  MISS:      10273
cpu0_L2C RFO       ACCESS:        384  HIT:         79  MISS:        305
cpu0_L2C PREFETCH  ACCESS:          0  HIT:          0  MISS:          0
cpu0_L2C WRITEBACK ACCESS:       1154  HIT:       1149  MISS:          5
LLC TOTAL     ACCESS:      12114  HIT:       1794  MISS:      10320
LLC LOAD      ACCESS:      10273  HIT:        240  MISS:      10033
LLC RFO       ACCESS:        305  HIT:         27  MISS:        278
LLC PREFETCH  ACCESS:          0  HIT:          0  MISS:          0
LLC WRITEBACK ACCESS:       1535  HIT:       1526  MISS:          9
Heartbeat CPU 0 instructions: 106000001 cycles: 64934909 heartbeat IPC: 0.953385 cumulative IPC: 1.07015 (Simulation time: 0 hr 53 min 8 sec) 

Region of Interest Statistics
cpu0_DTLB TOTAL     ACCESS:   11750444  HIT:   11742314  MISS:       8130
cpu0_DTLB LOAD      ACCESS:    7930376  HIT:    7923620  MISS:       6756
cpu0_DTLB RFO       ACCESS:    3820068  HIT:    3818694  MISS:       1374
cpu0_DTLB PREFETCH  ACCESS:          0  HIT:          0  MISS:          0
cpu0_DTLB WRITEBACK ACCESS:          0  HIT:          0  MISS:          0
cpu0_ITLB TOTAL     ACCESS:    5254472  HIT:    5254472  MISS:          0
cpu0_ITLB LOAD      ACCESS:    5254472  HIT:    5254472  MISS:          0
cpu0_ITLB RFO       ACCESS:          0  HIT:          0  MISS:          0
cpu0_ITLB PREFETCH  ACCESS:          0  HIT:          0  MISS:          0
cpu0_ITLB WRITEBACK ACCESS:          0  HIT:          0  MISS:          0
cpu0_L1I TOTAL     ACCESS:    1953974  HIT:    1948570  MISS:       5404
cpu0_L1I LOAD      ACCESS:    1953974  HIT:    1948570  MISS:       5404
cpu0_L1I RFO       ACCESS:          0  HIT:          0  MISS:          0
cpu0_L1I PREFETCH  ACCESS:          0  HIT:          0  MISS:          0
cpu0_L1I WRITEBACK ACCESS:          0  HIT:          0  MISS:          0
cpu0_STLB TOTAL     ACCESS:       8130  HIT:       7709  MISS:        421
cpu0_STLB LOAD      ACCESS:       6756  HIT:       6378  MISS:        378
cpu0_STLB RFO       ACCESS:       1374  HIT:       1331  MISS:         43
cpu0_STLB PREFETCH  ACCESS:          0  HIT:          0  MISS:          0
cpu0_STLB WRITEBACK ACCESS:          0  HIT:          0  MISS:          0
cpu0_L1D TOTAL     ACCESS:   14478031  HIT:   14467308  MISS:      10723
cpu0_L1D LOAD      ACCESS:    7422893  HIT:    7412565  MISS:      10328
cpu0_L1D RFO       ACCESS:    7054717  HIT:    7054333  MISS:        384
cpu0_L1D PREFETCH  ACCESS:          0  HIT:          0  MISS:          0
cpu0_L1D WRITEBACK ACCESS:          0  HIT:          0  MISS:          0
cpu0_L2C TOTAL     ACCESS:      17281  HIT:       6697  MISS:      10584
cpu0_L2C LOAD      ACCESS:      15732  HIT:       5459  MISS:      10273
cpu0_L2C RFO       ACCESS:        384  HIT:         79  MISS:        305
cpu0_L2C PREFETCH  ACCESS:          0  HIT:          0  MISS:          0
cpu0_L2C WRITEBACK ACCESS:       1154  HIT:       1149  MISS:          5
LLC TOTAL     ACCESS:      12114  HIT:       1794  MISS:      10320
[...]
cpu0_DTLB PREFETCH  ACCESS:          0  HIT:          0  MISS:          0
cpu0_DTLB WRITEBACK ACCESS:          0  HIT:          0  MISS:          0
cpu0_DTLB TRANSLATION ACCESS:          0  HIT:          0  MISS:          0
cpu0_DTLB PREFETCH  REQUESTED:          0  ISSUED:          0  USEFUL:          0  USELESS:          0
cpu0_DTLB AVERAGE MISS LATENCY: 9.41297 cycles
cpu0_ITLB TOTAL     ACCESS:  135257582  HIT:  135112363  MISS:     145219
cpu0_ITLB LOAD      ACCESS:  135257582  HIT:  135112363  MISS:     145219
cpu0_ITLB RFO       ACCESS:          0  HIT:          0  MISS:          0
cpu0_ITLB PREFETCH  ACCESS:          0  HIT:          0  MISS:          0
cpu0_ITLB WRITEBACK ACCESS:          0  HIT:          0  MISS:          0
cpu0_ITLB TRANSLATION ACCESS:          0  HIT:          0  MISS:          0
cpu0_ITLB PREFETCH  REQUESTED:          0  ISSUED:          0  USEFUL:          0  USELESS:          0
cpu0_ITLB AVERAGE MISS LATENCY: 9.345 cycles
cpu0_L1I TOTAL     ACCESS:   83970617  HIT:   80546498  MISS:    3424119
cpu0_L1I LOAD      ACCESS:   83970617  HIT:   80546498  MISS:    3424119
cpu0_L1I RFO       ACCESS:          0  HIT:          0  MISS:          0
cpu0_L1I PREFETCH  ACCESS:          0  HIT:          0  MISS:          0
cpu0_L1I WRITEBACK ACCESS:          0  HIT:          0  MISS:          0
cpu0_L1I TRANSLATION ACCESS:          0  HIT:          0  MISS:          0
cpu0_L1I PREFETCH  REQUESTED:          0  ISSUED:          0  USEFUL:          0  USELESS:          0
cpu0_L1I AVERAGE MISS LATENCY: 12.3571 cycles
cpu0_STLB TOTAL     ACCESS:    3127686  HIT:    3023059  MISS:     104627
cpu0_STLB LOAD      ACCESS:    2714412  HIT:    2620193  MISS:      94219
cpu0_STLB RFO       ACCESS:     413274  HIT:     402866  MISS:      10408
cpu0_STLB PREFETCH  ACCESS:          0  HIT:          0  MISS:          0
cpu0_STLB WRITEBACK ACCESS:          0  HIT:          0  MISS:          0
cpu0_STLB TRANSLATION ACCESS:          0  HIT:          0  MISS:          0
cpu0_STLB PREFETCH  REQUESTED:          0  ISSUED:          0  USEFUL:          0  USELESS:          0
cpu0_STLB AVERAGE MISS LATENCY: 12.1091 cycles
cpu0_L1D TOTAL     ACCESS:  430898523  HIT:  426800051  MISS:    4098472
cpu0_L1D LOAD      ACCESS:  222347280  HIT:  218592319  MISS:    3754961
cpu0_L1D RFO       ACCESS:  208446942  HIT:  208113777  MISS:     333165
cpu0_L1D PREFETCH  ACCESS:          0  HIT:          0  MISS:          0
cpu0_L1D WRITEBACK ACCESS:          0  HIT:          0  MISS:          0
cpu0_L1D TRANSLATION ACCESS:     104301  HIT:      93955  MISS:      10346
cpu0_L1D PREFETCH  REQUESTED:          0  ISSUED:          0  USEFUL:          0  USELESS:          0
cpu0_L1D AVERAGE MISS LATENCY: 48.7993 cycles
cpu0_L2C TOTAL     ACCESS:    8510383  HIT:    6979318  MISS:    1531065
cpu0_L2C LOAD      ACCESS:    7179012  HIT:    5754714  MISS:    1424298
cpu0_L2C RFO       ACCESS:     333152  HIT:     230838  MISS:     102314
cpu0_L2C PREFETCH  ACCESS:          0  HIT:          0  MISS:          0
cpu0_L2C WRITEBACK ACCESS:     987873  HIT:     983976  MISS:       3897
cpu0_L2C TRANSLATION ACCESS:      10346  HIT:       9790  MISS:        556
cpu0_L2C PREFETCH  REQUESTED:          0  ISSUED:          0  USEFUL:          0  USELESS:          0
cpu0_L2C AVERAGE MISS LATENCY: 104.154 cycles
LLC TOTAL     ACCESS:    1816666  HIT:     945299  MISS:     871367
LLC LOAD      ACCESS:    1424298  HIT:     594591  MISS:     829707
LLC RFO       ACCESS:     102313  HIT:      61518  MISS:      40795
LLC PREFETCH  ACCESS:          0  HIT:          0  MISS:          0
LLC WRITEBACK ACCESS:     289499  HIT:     288642  MISS:        857
LLC TRANSLATION ACCESS:        556  HIT:        548  MISS:          8
LLC PREFETCH  REQUESTED:          0  ISSUED:          0  USEFUL:          0  USELESS:          0
LLC AVERAGE MISS LATENCY: 146.203 cycles
~~~~~~~~~~Reuse Distance Profiler output~~~~~~~~~~
0	93830688	5430864
1	32411920	18215792
2	22512080	11224176
3	14438960	6557680
4	8748864	5759584
5	10041248	6094320
6	13705104	8827264
7	9109248	6857280
8	8700480	4600576
9	7663168	3790544
10	6406288	3471744
11	7021072	3702512
12	9550784	6815616
13	7909344	5047456
14	4928256	3534224
15	10237728	6890544
16	4815616	3781872
17	7486848	5776384
18	3270256	2468336
19	2580000	2175808
20	3438384	2983440
21	3391440	2911120
22	3505184	2273312
23	2862448	1455888
24	3585216	2521872
25	4011824	3516112
26	1975136	1632144
27	3161456	2469808
28	1565376	1034352
29	1539424	1075824
30	2848976	2549280
31	3389296	2864688
32	916512	555872
33	2120080	1305024
34	1308160	897440
35	1803312	919344
36	1391120	489472
37	947024	463072
38	1341728	834320
39	924320	403040
40	1703552	534480
41	1972624	1503824
42	1189312	441456
43	958512	331792
44	1634960	536608
45	1323648	802256
46	1408672	977104
47	1157776	622704
48	1452512	493200
49	1459440	839376
50	853744	465776
51	829392	360896
52	1175264	476336
53	6010208	3943760
54	1821744	1137024
55	4409680	3134064
56	919456	450624
57	2630752	1780320
58	1032224	634976
59	2128368	1232544
60	554752	288624
61	1548288	1005040
62	820832	450560
63	1086064	786400
64	1960256	1279136
66	1016624	592800
68	994720	630304
70	1442576	676576
72	1165552	580128
74	692704	422144
76	996048	784336
78	979664	707216
80	992352	710848
82	752704	437168
84	830192	513584
86	611184	331056
88	786384	588416
90	812160	602848
92	703328	524688
94	973920	546176
96	634016	363376
98	549264	420144
100	435328	332224
102	732368	592896
104	1075216	649904
106	1331888	791856
108	4199040	2743296
110	1692000	1168512
112	508992	335440
114	441680	332560
116	747088	516608
118	700560	406480
120	1654848	1044928
122	1068032	679808
124	1128160	718464
126	560128	359536
128	881568	559616
132	860032	513984
136	1000848	611808
140	862976	578848
144	647744	445712
148	967296	626144
152	939472	630128
156	628368	465680
160	444064	347088
164	394096	301376
168	520144	399728
172	390912	289408
176	404896	291280
180	550640	373664
184	555600	379888
188	528112	361888
192	579520	372688
196	509680	373136
200	729600	480816
204	420688	280832
208	400576	305888
212	471472	342800
216	608816	431424
220	398144	285296
224	493920	294384
228	281728	186192
232	395440	261600
236	290288	204128
240	530272	304768
244	234896	157968
248	251968	159600
252	301952	212432
256	526992	393424
264	384944	291872
272	328624	224880
280	336032	230720
288	374528	242320
296	329184	243056
304	299184	214768
312	224784	174416
320	233680	171104
328	212544	170592
336	234096	170704
344	266576	193136
352	236544	169632
360	191712	143712
368	177056	139296
376	168784	128704
384	146848	114112
392	136064	102032
400	162944	121920
408	135360	100720
416	103376	75376
424	108640	79072
432	118720	91312
440	123472	97408
448	132512	104864
456	117376	90128
464	112288	85520
472	106784	86176
480	106560	85712
488	101840	84288
496	99392	81776
504	91760	73936
512	207680	166080
528	209888	172336
544	220336	186192
560	175104	140032
576	144768	112656
592	112976	89984
608	115984	91344
624	108864	84048
640	104080	81488
656	90080	67088
672	95744	68400
688	98320	72240
704	95216	74624
720	89792	65824
736	85264	63840
752	84048	60656
768	81664	61856
784	78896	57184
800	75248	56944
816	67152	51808
832	66000	50272
848	63760	49264
864	68112	53152
880	66320	54320
896	70800	54352
912	60832	47184
928	56912	44896
944	60576	46832
960	71648	54384
976	75232	57728
992	74704	56784
1008	72784	56832
1024	135024	109616
1056	124704	102336
1088	114896	93696
1120	111728	91024
1152	81808	65648
1184	84896	68848
1216	97984	75328
1248	88848	70528
1280	93904	79264
1312	89376	69952
1344	85136	64096
1376	74112	60784
1408	84368	67344
1440	113648	90368
1472	100624	80272
1504	88448	70480
1536	97504	79680
1568	85296	71136
1600	79888	65808
1632	106832	91344
1664	76336	61008
1696	56608	42496
1728	60912	46240
1760	50656	38800
1792	53936	41024
1824	53296	40128
1856	56208	43488
1888	52048	42656
1920	53152	43792
1952	52272	42832
1984	59664	47312
2016	48032	39216
2048	90656	70672
2112	85488	66368
2176	82080	63792
2240	80432	63728
2304	75216	59472
2368	71792	55872
2432	81616	62736
2496	74208	56288
2560	80144	62864
2624	74416	60496
2688	79888	62864
2752	76832	62944
2816	100640	84384
2880	89024	74528
2944	69408	57968
3008	59648	48864
3072	56352	45648
3136	48080	38832
3200	51888	43696
3264	53760	43616
3328	50080	40960
3392	55200	46832
3456	63248	54448
3520	80384	70464
3584	61152	53328
3648	52864	45312
3712	55440	47840
3776	64016	55232
3840	46512	37968
3904	48144	39920
3968	49600	41056
4032	45872	37568
4096	76752	64288
4224	69280	57872
4352	61440	50688
4480	67376	56240
4608	64240	53824
4736	61024	50112
4864	57888	47984
4992	55904	46416
5120	50336	41264
5248	56640	46496
5376	50256	42000
5504	52768	45184
5632	54576	48032
5760	62688	56160
5888	65744	58576
6016	52432	46160
6144	59360	52848
6272	48192	42128
6400	36656	30880
6528	43552	37776
6656	50912	43856
6784	45888	40368
6912	40016	34352
7040	41888	36720
7168	48432	42832
7296	46736	41648
7424	34784	29696
7552	32608	28448
7680	39616	34288
7808	40368	34816
7936	41056	34832
8064	43712	37568
8192	82848	72560
8448	89488	79328
8704	77056	67232
8960	84464	75744
9216	77280	69936
9472	53040	46512
9728	69552	63296
9984	59584	53520
10240	57664	51584
10496	65968	59536
10752	52672	45680
11008	42560	38112
11264	43456	38752
11520	40576	35792
11776	38544	34048
12032	37264	33680
12288	37008	32720
12544	39264	34800
12800	50736	45376
13056	47744	43200
13312	43648	38608
13568	38640	34496
13824	40992	37040
14080	37888	33568
14336	43968	39872
14592	36288	32096
14848	40720	36352
15104	44064	40272
15360	42576	38720
15616	35728	32544
15872	34032	31184
16128	34736	31888
16384	90256	83856
16896	77904	71424
17408	78304	71680
17920	58528	53680
18432	65408	59456
18944	65856	60944
19456	73616	68112
19968	71792	66192
20480	65360	60672
20992	56096	51520
21504	50192	46240
22016	53168	48528
22528	49168	44208
23040	46800	42736
23552	40768	37216
24064	29968	27232
24576	30960	28320
25088	32160	29424
25600	28224	25712
26112	39104	35136
26624	42400	37552
27136	30816	28016
27648	25328	23312
28160	22576	20896
28672	18688	17040
29184	23024	20672
29696	26592	24208
30208	20800	18656
30720	26608	24176
31232	27264	24944
31744	34512	32416
32256	24240	22624
32768	38960	36224
33792	32336	29904
34816	27536	25488
35840	30640	27968
36864	60080	51664
37888	45136	39872
38912	21792	19728
39936	19840	17376
40960	18416	16624
41984	19744	17824
43008	19072	17408
44032	16976	15216
45056	17520	15520
46080	19936	18576
47104	17344	15792
48128	27296	25504
49152	22000	20272
50176	20800	18912
51200	26320	23920
52224	45904	43472
53248	23104	21440
54272	19184	17792
55296	20224	18544
56320	18256	16928
57344	13760	12784
58368	15040	13344
59392	12336	10736
60416	18016	16624
61440	14768	13840
62464	11744	10672
63488	11232	10144
64512	11744	10688
65536	25376	23408
67584	32176	30080
69632	18272	16672
71680	18304	16672
73728	24848	23104
75776	23104	21344
77824	21360	18864
79872	21408	19056
81920	19760	17744
83968	16224	14640
86016	20624	19088
88064	21200	19424
90112	33744	31392
92160	12592	11504
94208	12208	11152
96256	14816	13376
98304	11808	10656
100352	12816	11616
102400	14320	12880
104448	13424	11840
106496	12560	11360
108544	11232	10176
110592	9264	8384
112640	10480	9408
114688	8576	7712
116736	10944	10320
118784	7648	6960
120832	8224	7296
122880	6928	6288
124928	7984	7168
126976	8592	7696
129024	8448	7888
131072	18256	16832
135168	22016	20416
139264	15248	13696
143360	11216	10176
147456	9232	8512
151552	9696	8768
155648	9392	8144
159744	9840	8704
163840	15264	13968
167936	21408	19904
172032	11264	10048
176128	11680	10496
180224	11872	10672
184320	8688	7632
188416	8816	7728
192512	6448	5584
196608	11168	10240
200704	9840	8880
204800	7600	6976
208896	6976	6064
212992	7824	7120
217088	9008	8080
221184	7840	6832
225280	6720	5648
229376	7056	6144
233472	5712	4912
237568	7072	6384
241664	10432	9568
245760	9808	8720
249856	6480	5760
253952	5344	4736
258048	5136	4720
262144	9680	8512
270336	10464	9184
278528	11072	9536
286720	7664	6592
294912	10016	8880
303104	9968	8976
311296	9248	8464
319488	6656	6032
327680	6816	5984
335872	6656	5920
344064	7760	6848
352256	6384	5536
360448	7680	6848
368640	5744	5328
376832	5888	5184
385024	4208	3728
393216	6192	5680
401408	3744	3328
409600	3888	3488
417792	5648	5024
425984	5712	4944
434176	5280	4720
442368	3776	3200
450560	2768	2448
458752	4336	4032
466944	4432	4016
475136	3728	3376
483328	2864	2576
491520	3520	3040
499712	4288	3968
507904	4224	3936
516096	3104	2608
524288	6304	5312
540672	5536	4688
557056	5440	4784
573440	6320	5680
589824	4720	4048
606208	6160	5616
622592	3776	3232
638976	4032	3424
655360	3472	3184
671744	3840	3456
688128	2768	2480
704512	3824	3440
720896	3056	2656
737280	2880	2512
753664	4256	3728
770048	3376	2976
786432	2912	2560
802816	3264	2944
819200	3280	2928
835584	3344	2912
851968	3552	3072
868352	2688	2144
884736	3456	3008
901120	1536	1200
917504	3056	2608
933888	3088	2544
950272	1840	1552
966656	4256	3920
983040	1664	1408
999424	1696	1552
1015808	1856	1536
1032192	2576	2256
1048576	4432	3984
1081344	2960	2624
1114112	5216	4496
1146880	5024	4352
1179648	4848	3232
1212416	3488	3088
1245184	4800	3824
1277952	4160	3536
1310720	3712	3152
1343488	5392	4048
1376256	4272	3280
1409024	3200	2752
1441792	3472	3120
1474560	2336	1872
1507328	3408	2688
1540096	3264	2864
1572864	3936	3440
1605632	5360	4576
1638400	4528	4128
1671168	2704	2288
1703936	3184	2768
1736704	2144	1584
1769472	2032	1520
1802240	2992	2496
1835008	2624	2320
1867776	2656	2064
1900544	2448	2064
1933312	3248	2880
1966080	2448	2112
1998848	2752	2496
2031616	2352	2032
2064384	2528	2224
2097152	3168	2736
2162688	3408	3040
2228224	3712	3376
2293760	5248	4880
2359296	3264	2880
2424832	2048	1696
2490368	2128	1920
2555904	1808	1536
2621440	2416	2176
2686976	1648	1488
2752512	1648	1472
2818048	1952	1744
2883584	2656	2400
2949120	2176	1936
3014656	1616	1488
3080192	1936	1840
3145728	1680	1632
3211264	1200	960
3276800	1808	1568
3342336	1664	1440
3407872	2624	2384
3473408	1424	1248
3538944	1568	1312
3604480	1168	1040
3670016	1216	1120
3735552	1632	1520
3801088	1168	1040
3866624	1488	1456
3932160	384	336
3997696	640	512
4063232	1072	976
4128768	1136	976
4194304	1408	1200
4325376	1232	1040
4456448	608	496
4587520	1264	1168
4718592	720	512
4849664	688	496
4980736	1248	1120
5111808	992	928
5242880	864	832
5373952	560	512
5505024	960	928
5636096	976	880
5767168	704	640
5898240	1136	992
6029312	1008	912
6160384	352	240
6291456	1184	1072
6422528	736	688
6553600	480	368
6684672	1392	1216
6815744	800	736
6946816	880	832
7077888	352	304
7208960	848	800
7340032	544	480
7471104	528	480
7602176	784	656
7733248	1424	1296
7864320	1040	896
7995392	704	688
8126464	768	672
8257536	1616	1200
8388608	1728	1536
8650752	2192	1984
8912896	1440	1184
9175040	1472	1360
9437184	3200	2944
9699328	2160	1920
9961472	4160	3792
10223616	3504	3120
10485760	2816	2656
10747904	2784	2496
11010048	3664	3440
11272192	5664	4800
11534336	9056	8480
11796480	2960	2736
12058624	3296	3072
12320768	4368	3984
12582912	4032	3664
12845056	8304	7936
13107200	6192	5472
13369344	7056	6576
13631488	4112	3712
13893632	5488	5136
14155776	6480	6192
14417920	11888	11200
14680064	7936	7296
14942208	17504	15648
15204352	15952	15088
15466496	31648	30672
15728640	19472	18896
15990784	19920	18992
16252928	44224	42560
16515072	23600	22560
16777216	82848	79776
17301504	78320	75776
17825792	23536	22640
18350080	42576	41216
18874368	49648	48048
19398656	16576	15664
19922944	26976	26288
20447232	22000	21152
20971520	5824	5328
21495808	7872	7552
22020096	6064	5760
22544384	8784	8512
23068672	26992	26192
23592960	13568	13136
24117248	8240	7808
24641536	848	704
25165824	13696	13504
25690112	3264	3200
26214400	80	48
26738688	2352	2272
27262976	144	128
27787264	512	480
28311552	720	608
28835840	464	448
29360128	448	432
29884416	128	112
30408704	224	224
30932992	384	368
31457280	96	96
31981568	544	384
32505856	496	400
33030144	1008	800
33554432	496	336
34603008	720	448
35651584	1584	1488
36700160	3760	3408
37748736	3120	2752
38797312	2448	2224
39845888	5600	4688
40894464	6112	5168
41943040	4880	4448
42991616	18560	17568
44040192	10512	9472
45088768	31200	29648
46137344	58944	57232
47185920	2256	2160
48234496	2960	2832
49283072	1344	1312
50331648	2704	2592
51380224	2128	2032
52428800	3536	3328
53477376	3152	2848
54525952	2784	2656
55574528	3056	2976
56623104	3328	3264
57671680	1712	1536
58720256	4016	3456
59768832	2784	2480
60817408	3168	2640
61865984	2608	2528
62914560	2624	2416
63963136	26128	25376
65011712	25920	24560
66060288	1712	1536
67108864	4224	4000
69206016	4448	4144
71303168	5632	5568
73400320	7440	6080
75497472	8288	7744
77594624	32000	30416
79691776	18112	17808
81788928	160	80
83886080	16	16
85983232	48	32
88080384	96	48
90177536	960	912
92274688	2528	2304
94371840	368	256
96468992	1664	1264
98566144	16	0
100663296	80	0
102760448	1040	976
104857600	32	32
106954752	112	64
109051904	416	320
111149056	1248	1008
113246208	64	0
115343360	128	112
117440512	0	0
119537664	16	16
121634816	0	0
123731968	16	16
125829120	32	32
127926272	64	64
130023424	48	32
132120576	0	0
134217728	16	0
138412032	80	16
142606336	4240	3840
146800640	272	112
150994944	208	112
155189248	1808	1680
159383552	336	80
163577856	144	32
167772160	48	0
171966464	32	0
176160768	48	32
180355072	0	0
184549376	16	16
188743680	48	32
192937984	0	0
197132288	16	16
201326592	0	0
205520896	48	16
209715200	0	0
213909504	0	0
218103808	32	16
222298112	112	112
226492416	0	0
230686720	0	0
234881024	64	48
239075328	32	32
243269632	16	16
247463936	240	240
251658240	16	0
255852544	16	16
260046848	0	0
264241152	16	0
268435456	80	80
276824064	16	16
285212672	0	0
293601280	0	0
301989888	16	16
310378496	0	0
318767104	0	0
327155712	96	32
335544320	0	0
343932928	0	0
352321536	0	0
360710144	0	0
369098752	0	0
377487360	32	16
385875968	0	0
394264576	0	0
402653184	16	16
411041792	0	0
419430400	0	0
427819008	0	0
436207616	0	0
444596224	0	0
452984832	0	0
461373440	0	0
469762048	0	0
478150656	0	0
486539264	0	0
494927872	0	0
503316480	0	0
511705088	0	0
520093696	0	0
528482304	0	0
536870912	0	0
553648128	0	0
570425344	0	0
587202560	0	0
603979776	0	0
620756992	0	0
637534208	0	0
654311424	0	0
671088640	0	0
687865856	0	0
704643072	0	0
721420288	0	0
738197504	0	0
754974720	0	0
771751936	0	0
788529152	0	0
805306368	0	0
822083584	0	0
838860800	0	0
855638016	0	0
872415232	0	0
889192448	0	0
905969664	0	0
922746880	0	0
939524096	0	0
956301312	0	0
973078528	0	0
989855744	0	0
1006632960	0	0
1023410176	0	0
1040187392	0	0
1056964608	0	0
1073741824	0	0
1107296256	0	0
1140850688	0	0
1174405120	0	0
1207959552	0	0
1241513984	0	0
1275068416	0	0
1308622848	0	0
1342177280	0	0
1375731712	0	0
1409286144	0	0
1442840576	0	0
1476395008	0	0
1509949440	0	0
1543503872	0	0
1577058304	0	0
1610612736	0	0
1644167168	0	0
1677721600	0	0
1711276032	0	0
1744830464	0	0
1778384896	0	0
1811939328	0	0
1845493760	0	0
1879048192	0	0
1912602624	0	0
1946157056	0	0
1979711488	0	0
2013265920	0	0
2046820352	0	0
2080374784	0	0
2113929216	0	0
2147483648	0	0
2214592512	0	0
2281701376	0	0
2348810240	0	0
2415919104	0	0
2483027968	0	0
2550136832	0	0
2617245696	0	0
2684354560	0	0
2751463424	0	0
2818572288	0	0
2885681152	0	0
2952790016	0	0
3019898880	0	0
3087007744	0	0
3154116608	0	0
3221225472	0	0
3288334336	0	0
3355443200	0	0
3422552064	0	0
3489660928	0	0
3556769792	0	0
3623878656	0	0
3690987520	0	0
3758096384	0	0
3825205248	0	0
3892314112	0	0
3959422976	0	0
4026531840	0	0
4093640704	0	0
4160749568	0	0
4227858432	0	0
~~~~~~~~~~Reuse Distance Profiler output end~~~~~~~~~~

Sampler size:6848

DRAM Statistics
 CHANNEL 0
 RQ ROW_BUFFER_HIT:     148658  ROW_BUFFER_MISS:     721851
 DBUS AVG_CONGESTED_CYCLE:    3.81105
 WQ ROW_BUFFER_HIT:      61247  ROW_BUFFER_MISS:      51245  FULL:          0


CPU 0 Branch Prediction Accuracy: 93.8745% MPKI: 12.6821 Average ROB Occupancy at Mispredict: 41.0508
Branch type MPKI
BRANCH_DIRECT_JUMP: 0.000793333
BRANCH_INDIRECT: 0.369914
BRANCH_CONDITIONAL: 11.8252
BRANCH_DIRECT_CALL: 0.00117267
BRANCH_INDIRECT_CALL: 0.478497
BRANCH_RETURN: 0.00652267

