
*** ChampSim Multicore Out-of-Order Simulator ***

Warmup Instructions: 50000000
Simulation Instructions: 1500000000
Number of CPUs: 1
Off-chip DRAM Size: 4 GiB Channels: 1 Width: 64-bit Data Rate: 3200 MT/s

VirtualMemory physical capacity: 8588881920 num_ppages: 2096895
VirtualMemory page size: 4096 log2_page_size: 12

CPU 0 runs /s/traces/champsim_traces/401.bzip2-38B.champsimtrace.xz
CPU 0 Bimodal branch predictor
Basic BTB sets: 1024 ways: 8 indirect buffer size: 4096 RAS size: 64
Initializing LRU.
Initializing LRU.
Initializing LRU.
Initializing LRU.
Initializing rdLRU.
Initializing LRU.
Heartbeat CPU 0 instructions: 2000002 cycles: 500236 heartbeat IPC: 3.99812 cumulative IPC: 3.99812 (Simulation time: 0 hr 0 min 55 sec) 
Heartbeat CPU 0 instructions: 4000002 cycles: 1000236 heartbeat IPC: 4 cumulative IPC: 3.99906 (Simulation time: 0 hr 1 min 48 sec) 
Heartbeat CPU 0 instructions: 6000002 cycles: 1500236 heartbeat IPC: 4 cumulative IPC: 3.99937 (Simulation time: 0 hr 2 min 42 sec) 
Heartbeat CPU 0 instructions: 8000002 cycles: 2000236 heartbeat IPC: 4 cumulative IPC: 3.99953 (Simulation time: 0 hr 3 min 36 sec) 
Heartbeat CPU 0 instructions: 10000002 cycles: 2500236 heartbeat IPC: 4 cumulative IPC: 3.99962 (Simulation time: 0 hr 4 min 32 sec) 
Heartbeat CPU 0 instructions: 12000001 cycles: 3001561 heartbeat IPC: 3.98943 cumulative IPC: 3.99792 (Simulation time: 0 hr 5 min 30 sec) 
Heartbeat CPU 0 instructions: 14000003 cycles: 3503296 heartbeat IPC: 3.98617 cumulative IPC: 3.99624 (Simulation time: 0 hr 6 min 25 sec) 
Heartbeat CPU 0 instructions: 16000002 cycles: 4057039 heartbeat IPC: 3.61178 cumulative IPC: 3.94376 (Simulation time: 0 hr 7 min 34 sec) 
Heartbeat CPU 0 instructions: 18000003 cycles: 4763993 heartbeat IPC: 2.82904 cumulative IPC: 3.77834 (Simulation time: 0 hr 9 min 20 sec) 
Heartbeat CPU 0 instructions: 20000002 cycles: 5459152 heartbeat IPC: 2.87704 cumulative IPC: 3.66357 (Simulation time: 0 hr 11 min 4 sec) 
Heartbeat CPU 0 instructions: 22000002 cycles: 6117919 heartbeat IPC: 3.03597 cumulative IPC: 3.59599 (Simulation time: 0 hr 12 min 38 sec) 
Heartbeat CPU 0 instructions: 24000000 cycles: 6821559 heartbeat IPC: 2.84236 cumulative IPC: 3.51826 (Simulation time: 0 hr 14 min 24 sec) 
Heartbeat CPU 0 instructions: 26000003 cycles: 7472353 heartbeat IPC: 3.07317 cumulative IPC: 3.47949 (Simulation time: 0 hr 15 min 56 sec) 
Heartbeat CPU 0 instructions: 28000002 cycles: 8178369 heartbeat IPC: 2.8328 cumulative IPC: 3.42367 (Simulation time: 0 hr 17 min 39 sec) 
Heartbeat CPU 0 instructions: 30000000 cycles: 8875684 heartbeat IPC: 2.86814 cumulative IPC: 3.38002 (Simulation time: 0 hr 19 min 22 sec) 
Heartbeat CPU 0 instructions: 32000004 cycles: 9533121 heartbeat IPC: 3.04212 cumulative IPC: 3.35672 (Simulation time: 0 hr 20 min 54 sec) 
Heartbeat CPU 0 instructions: 34000003 cycles: 10237859 heartbeat IPC: 2.83793 cumulative IPC: 3.32101 (Simulation time: 0 hr 22 min 42 sec) 
Heartbeat CPU 0 instructions: 36000000 cycles: 10897765 heartbeat IPC: 3.03073 cumulative IPC: 3.30343 (Simulation time: 0 hr 24 min 18 sec) 
Heartbeat CPU 0 instructions: 38000001 cycles: 11402989 heartbeat IPC: 3.95864 cumulative IPC: 3.33246 (Simulation time: 0 hr 24 min 59 sec) 
Heartbeat CPU 0 instructions: 40000003 cycles: 11909048 heartbeat IPC: 3.95211 cumulative IPC: 3.35879 (Simulation time: 0 hr 25 min 42 sec) 
Heartbeat CPU 0 instructions: 42000000 cycles: 12421794 heartbeat IPC: 3.90056 cumulative IPC: 3.38115 (Simulation time: 0 hr 26 min 22 sec) 
Heartbeat CPU 0 instructions: 44000001 cycles: 13005292 heartbeat IPC: 3.42761 cumulative IPC: 3.38324 (Simulation time: 0 hr 27 min 33 sec) 
Heartbeat CPU 0 instructions: 46000000 cycles: 13598870 heartbeat IPC: 3.3694 cumulative IPC: 3.38263 (Simulation time: 0 hr 28 min 54 sec) 
Heartbeat CPU 0 instructions: 48000003 cycles: 14103339 heartbeat IPC: 3.96457 cumulative IPC: 3.40345 (Simulation time: 0 hr 29 min 54 sec) 
Heartbeat CPU 0 instructions: 50000003 cycles: 14608633 heartbeat IPC: 3.95809 cumulative IPC: 3.42263 (Simulation time: 0 hr 30 min 58 sec) 

Warmup complete CPU 0 instructions: 50000003 cycles: 14608633 (Simulation time: 0 hr 30 min 58 sec) 

Heartbeat CPU 0 instructions: 52000003 cycles: 16003275 heartbeat IPC: 1.43406 cumulative IPC: 1.43406 (Simulation time: 0 hr 32 min 23 sec) 

Region of Interest Statistics
cpu0_DTLB TOTAL     ACCESS:     403102  HIT:     403080  MISS:         22
cpu0_DTLB LOAD      ACCESS:     248367  HIT:     248356  MISS:         11
cpu0_DTLB RFO       ACCESS:     154735  HIT:     154724  MISS:         11
cpu0_DTLB PREFETCH  ACCESS:          0  HIT:          0  MISS:          0
cpu0_DTLB WRITEBACK ACCESS:          0  HIT:          0  MISS:          0
cpu0_ITLB TOTAL     ACCESS:      91609  HIT:      91609  MISS:          0
cpu0_ITLB LOAD      ACCESS:      91609  HIT:      91609  MISS:          0
cpu0_ITLB RFO       ACCESS:          0  HIT:          0  MISS:          0
cpu0_ITLB PREFETCH  ACCESS:          0  HIT:          0  MISS:          0
cpu0_ITLB WRITEBACK ACCESS:          0  HIT:          0  MISS:          0
cpu0_L1I TOTAL     ACCESS:      32851  HIT:      32851  MISS:          0
cpu0_L1I LOAD      ACCESS:      32851  HIT:      32851  MISS:          0
cpu0_L1I RFO       ACCESS:          0  HIT:          0  MISS:          0
cpu0_L1I PREFETCH  ACCESS:          0  HIT:          0  MISS:          0
cpu0_L1I WRITEBACK ACCESS:          0  HIT:          0  MISS:          0
cpu0_STLB TOTAL     ACCESS:         22  HIT:         11  MISS:         11
cpu0_STLB LOAD      ACCESS:         11  HIT:          0  MISS:         11
cpu0_STLB RFO       ACCESS:         11  HIT:         11  MISS:          0
cpu0_STLB PREFETCH  ACCESS:          0  HIT:          0  MISS:          0
cpu0_STLB WRITEBACK ACCESS:          0  HIT:          0  MISS:          0
cpu0_L1D TOTAL     ACCESS:     687692  HIT:     686316  MISS:       1376
cpu0_L1D LOAD      ACCESS:     318355  HIT:     317652  MISS:        703
cpu0_L1D RFO       ACCESS:     369326  HIT:     368653  MISS:        673
cpu0_L1D PREFETCH  ACCESS:          0  HIT:          0  MISS:          0
cpu0_L1D WRITEBACK ACCESS:          0  HIT:          0  MISS:          0
cpu0_L2C TOTAL     ACCESS:       2027  HIT:        651  MISS:       1376
cpu0_L2C LOAD      ACCESS:        703  HIT:          0  MISS:        703
cpu0_L2C RFO       ACCESS:        673  HIT:          0  MISS:        673
cpu0_L2C PREFETCH  ACCESS:          0  HIT:          0  MISS:          0
cpu0_L2C WRITEBACK ACCESS:        651  HIT:        651  MISS:          0
LLC TOTAL     ACCESS:       2017  HIT:       1314  MISS:        703
LLC LOAD      ACCESS:        703  HIT:          0  MISS:        703
LLC RFO       ACCESS:        673  HIT:        673  MISS:          0
LLC PREFETCH  ACCESS:          0  HIT:          0  MISS:          0
LLC WRITEBACK ACCESS:        641  HIT:        641  MISS:          0
Heartbeat CPU 0 instructions: 54000000 cycles: 17375723 heartbeat IPC: 1.45725 cumulative IPC: 1.44556 (Simulation time: 0 hr 33 min 53 sec) 

Region of Interest Statistics
cpu0_DTLB TOTAL     ACCESS:     803587  HIT:     803541  MISS:         46
cpu0_DTLB LOAD      ACCESS:     492557  HIT:     492533  MISS:         24
cpu0_DTLB RFO       ACCESS:     311030  HIT:     311008  MISS:         22
cpu0_DTLB PREFETCH  ACCESS:          0  HIT:          0  MISS:          0
cpu0_DTLB WRITEBACK ACCESS:          0  HIT:          0  MISS:          0
cpu0_ITLB TOTAL     ACCESS:     181057  HIT:     181057  MISS:          0
cpu0_ITLB LOAD      ACCESS:     181057  HIT:     181057  MISS:          0
cpu0_ITLB RFO       ACCESS:          0  HIT:          0  MISS:          0
cpu0_ITLB PREFETCH  ACCESS:          0  HIT:          0  MISS:          0
cpu0_ITLB WRITEBACK ACCESS:          0  HIT:          0  MISS:          0
cpu0_L1I TOTAL     ACCESS:      61313  HIT:      61313  MISS:          0
cpu0_L1I LOAD      ACCESS:      61313  HIT:      61313  MISS:          0
cpu0_L1I RFO       ACCESS:          0  HIT:          0  MISS:          0
cpu0_L1I PREFETCH  ACCESS:          0  HIT:          0  MISS:          0
cpu0_L1I WRITEBACK ACCESS:          0  HIT:          0  MISS:          0
cpu0_STLB TOTAL     ACCESS:         46  HIT:         22  MISS:         24
cpu0_STLB LOAD      ACCESS:         24  HIT:          0  MISS:         24
cpu0_STLB RFO       ACCESS:         22  HIT:         22  MISS:          0
cpu0_STLB PREFETCH  ACCESS:          0  HIT:          0  MISS:          0
cpu0_STLB WRITEBACK ACCESS:          0  HIT:          0  MISS:          0
cpu0_L1D TOTAL     ACCESS:    1378486  HIT:    1375630  MISS:       2856
cpu0_L1D LOAD      ACCESS:     634556  HIT:     633072  MISS:       1484
cpu0_L1D RFO       ACCESS:     743906  HIT:     742534  MISS:       1372
cpu0_L1D PREFETCH  ACCESS:          0  HIT:          0  MISS:          0
cpu0_L1D WRITEBACK ACCESS:          0  HIT:          0  MISS:          0
cpu0_L2C TOTAL     ACCESS:       4218  HIT:       1364  MISS:       2854
cpu0_L2C LOAD      ACCESS:       1484  HIT:          0  MISS:       1484
cpu0_L2C RFO       ACCESS:       1372  HIT:          2  MISS:       1370
cpu0_L2C PREFETCH  ACCESS:          0  HIT:          0  MISS:          0
cpu0_L2C WRITEBACK ACCESS:       1362  HIT:       1362  MISS:          0
LLC TOTAL     ACCESS:       4179  HIT:       2695  MISS:       1484
LLC LOAD      ACCESS:       1484  HIT:          0  MISS:       1484
LLC RFO       ACCESS:       1370  HIT:       1370  MISS:          0
LLC PREFETCH  ACCESS:          0  HIT:          0  MISS:          0
LLC WRITEBACK ACCESS:       1325  HIT:       1325  MISS:          0
Heartbeat CPU 0 instructions: 56000003 cycles: 18687533 heartbeat IPC: 1.52461 cumulative IPC: 1.47098 (Simulation time: 0 hr 35 min 23 sec) 

Region of Interest Statistics
cpu0_DTLB TOTAL     ACCESS:    1197345  HIT:    1197278  MISS:         67
cpu0_DTLB LOAD      ACCESS:     733187  HIT:     733152  MISS:         35
cpu0_DTLB RFO       ACCESS:     464158  HIT:     464126  MISS:         32
cpu0_DTLB PREFETCH  ACCESS:          0  HIT:          0  MISS:          0
cpu0_DTLB WRITEBACK ACCESS:          0  HIT:          0  MISS:          0
cpu0_ITLB TOTAL     ACCESS:     257858  HIT:     257858  MISS:          0
cpu0_ITLB LOAD      ACCESS:     257858  HIT:     257858  MISS:          0
cpu0_ITLB RFO       ACCESS:          0  HIT:          0  MISS:          0
cpu0_ITLB PREFETCH  ACCESS:          0  HIT:          0  MISS:          0
cpu0_ITLB WRITEBACK ACCESS:          0  HIT:          0  MISS:          0
cpu0_L1I TOTAL     ACCESS:      85680  HIT:      85680  MISS:          0
cpu0_L1I LOAD      ACCESS:      85680  HIT:      85680  MISS:          0
cpu0_L1I RFO       ACCESS:          0  HIT:          0  MISS:          0
cpu0_L1I PREFETCH  ACCESS:          0  HIT:          0  MISS:          0
cpu0_L1I WRITEBACK ACCESS:          0  HIT:          0  MISS:          0
cpu0_STLB TOTAL     ACCESS:         67  HIT:         32  MISS:         35
cpu0_STLB LOAD      ACCESS:         35  HIT:          0  MISS:         35
cpu0_STLB RFO       ACCESS:         32  HIT:         32  MISS:          0
cpu0_STLB PREFETCH  ACCESS:          0  HIT:          0  MISS:          0
cpu0_STLB WRITEBACK ACCESS:          0  HIT:          0  MISS:          0
cpu0_L1D TOTAL     ACCESS:    2061083  HIT:    2056858  MISS:       4225
cpu0_L1D LOAD      ACCESS:     946663  HIT:     944476  MISS:       2187
cpu0_L1D RFO       ACCESS:    1114385  HIT:    1112347  MISS:       2038
cpu0_L1D PREFETCH  ACCESS:          0  HIT:          0  MISS:          0
cpu0_L1D WRITEBACK ACCESS:          0  HIT:          0  MISS:          0
cpu0_L2C TOTAL     ACCESS:       6237  HIT:       2014  MISS:       4223
cpu0_L2C LOAD      ACCESS:       2187  HIT:          0  MISS:       2187
cpu0_L2C RFO       ACCESS:       2038  HIT:          2  MISS:       2036
cpu0_L2C PREFETCH  ACCESS:          0  HIT:          0  MISS:          0
cpu0_L2C WRITEBACK ACCESS:       2012  HIT:       2012  MISS:          0
LLC TOTAL     ACCESS:       6363  HIT:       4176  MISS:       2187
LLC LOAD      ACCESS:       2187  HIT:          0  MISS:       2187
LLC RFO       ACCESS:       2036  HIT:       2036  MISS:          0
LLC PREFETCH  ACCESS:          0  HIT:          0  MISS:          0
LLC WRITEBACK ACCESS:       2140  HIT:       2140  MISS:          0
Heartbeat CPU 0 instructions: 58000000 cycles: 20057632 heartbeat IPC: 1.45975 cumulative IPC: 1.46816 (Simulation time: 0 hr 36 min 50 sec) 

Region of Interest Statistics
cpu0_DTLB TOTAL     ACCESS:    1599446  HIT:    1599357  MISS:         89
cpu0_DTLB LOAD      ACCESS:     981517  HIT:     981470  MISS:         47
cpu0_DTLB RFO       ACCESS:     617929  HIT:     617887  MISS:         42
cpu0_DTLB PREFETCH  ACCESS:          0  HIT:          0  MISS:          0
cpu0_DTLB WRITEBACK ACCESS:          0  HIT:          0  MISS:          0
cpu0_ITLB TOTAL     ACCESS:     342604  HIT:     342604  MISS:          0
cpu0_ITLB LOAD      ACCESS:     342604  HIT:     342604  MISS:          0
cpu0_ITLB RFO       ACCESS:          0  HIT:          0  MISS:          0
cpu0_ITLB PREFETCH  ACCESS:          0  HIT:          0  MISS:          0
cpu0_ITLB WRITEBACK ACCESS:          0  HIT:          0  MISS:          0
cpu0_L1I TOTAL     ACCESS:     114156  HIT:     114156  MISS:          0
cpu0_L1I LOAD      ACCESS:     114156  HIT:     114156  MISS:          0
cpu0_L1I RFO       ACCESS:          0  HIT:          0  MISS:          0
cpu0_L1I PREFETCH  ACCESS:          0  HIT:          0  MISS:          0
cpu0_L1I WRITEBACK ACCESS:          0  HIT:          0  MISS:          0
cpu0_STLB TOTAL     ACCESS:         89  HIT:         42  MISS:         47
cpu0_STLB LOAD      ACCESS:         47  HIT:          0  MISS:         47
cpu0_STLB RFO       ACCESS:         42  HIT:         42  MISS:          0
cpu0_STLB PREFETCH  ACCESS:          0  HIT:          0  MISS:          0
cpu0_STLB WRITEBACK ACCESS:          0  HIT:          0  MISS:          0
cpu0_L1D TOTAL     ACCESS:    2739070  HIT:    2733428  MISS:       5642
cpu0_L1D LOAD      ACCESS:    1260605  HIT:    1257637  MISS:       2968
cpu0_L1D RFO       ACCESS:    1478418  HIT:    1475744  MISS:       2674
cpu0_L1D PREFETCH  ACCESS:          0  HIT:          0  MISS:          0
cpu0_L1D WRITEBACK ACCESS:          0  HIT:          0  MISS:          0
cpu0_L2C TOTAL     ACCESS:       8316  HIT:       2677  MISS:       5639
cpu0_L2C LOAD      ACCESS:       2968  HIT:          0  MISS:       2968
cpu0_L2C RFO       ACCESS:       2674  HIT:          3  MISS:       2671
cpu0_L2C PREFETCH  ACCESS:          0  HIT:          0  MISS:          0
cpu0_L2C WRITEBACK ACCESS:       2674  HIT:       2674  MISS:          0
LLC TOTAL     ACCESS:       8475  HIT:       5507  MISS:       2968
LLC LOAD      ACCESS:       2968  HIT:          0  MISS:       2968
LLC RFO       ACCESS:       2671  HIT:       2671  MISS:          0
LLC PREFETCH  ACCESS:          0  HIT:          0  MISS:          0
LLC WRITEBACK ACCESS:       2836  HIT:       2836  MISS:          0
Heartbeat CPU 0 instructions: 60000000 cycles: 21350548 heartbeat IPC: 1.54689 cumulative IPC: 1.48326 (Simulation time: 0 hr 38 min 20 sec) 

Region of Interest Statistics
cpu0_DTLB TOTAL     ACCESS:    1997265  HIT:    1997153  MISS:        112
cpu0_DTLB LOAD      ACCESS:    1232566  HIT:    1232505  MISS:         61
cpu0_DTLB RFO       ACCESS:     764699  HIT:     764648  MISS:         51
cpu0_DTLB PREFETCH  ACCESS:          0  HIT:          0  MISS:          0
cpu0_DTLB WRITEBACK ACCESS:          0  HIT:          0  MISS:          0
cpu0_ITLB TOTAL     ACCESS:     409387  HIT:     409387  MISS:          0
cpu0_ITLB LOAD      ACCESS:     409387  HIT:     409387  MISS:          0
cpu0_ITLB RFO       ACCESS:          0  HIT:          0  MISS:          0
cpu0_ITLB PREFETCH  ACCESS:          0  HIT:          0  MISS:          0
cpu0_ITLB WRITEBACK ACCESS:          0  HIT:          0  MISS:          0
cpu0_L1I TOTAL     ACCESS:     135566  HIT:     135566  MISS:          0
cpu0_L1I LOAD      ACCESS:     135566  HIT:     135566  MISS:          0
cpu0_L1I RFO       ACCESS:          0  HIT:          0  MISS:          0
cpu0_L1I PREFETCH  ACCESS:          0  HIT:          0  MISS:          0
cpu0_L1I WRITEBACK ACCESS:          0  HIT:          0  MISS:          0
cpu0_STLB TOTAL     ACCESS:        112  HIT:         53  MISS:         59
cpu0_STLB LOAD      ACCESS:         61  HIT:          2  MISS:         59
cpu0_STLB RFO       ACCESS:         51  HIT:         51  MISS:          0
cpu0_STLB PREFETCH  ACCESS:          0  HIT:          0  MISS:          0
cpu0_STLB WRITEBACK ACCESS:          0  HIT:          0  MISS:          0
cpu0_L1D TOTAL     ACCESS:    3390498  HIT:    3383569  MISS:       6929
cpu0_L1D LOAD      ACCESS:    1566956  HIT:    1563206  MISS:       3750
cpu0_L1D RFO       ACCESS:    1823483  HIT:    1820304  MISS:       3179
cpu0_L1D PREFETCH  ACCESS:          0  HIT:          0  MISS:          0
cpu0_L1D WRITEBACK ACCESS:          0  HIT:          0  MISS:          0
cpu0_L2C TOTAL     ACCESS:      10137  HIT:       3211  MISS:       6926
cpu0_L2C LOAD      ACCESS:       3750  HIT:          0  MISS:       3750
cpu0_L2C RFO       ACCESS:       3179  HIT:          3  MISS:       3176
cpu0_L2C PREFETCH  ACCESS:          0  HIT:          0  MISS:          0
cpu0_L2C WRITEBACK ACCESS:       3208  HIT:       3208  MISS:          0
LLC TOTAL     ACCESS:      10553  HIT:       6803  MISS:       3750
LLC LOAD      ACCESS:       3750  HIT:          0  MISS:       3750
LLC RFO       ACCESS:       3176  HIT:       3176  MISS:          0
LLC PREFETCH  ACCESS:          0  HIT:          0  MISS:          0
LLC WRITEBACK ACCESS:       3627  HIT:       3627  MISS:          0
Heartbeat CPU 0 instructions: 62000000 cycles: 22671200 heartbeat IPC: 1.5144 cumulative IPC: 1.48836 (Simulation time: 0 hr 39 min 51 sec) 

Region of Interest Statistics
cpu0_DTLB TOTAL     ACCESS:    2395309  HIT:    2395177  MISS:        132
cpu0_DTLB LOAD      ACCESS:    1479902  HIT:    1479830  MISS:         72
cpu0_DTLB RFO       ACCESS:     915407  HIT:     915347  MISS:         60
cpu0_DTLB PREFETCH  ACCESS:          0  HIT:          0  MISS:          0
cpu0_DTLB WRITEBACK ACCESS:          0  HIT:          0  MISS:          0
cpu0_ITLB TOTAL     ACCESS:     491145  HIT:     491145  MISS:          0
cpu0_ITLB LOAD      ACCESS:     491145  HIT:     491145  MISS:          0
cpu0_ITLB RFO       ACCESS:          0  HIT:          0  MISS:          0
cpu0_ITLB PREFETCH  ACCESS:          0  HIT:          0  MISS:          0
cpu0_ITLB WRITEBACK ACCESS:          0  HIT:          0  MISS:          0
cpu0_L1I TOTAL     ACCESS:     160404  HIT:     160404  MISS:          0
cpu0_L1I LOAD      ACCESS:     160404  HIT:     160404  MISS:          0
cpu0_L1I RFO       ACCESS:          0  HIT:          0  MISS:          0
cpu0_L1I PREFETCH  ACCESS:          0  HIT:          0  MISS:          0
cpu0_L1I WRITEBACK ACCESS:          0  HIT:          0  MISS:          0
cpu0_STLB TOTAL     ACCESS:        132  HIT:         62  MISS:         70
cpu0_STLB LOAD      ACCESS:         72  HIT:          2  MISS:         70
cpu0_STLB RFO       ACCESS:         60  HIT:         60  MISS:          0
cpu0_STLB PREFETCH  ACCESS:          0  HIT:          0  MISS:          0
cpu0_STLB WRITEBACK ACCESS:          0  HIT:          0  MISS:          0
cpu0_L1D TOTAL     ACCESS:    4058781  HIT:    4050550  MISS:       8231
cpu0_L1D LOAD      ACCESS:    1876643  HIT:    1872190  MISS:       4453
cpu0_L1D RFO       ACCESS:    2182068  HIT:    2178290  MISS:       3778
cpu0_L1D PREFETCH  ACCESS:          0  HIT:          0  MISS:          0
cpu0_L1D WRITEBACK ACCESS:          0  HIT:          0  MISS:          0
cpu0_L2C TOTAL     ACCESS:      11990  HIT:       3762  MISS:       8228
cpu0_L2C LOAD      ACCESS:       4453  HIT:          0  MISS:       4453
cpu0_L2C RFO       ACCESS:       3778  HIT:          3  MISS:       3775
cpu0_L2C PREFETCH  ACCESS:          0  HIT:          0  MISS:          0
cpu0_L2C WRITEBACK ACCESS:       3759  HIT:       3759  MISS:          0
LLC TOTAL     ACCESS:      12846  HIT:       8393  MISS:       4453
LLC LOAD      ACCESS:       4453  HIT:          0  MISS:       4453
LLC RFO       ACCESS:       3775  HIT:       3775  MISS:          0
LLC PREFETCH  ACCESS:          0  HIT:          0  MISS:          0
LLC WRITEBACK ACCESS:       4618  HIT:       4618  MISS:          0
Heartbeat CPU 0 instructions: 64000001 cycles: 24019880 heartbeat IPC: 1.48293 cumulative IPC: 1.48758 (Simulation time: 0 hr 41 min 19 sec) 

Region of Interest Statistics
cpu0_DTLB TOTAL     ACCESS:    2798537  HIT:    2798384  MISS:        153
cpu0_DTLB LOAD      ACCESS:    1732274  HIT:    1732190  MISS:         84
cpu0_DTLB RFO       ACCESS:    1066263  HIT:    1066194  MISS:         69
cpu0_DTLB PREFETCH  ACCESS:          0  HIT:          0  MISS:          0
cpu0_DTLB WRITEBACK ACCESS:          0  HIT:          0  MISS:          0
cpu0_ITLB TOTAL     ACCESS:     576678  HIT:     576678  MISS:          0
cpu0_ITLB LOAD      ACCESS:     576678  HIT:     576678  MISS:          0
cpu0_ITLB RFO       ACCESS:          0  HIT:          0  MISS:          0
cpu0_ITLB PREFETCH  ACCESS:          0  HIT:          0  MISS:          0
cpu0_ITLB WRITEBACK ACCESS:          0  HIT:          0  MISS:          0
cpu0_L1I TOTAL     ACCESS:     186051  HIT:     186051  MISS:          0
cpu0_L1I LOAD      ACCESS:     186051  HIT:     186051  MISS:          0
cpu0_L1I RFO       ACCESS:          0  HIT:          0  MISS:          0
cpu0_L1I PREFETCH  ACCESS:          0  HIT:          0  MISS:          0
cpu0_L1I WRITEBACK ACCESS:          0  HIT:          0  MISS:          0
cpu0_STLB TOTAL     ACCESS:        153  HIT:         71  MISS:         82
cpu0_STLB LOAD      ACCESS:         84  HIT:          2  MISS:         82
cpu0_STLB RFO       ACCESS:         69  HIT:         69  MISS:          0
cpu0_STLB PREFETCH  ACCESS:          0  HIT:          0  MISS:          0
cpu0_STLB WRITEBACK ACCESS:          0  HIT:          0  MISS:          0
cpu0_L1D TOTAL     ACCESS:    4723726  HIT:    4714140  MISS:       9586
cpu0_L1D LOAD      ACCESS:    2187226  HIT:    2181992  MISS:       5234
cpu0_L1D RFO       ACCESS:    2536418  HIT:    2532066  MISS:       4352
cpu0_L1D PREFETCH  ACCESS:          0  HIT:          0  MISS:          0
cpu0_L1D WRITEBACK ACCESS:          0  HIT:          0  MISS:          0
cpu0_L2C TOTAL     ACCESS:      13927  HIT:       4344  MISS:       9583
cpu0_L2C LOAD      ACCESS:       5234  HIT:          0  MISS:       5234
cpu0_L2C RFO       ACCESS:       4352  HIT:          3  MISS:       4349
cpu0_L2C PREFETCH  ACCESS:          0  HIT:          0  MISS:          0
cpu0_L2C WRITEBACK ACCESS:       4341  HIT:       4341  MISS:          0
LLC TOTAL     ACCESS:      14656  HIT:       9422  MISS:       5234
LLC LOAD      ACCESS:       5234  HIT:          0  MISS:       5234
LLC RFO       ACCESS:       4349  HIT:       4349  MISS:          0
LLC PREFETCH  ACCESS:          0  HIT:          0  MISS:          0
LLC WRITEBACK ACCESS:       5073  HIT:       5073  MISS:          0
Heartbeat CPU 0 instructions: 66000004 cycles: 25335154 heartbeat IPC: 1.5206 cumulative IPC: 1.49163 (Simulation time: 0 hr 42 min 47 sec) 

Region of Interest Statistics
cpu0_DTLB TOTAL     ACCESS:    3198588  HIT:    3198415  MISS:        173
cpu0_DTLB LOAD      ACCESS:    1982209  HIT:    1982114  MISS:         95
cpu0_DTLB RFO       ACCESS:    1216379  HIT:    1216301  MISS:         78
cpu0_DTLB PREFETCH  ACCESS:          0  HIT:          0  MISS:          0
cpu0_DTLB WRITEBACK ACCESS:          0  HIT:          0  MISS:          0
cpu0_ITLB TOTAL     ACCESS:     656251  HIT:     656251  MISS:          0
cpu0_ITLB LOAD      ACCESS:     656251  HIT:     656251  MISS:          0
cpu0_ITLB RFO       ACCESS:          0  HIT:          0  MISS:          0
cpu0_ITLB PREFETCH  ACCESS:          0  HIT:          0  MISS:          0
cpu0_ITLB WRITEBACK ACCESS:          0  HIT:          0  MISS:          0
cpu0_L1I TOTAL     ACCESS:     210107  HIT:     210107  MISS:          0
cpu0_L1I LOAD      ACCESS:     210107  HIT:     210107  MISS:          0
cpu0_L1I RFO       ACCESS:          0  HIT:          0  MISS:          0
cpu0_L1I PREFETCH  ACCESS:          0  HIT:          0  MISS:          0
cpu0_L1I WRITEBACK ACCESS:          0  HIT:          0  MISS:          0
cpu0_STLB TOTAL     ACCESS:        173  HIT:         80  MISS:         93
cpu0_STLB LOAD      ACCESS:         95  HIT:          2  MISS:         93
cpu0_STLB RFO       ACCESS:         78  HIT:         78  MISS:          0
cpu0_STLB PREFETCH  ACCESS:          0  HIT:          0  MISS:          0
cpu0_STLB WRITEBACK ACCESS:          0  HIT:          0  MISS:          0
cpu0_L1D TOTAL     ACCESS:    5388432  HIT:    5377565  MISS:      10867
cpu0_L1D LOAD      ACCESS:    2496887  HIT:    2490950  MISS:       5937
cpu0_L1D RFO       ACCESS:    2891452  HIT:    2886522  MISS:       4930
cpu0_L1D PREFETCH  ACCESS:          0  HIT:          0  MISS:          0
cpu0_L1D WRITEBACK ACCESS:          0  HIT:          0  MISS:          0
cpu0_L2C TOTAL     ACCESS:      15812  HIT:       4948  MISS:      10864
cpu0_L2C LOAD      ACCESS:       5937  HIT:          0  MISS:       5937
cpu0_L2C RFO       ACCESS:       4930  HIT:          3  MISS:       4927
cpu0_L2C PREFETCH  ACCESS:          0  HIT:          0  MISS:          0
cpu0_L2C WRITEBACK ACCESS:       4945  HIT:       4945  MISS:          0
LLC TOTAL     ACCESS:      16577  HIT:      10640  MISS:       5937
LLC LOAD      ACCESS:       5937  HIT:          0  MISS:       5937
LLC RFO       ACCESS:       4927  HIT:       4927  MISS:          0
LLC PREFETCH  ACCESS:          0  HIT:          0  MISS:          0
LLC WRITEBACK ACCESS:       5713  HIT:       5713  MISS:          0
Heartbeat CPU 0 instructions: 68000000 cycles: 26654668 heartbeat IPC: 1.51571 cumulative IPC: 1.49427 (Simulation time: 0 hr 44 min 15 sec) 

Region of Interest Statistics
cpu0_DTLB TOTAL     ACCESS:    3593309  HIT:    3593113  MISS:        196
cpu0_DTLB LOAD      ACCESS:    2223557  HIT:    2223450  MISS:        107
cpu0_DTLB RFO       ACCESS:    1369752  HIT:    1369663  MISS:         89
cpu0_DTLB PREFETCH  ACCESS:          0  HIT:          0  MISS:          0
cpu0_DTLB WRITEBACK ACCESS:          0  HIT:          0  MISS:          0
cpu0_ITLB TOTAL     ACCESS:     728340  HIT:     728340  MISS:          0
cpu0_ITLB LOAD      ACCESS:     728340  HIT:     728340  MISS:          0
cpu0_ITLB RFO       ACCESS:          0  HIT:          0  MISS:          0
cpu0_ITLB PREFETCH  ACCESS:          0  HIT:          0  MISS:          0
cpu0_ITLB WRITEBACK ACCESS:          0  HIT:          0  MISS:          0
cpu0_L1I TOTAL     ACCESS:     234193  HIT:     234193  MISS:          0
cpu0_L1I LOAD      ACCESS:     234193  HIT:     234193  MISS:          0
cpu0_L1I RFO       ACCESS:          0  HIT:          0  MISS:          0
cpu0_L1I PREFETCH  ACCESS:          0  HIT:          0  MISS:          0
cpu0_L1I WRITEBACK ACCESS:          0  HIT:          0  MISS:          0
cpu0_STLB TOTAL     ACCESS:        196  HIT:         91  MISS:        105
cpu0_STLB LOAD      ACCESS:        107  HIT:          2  MISS:        105
cpu0_STLB RFO       ACCESS:         89  HIT:         89  MISS:          0
cpu0_STLB PREFETCH  ACCESS:          0  HIT:          0  MISS:          0
cpu0_STLB WRITEBACK ACCESS:          0  HIT:          0  MISS:          0
cpu0_L1D TOTAL     ACCESS:    6073166  HIT:    6060855  MISS:      12311
cpu0_L1D LOAD      ACCESS:    2810185  HIT:    2803467  MISS:       6718
cpu0_L1D RFO       ACCESS:    3262876  HIT:    3257283  MISS:       5593
cpu0_L1D PREFETCH  ACCESS:          0  HIT:          0  MISS:          0
cpu0_L1D WRITEBACK ACCESS:          0  HIT:          0  MISS:          0
cpu0_L2C TOTAL     ACCESS:      17899  HIT:       5591  MISS:      12308
cpu0_L2C LOAD      ACCESS:       6718  HIT:          0  MISS:       6718
cpu0_L2C RFO       ACCESS:       5593  HIT:          3  MISS:       5590
cpu0_L2C PREFETCH  ACCESS:          0  HIT:          0  MISS:          0
cpu0_L2C WRITEBACK ACCESS:       5588  HIT:       5588  MISS:          0
LLC TOTAL     ACCESS:      18778  HIT:      12060  MISS:       6718
LLC LOAD      ACCESS:       6718  HIT:          0  MISS:       6718
LLC RFO       ACCESS:       5590  HIT:       5590  MISS:          0
LLC PREFETCH  ACCESS:          0  HIT:          0  MISS:          0
LLC WRITEBACK ACCESS:       6470  HIT:       6470  MISS:          0
Heartbeat CPU 0 instructions: 70000000 cycles: 28094150 heartbeat IPC: 1.38939 cumulative IPC: 1.48307 (Simulation time: 0 hr 45 min 41 sec) 

Region of Interest Statistics
cpu0_DTLB TOTAL     ACCESS:    3998476  HIT:    3998258  MISS:        218
cpu0_DTLB LOAD      ACCESS:    2470240  HIT:    2470122  MISS:        118
cpu0_DTLB RFO       ACCESS:    1528236  HIT:    1528136  MISS:        100
cpu0_DTLB PREFETCH  ACCESS:          0  HIT:          0  MISS:          0
cpu0_DTLB WRITEBACK ACCESS:          0  HIT:          0  MISS:          0
cpu0_ITLB TOTAL     ACCESS:     827047  HIT:     827047  MISS:          0
cpu0_ITLB LOAD      ACCESS:     827047  HIT:     827047  MISS:          0
cpu0_ITLB RFO       ACCESS:          0  HIT:          0  MISS:          0
cpu0_ITLB PREFETCH  ACCESS:          0  HIT:          0  MISS:          0
cpu0_ITLB WRITEBACK ACCESS:          0  HIT:          0  MISS:          0
cpu0_L1I TOTAL     ACCESS:     271556  HIT:     271556  MISS:          0
cpu0_L1I LOAD      ACCESS:     271556  HIT:     271556  MISS:          0
cpu0_L1I RFO       ACCESS:          0  HIT:          0  MISS:          0
cpu0_L1I PREFETCH  ACCESS:          0  HIT:          0  MISS:          0
cpu0_L1I WRITEBACK ACCESS:          0  HIT:          0  MISS:          0
cpu0_STLB TOTAL     ACCESS:        218  HIT:        102  MISS:        116
cpu0_STLB LOAD      ACCESS:        118  HIT:          2  MISS:        116
cpu0_STLB RFO       ACCESS:        100  HIT:        100  MISS:          0
cpu0_STLB PREFETCH  ACCESS:          0  HIT:          0  MISS:          0
cpu0_STLB WRITEBACK ACCESS:          0  HIT:          0  MISS:          0
cpu0_L1D TOTAL     ACCESS:    6770139  HIT:    6756390  MISS:      13749
cpu0_L1D LOAD      ACCESS:    3130700  HIT:    3123278  MISS:       7422
cpu0_L1D RFO       ACCESS:    3639323  HIT:    3632996  MISS:       6327
cpu0_L1D PREFETCH  ACCESS:          0  HIT:          0  MISS:          0
cpu0_L1D WRITEBACK ACCESS:          0  HIT:          0  MISS:          0
cpu0_L2C TOTAL     ACCESS:      20027  HIT:       6280  MISS:      13747
cpu0_L2C LOAD      ACCESS:       7422  HIT:          0  MISS:       7422
cpu0_L2C RFO       ACCESS:       6327  HIT:          3  MISS:       6324
cpu0_L2C PREFETCH  ACCESS:          0  HIT:          0  MISS:          0
cpu0_L2C WRITEBACK ACCESS:       6278  HIT:       6277  MISS:          1
LLC TOTAL     ACCESS:      20796  HIT:      13374  MISS:       7422
LLC LOAD      ACCESS:       7422  HIT:          0  MISS:       7422
LLC RFO       ACCESS:       6324  HIT:       6324  MISS:          0
LLC PREFETCH  ACCESS:          0  HIT:          0  MISS:          0
LLC WRITEBACK ACCESS:       7050  HIT:       7050  MISS:          0
Heartbeat CPU 0 instructions: 72000004 cycles: 28695874 heartbeat IPC: 3.32379 cumulative IPC: 1.5617 (Simulation time: 0 hr 46 min 45 sec) 

Region of Interest Statistics
cpu0_DTLB TOTAL     ACCESS:    4517429  HIT:    4516973  MISS:        456
cpu0_DTLB LOAD      ACCESS:    2606584  HIT:    2606419  MISS:        165
cpu0_DTLB RFO       ACCESS:    1910845  HIT:    1910554  MISS:        291
cpu0_DTLB PREFETCH  ACCESS:          0  HIT:          0  MISS:          0
cpu0_DTLB WRITEBACK ACCESS:          0  HIT:          0  MISS:          0
cpu0_ITLB TOTAL     ACCESS:     830437  HIT:     830435  MISS:          2
cpu0_ITLB LOAD      ACCESS:     830437  HIT:     830435  MISS:          2
cpu0_ITLB RFO       ACCESS:          0  HIT:          0  MISS:          0
cpu0_ITLB PREFETCH  ACCESS:          0  HIT:          0  MISS:          0
cpu0_ITLB WRITEBACK ACCESS:          0  HIT:          0  MISS:          0
cpu0_L1I TOTAL     ACCESS:     272739  HIT:     272726  MISS:         13
cpu0_L1I LOAD      ACCESS:     272739  HIT:     272726  MISS:         13
cpu0_L1I RFO       ACCESS:          0  HIT:          0  MISS:          0
cpu0_L1I PREFETCH  ACCESS:          0  HIT:          0  MISS:          0
cpu0_L1I WRITEBACK ACCESS:          0  HIT:          0  MISS:          0
cpu0_STLB TOTAL     ACCESS:        458  HIT:        187  MISS:        271
cpu0_STLB LOAD      ACCESS:        167  HIT:         47  MISS:        120
cpu0_STLB RFO       ACCESS:        291  HIT:        140  MISS:        151
cpu0_STLB PREFETCH  ACCESS:          0  HIT:          0  MISS:          0
cpu0_STLB WRITEBACK ACCESS:          0  HIT:          0  MISS:          0
cpu0_L1D TOTAL     ACCESS:    7228590  HIT:    7195143  MISS:      33447
cpu0_L1D LOAD      ACCESS:    3395337  HIT:    3377747  MISS:      17590
cpu0_L1D RFO       ACCESS:    3832982  HIT:    3817131  MISS:      15851
cpu0_L1D PREFETCH  ACCESS:          0  HIT:          0  MISS:          0
cpu0_L1D WRITEBACK ACCESS:          0  HIT:          0  MISS:          0
cpu0_L2C TOTAL     ACCESS:      56445  HIT:      31057  MISS:      25388
cpu0_L2C LOAD      ACCESS:      17577  HIT:       8141  MISS:       9436
cpu0_L2C RFO       ACCESS:      15851  HIT:          3  MISS:      15848
cpu0_L2C PREFETCH  ACCESS:          0  HIT:          0  MISS:          0
cpu0_L2C WRITEBACK ACCESS:      23011  HIT:      22909  MISS:        102
LLC TOTAL     ACCESS:      39299  HIT:      22293  MISS:      17006
LLC LOAD      ACCESS:       9436  HIT:       1923  MISS:       7513
LLC RFO       ACCESS:      15848  HIT:       6355  MISS:       9493
LLC PREFETCH  ACCESS:          0  HIT:          0  MISS:          0
LLC WRITEBACK ACCESS:      14013  HIT:      14013  MISS:          0
Heartbeat CPU 0 instructions: 74000001 cycles: 29272452 heartbeat IPC: 3.46874 cumulative IPC: 1.63668 (Simulation time: 0 hr 47 min 50 sec) 

Region of Interest Statistics
cpu0_DTLB TOTAL     ACCESS:    5060189  HIT:    5059531  MISS:        658
cpu0_DTLB LOAD      ACCESS:    2720686  HIT:    2720469  MISS:        217
cpu0_DTLB RFO       ACCESS:    2339503  HIT:    2339062  MISS:        441
cpu0_DTLB PREFETCH  ACCESS:          0  HIT:          0  MISS:          0
cpu0_DTLB WRITEBACK ACCESS:          0  HIT:          0  MISS:          0
cpu0_ITLB TOTAL     ACCESS:     830437  HIT:     830435  MISS:          2
cpu0_ITLB LOAD      ACCESS:     830437  HIT:     830435  MISS:          2
cpu0_ITLB RFO       ACCESS:          0  HIT:          0  MISS:          0
cpu0_ITLB PREFETCH  ACCESS:          0  HIT:          0  MISS:          0
cpu0_ITLB WRITEBACK ACCESS:          0  HIT:          0  MISS:          0
cpu0_L1I TOTAL     ACCESS:     272739  HIT:     272726  MISS:         13
cpu0_L1I LOAD      ACCESS:     272739  HIT:     272726  MISS:         13
cpu0_L1I RFO       ACCESS:          0  HIT:          0  MISS:          0
cpu0_L1I PREFETCH  ACCESS:          0  HIT:          0  MISS:          0
cpu0_L1I WRITEBACK ACCESS:          0  HIT:          0  MISS:          0
cpu0_STLB TOTAL     ACCESS:        660  HIT:        284  MISS:        376
cpu0_STLB LOAD      ACCESS:        219  HIT:         99  MISS:        120
cpu0_STLB RFO       ACCESS:        441  HIT:        185  MISS:        256
cpu0_STLB PREFETCH  ACCESS:          0  HIT:          0  MISS:          0
cpu0_STLB WRITEBACK ACCESS:          0  HIT:          0  MISS:          0
cpu0_L1D TOTAL     ACCESS:    7744010  HIT:    7692158  MISS:      51852
cpu0_L1D LOAD      ACCESS:    3688865  HIT:    3659630  MISS:      29235
cpu0_L1D RFO       ACCESS:    4054769  HIT:    4032160  MISS:      22609
cpu0_L1D PREFETCH  ACCESS:          0  HIT:          0  MISS:          0
cpu0_L1D WRITEBACK ACCESS:          0  HIT:          0  MISS:          0
cpu0_L2C TOTAL     ACCESS:      89876  HIT:      54082  MISS:      35794
cpu0_L2C LOAD      ACCESS:      29194  HIT:      16142  MISS:      13052
cpu0_L2C RFO       ACCESS:      22609  HIT:          3  MISS:      22606
cpu0_L2C PREFETCH  ACCESS:          0  HIT:          0  MISS:          0
cpu0_L2C WRITEBACK ACCESS:      38065  HIT:      37931  MISS:        134
LLC TOTAL     ACCESS:      57419  HIT:      33655  MISS:      23764
LLC LOAD      ACCESS:      13052  HIT:       5539  MISS:       7513
LLC RFO       ACCESS:      22606  HIT:       6355  MISS:      16251
LLC PREFETCH  ACCESS:          0  HIT:          0  MISS:          0
LLC WRITEBACK ACCESS:      21759  HIT:      21759  MISS:          0
Heartbeat CPU 0 instructions: 76000003 cycles: 29972120 heartbeat IPC: 2.8585 cumulative IPC: 1.69232 (Simulation time: 0 hr 49 min 9 sec) 

Region of Interest Statistics
cpu0_DTLB TOTAL     ACCESS:    5598430  HIT:    5568198  MISS:      30232
cpu0_DTLB LOAD      ACCESS:    2893632  HIT:    2889642  MISS:       3990
cpu0_DTLB RFO       ACCESS:    2704798  HIT:    2678556  MISS:      26242
cpu0_DTLB PREFETCH  ACCESS:          0  HIT:          0  MISS:          0
cpu0_DTLB WRITEBACK ACCESS:          0  HIT:          0  MISS:          0
cpu0_ITLB TOTAL     ACCESS:     830574  HIT:     830572  MISS:          2
cpu0_ITLB LOAD      ACCESS:     830574  HIT:     830572  MISS:          2
cpu0_ITLB RFO       ACCESS:          0  HIT:          0  MISS:          0
cpu0_ITLB PREFETCH  ACCESS:          0  HIT:          0  MISS:          0
cpu0_ITLB WRITEBACK ACCESS:          0  HIT:          0  MISS:          0
cpu0_L1I TOTAL     ACCESS:     272754  HIT:     272735  MISS:         19
cpu0_L1I LOAD      ACCESS:     272754  HIT:     272735  MISS:         19
cpu0_L1I RFO       ACCESS:          0  HIT:          0  MISS:          0
cpu0_L1I PREFETCH  ACCESS:          0  HIT:          0  MISS:          0
cpu0_L1I WRITEBACK ACCESS:          0  HIT:          0  MISS:          0
cpu0_STLB TOTAL     ACCESS:      30234  HIT:      29836  MISS:        398
cpu0_STLB LOAD      ACCESS:       3992  HIT:       3872  MISS:        120
cpu0_STLB RFO       ACCESS:      26242  HIT:      25964  MISS:        278
cpu0_STLB PREFETCH  ACCESS:          0  HIT:          0  MISS:          0
cpu0_STLB WRITEBACK ACCESS:          0  HIT:          0  MISS:          0
cpu0_L1D TOTAL     ACCESS:    8315605  HIT:    8238763  MISS:      76842
cpu0_L1D LOAD      ACCESS:    3965176  HIT:    3922084  MISS:      43092
cpu0_L1D RFO       ACCESS:    4350031  HIT:    4316289  MISS:      33742
cpu0_L1D PREFETCH  ACCESS:          0  HIT:          0  MISS:          0
cpu0_L1D WRITEBACK ACCESS:          0  HIT:          0  MISS:          0
cpu0_L2C TOTAL     ACCESS:     137277  HIT:      88080  MISS:      49197
cpu0_L2C LOAD      ACCESS:      43031  HIT:      24068  MISS:      18963
cpu0_L2C RFO       ACCESS:      33729  HIT:       3662  MISS:      30067
cpu0_L2C PREFETCH  ACCESS:          0  HIT:          0  MISS:          0
cpu0_L2C WRITEBACK ACCESS:      60509  HIT:      60344  MISS:        165
LLC TOTAL     ACCESS:      80309  HIT:      55052  MISS:      25257
LLC LOAD      ACCESS:      18962  HIT:      11443  MISS:       7519
LLC RFO       ACCESS:      30067  HIT:      12329  MISS:      17738
LLC PREFETCH  ACCESS:          0  HIT:          0  MISS:          0
LLC WRITEBACK ACCESS:      31278  HIT:      31278  MISS:          0
Heartbeat CPU 0 instructions: 78000004 cycles: 30473410 heartbeat IPC: 3.98971 cumulative IPC: 1.76492 (Simulation time: 0 hr 50 min 20 sec) 

Region of Interest Statistics
cpu0_DTLB TOTAL     ACCESS:    6131498  HIT:    6002017  MISS:     129481
cpu0_DTLB LOAD      ACCESS:    3153093  HIT:    3136666  MISS:      16427
cpu0_DTLB RFO       ACCESS:    2978405  HIT:    2865351  MISS:     113054
cpu0_DTLB PREFETCH  ACCESS:          0  HIT:          0  MISS:          0
cpu0_DTLB WRITEBACK ACCESS:          0  HIT:          0  MISS:          0
cpu0_ITLB TOTAL     ACCESS:     830574  HIT:     830572  MISS:          2
cpu0_ITLB LOAD      ACCESS:     830574  HIT:     830572  MISS:          2
cpu0_ITLB RFO       ACCESS:          0  HIT:          0  MISS:          0
cpu0_ITLB PREFETCH  ACCESS:          0  HIT:          0  MISS:          0
cpu0_ITLB WRITEBACK ACCESS:          0  HIT:          0  MISS:          0
cpu0_L1I TOTAL     ACCESS:     272754  HIT:     272735  MISS:         19
cpu0_L1I LOAD      ACCESS:     272754  HIT:     272735  MISS:         19
cpu0_L1I RFO       ACCESS:          0  HIT:          0  MISS:          0
cpu0_L1I PREFETCH  ACCESS:          0  HIT:          0  MISS:          0
cpu0_L1I WRITEBACK ACCESS:          0  HIT:          0  MISS:          0
cpu0_STLB TOTAL     ACCESS:     129483  HIT:     129085  MISS:        398
cpu0_STLB LOAD      ACCESS:      16429  HIT:      16309  MISS:        120
cpu0_STLB RFO       ACCESS:     113054  HIT:     112776  MISS:        278
cpu0_STLB PREFETCH  ACCESS:          0  HIT:          0  MISS:          0
cpu0_STLB WRITEBACK ACCESS:          0  HIT:          0  MISS:          0
cpu0_L1D TOTAL     ACCESS:    8856940  HIT:    8731551  MISS:     125389
cpu0_L1D LOAD      ACCESS:    4219427  HIT:    4160119  MISS:      59308
cpu0_L1D RFO       ACCESS:    4637115  HIT:    4571042  MISS:      66073
cpu0_L1D PREFETCH  ACCESS:          0  HIT:          0  MISS:          0
cpu0_L1D WRITEBACK ACCESS:          0  HIT:          0  MISS:          0
cpu0_L2C TOTAL     ACCESS:     231969  HIT:     168485  MISS:      63484
cpu0_L2C LOAD      ACCESS:      59169  HIT:      37335  MISS:      21834
cpu0_L2C RFO       ACCESS:      66017  HIT:      24552  MISS:      41465
cpu0_L2C PREFETCH  ACCESS:          0  HIT:          0  MISS:          0
cpu0_L2C WRITEBACK ACCESS:     106775  HIT:     106592  MISS:        183
LLC TOTAL     ACCESS:     106702  HIT:      81375  MISS:      25327
LLC LOAD      ACCESS:      21833  HIT:      14314  MISS:       7519
LLC RFO       ACCESS:      41465  HIT:      23657  MISS:      17808
LLC PREFETCH  ACCESS:          0  HIT:          0  MISS:          0
LLC WRITEBACK ACCESS:      43402  HIT:      43402  MISS:          0
Heartbeat CPU 0 instructions: 80000003 cycles: 30974577 heartbeat IPC: 3.99068 cumulative IPC: 1.83307 (Simulation time: 0 hr 51 min 26 sec) 

Region of Interest Statistics
cpu0_DTLB TOTAL     ACCESS:    6662919  HIT:    6436694  MISS:     226225
cpu0_DTLB LOAD      ACCESS:    3411117  HIT:    3382409  MISS:      28708
cpu0_DTLB RFO       ACCESS:    3251802  HIT:    3054285  MISS:     197517
cpu0_DTLB PREFETCH  ACCESS:          0  HIT:          0  MISS:          0
cpu0_DTLB WRITEBACK ACCESS:          0  HIT:          0  MISS:          0
cpu0_ITLB TOTAL     ACCESS:     830574  HIT:     830572  MISS:          2
cpu0_ITLB LOAD      ACCESS:     830574  HIT:     830572  MISS:          2
cpu0_ITLB RFO       ACCESS:          0  HIT:          0  MISS:          0
cpu0_ITLB PREFETCH  ACCESS:          0  HIT:          0  MISS:          0
cpu0_ITLB WRITEBACK ACCESS:          0  HIT:          0  MISS:          0
cpu0_L1I TOTAL     ACCESS:     272754  HIT:     272735  MISS:         19
cpu0_L1I LOAD      ACCESS:     272754  HIT:     272735  MISS:         19
cpu0_L1I RFO       ACCESS:          0  HIT:          0  MISS:          0
cpu0_L1I PREFETCH  ACCESS:          0  HIT:          0  MISS:          0
cpu0_L1I WRITEBACK ACCESS:          0  HIT:          0  MISS:          0
cpu0_STLB TOTAL     ACCESS:     226227  HIT:     225829  MISS:        398
cpu0_STLB LOAD      ACCESS:      28710  HIT:      28590  MISS:        120
cpu0_STLB RFO       ACCESS:     197517  HIT:     197239  MISS:        278
cpu0_STLB PREFETCH  ACCESS:          0  HIT:          0  MISS:          0
cpu0_STLB WRITEBACK ACCESS:          0  HIT:          0  MISS:          0
cpu0_L1D TOTAL     ACCESS:    9396280  HIT:    9226812  MISS:     169468
cpu0_L1D LOAD      ACCESS:    4472084  HIT:    4398445  MISS:      73639
cpu0_L1D RFO       ACCESS:    4923798  HIT:    4827977  MISS:      95821
cpu0_L1D PREFETCH  ACCESS:          0  HIT:          0  MISS:          0
cpu0_L1D WRITEBACK ACCESS:          0  HIT:          0  MISS:          0
cpu0_L2C TOTAL     ACCESS:     317758  HIT:     240818  MISS:      76940
cpu0_L2C LOAD      ACCESS:      73436  HIT:      48870  MISS:      24566
cpu0_L2C RFO       ACCESS:      95719  HIT:      43551  MISS:      52168
cpu0_L2C PREFETCH  ACCESS:          0  HIT:          0  MISS:          0
cpu0_L2C WRITEBACK ACCESS:     148595  HIT:     148391  MISS:        204
LLC TOTAL     ACCESS:     131433  HIT:     106025  MISS:      25408
LLC LOAD      ACCESS:      24565  HIT:      17046  MISS:       7519
LLC RFO       ACCESS:      52168  HIT:      34279  MISS:      17889
LLC PREFETCH  ACCESS:          0  HIT:          0  MISS:          0
LLC WRITEBACK ACCESS:      54698  HIT:      54698  MISS:          0
Heartbeat CPU 0 instructions: 82000004 cycles: 31475856 heartbeat IPC: 3.9898 cumulative IPC: 1.89717 (Simulation time: 0 hr 52 min 29 sec) 

Region of Interest Statistics
cpu0_DTLB TOTAL     ACCESS:    7196346  HIT:    6879629  MISS:     316717
cpu0_DTLB LOAD      ACCESS:    3671546  HIT:    3630159  MISS:      41387
cpu0_DTLB RFO       ACCESS:    3524800  HIT:    3249470  MISS:     275330
cpu0_DTLB PREFETCH  ACCESS:          0  HIT:          0  MISS:          0
cpu0_DTLB WRITEBACK ACCESS:          0  HIT:          0  MISS:          0
cpu0_ITLB TOTAL     ACCESS:     830574  HIT:     830572  MISS:          2
cpu0_ITLB LOAD      ACCESS:     830574  HIT:     830572  MISS:          2
cpu0_ITLB RFO       ACCESS:          0  HIT:          0  MISS:          0
cpu0_ITLB PREFETCH  ACCESS:          0  HIT:          0  MISS:          0
cpu0_ITLB WRITEBACK ACCESS:          0  HIT:          0  MISS:          0
cpu0_L1I TOTAL     ACCESS:     272754  HIT:     272735  MISS:         19
cpu0_L1I LOAD      ACCESS:     272754  HIT:     272735  MISS:         19
cpu0_L1I RFO       ACCESS:          0  HIT:          0  MISS:          0
cpu0_L1I PREFETCH  ACCESS:          0  HIT:          0  MISS:          0
cpu0_L1I WRITEBACK ACCESS:          0  HIT:          0  MISS:          0
cpu0_STLB TOTAL     ACCESS:     316720  HIT:     316322  MISS:        398
cpu0_STLB LOAD      ACCESS:      41389  HIT:      41269  MISS:        120
cpu0_STLB RFO       ACCESS:     275331  HIT:     275053  MISS:        278
cpu0_STLB PREFETCH  ACCESS:          0  HIT:          0  MISS:          0
cpu0_STLB WRITEBACK ACCESS:          0  HIT:          0  MISS:          0
cpu0_L1D TOTAL     ACCESS:    9938520  HIT:    9729840  MISS:     208680
cpu0_L1D LOAD      ACCESS:    4727268  HIT:    4641148  MISS:      86120
cpu0_L1D RFO       ACCESS:    5210854  HIT:    5088302  MISS:     122552
cpu0_L1D PREFETCH  ACCESS:          0  HIT:          0  MISS:          0
cpu0_L1D WRITEBACK ACCESS:          0  HIT:          0  MISS:          0
cpu0_L2C TOTAL     ACCESS:     393838  HIT:     303251  MISS:      90587
cpu0_L2C LOAD      ACCESS:      85857  HIT:      58528  MISS:      27329
cpu0_L2C RFO       ACCESS:     122419  HIT:      59380  MISS:      63039
cpu0_L2C PREFETCH  ACCESS:          0  HIT:          0  MISS:          0
cpu0_L2C WRITEBACK ACCESS:     185554  HIT:     185337  MISS:        217
LLC TOTAL     ACCESS:     156439  HIT:     130892  MISS:      25547
LLC LOAD      ACCESS:      27328  HIT:      19809  MISS:       7519
LLC RFO       ACCESS:      63038  HIT:      45010  MISS:      18028
LLC PREFETCH  ACCESS:          0  HIT:          0  MISS:          0
LLC WRITEBACK ACCESS:      66071  HIT:      66071  MISS:          0
Heartbeat CPU 0 instructions: 84000002 cycles: 32625574 heartbeat IPC: 1.73956 cumulative IPC: 1.88711 (Simulation time: 0 hr 53 min 50 sec) 

Region of Interest Statistics
cpu0_DTLB TOTAL     ACCESS:    7615303  HIT:    7285402  MISS:     329901
cpu0_DTLB LOAD      ACCESS:    3899630  HIT:    3854214  MISS:      45416
cpu0_DTLB RFO       ACCESS:    3715673  HIT:    3431188  MISS:     284485
cpu0_DTLB PREFETCH  ACCESS:          0  HIT:          0  MISS:          0
cpu0_DTLB WRITEBACK ACCESS:          0  HIT:          0  MISS:          0
cpu0_ITLB TOTAL     ACCESS:     908950  HIT:     908948  MISS:          2
cpu0_ITLB LOAD      ACCESS:     908950  HIT:     908948  MISS:          2
cpu0_ITLB RFO       ACCESS:          0  HIT:          0  MISS:          0
cpu0_ITLB PREFETCH  ACCESS:          0  HIT:          0  MISS:          0
cpu0_ITLB WRITEBACK ACCESS:          0  HIT:          0  MISS:          0
cpu0_L1I TOTAL     ACCESS:     278595  HIT:     278523  MISS:         72
cpu0_L1I LOAD      ACCESS:     278595  HIT:     278523  MISS:         72
cpu0_L1I RFO       ACCESS:          0  HIT:          0  MISS:          0
cpu0_L1I PREFETCH  ACCESS:          0  HIT:          0  MISS:          0
cpu0_L1I WRITEBACK ACCESS:          0  HIT:          0  MISS:          0
cpu0_STLB TOTAL     ACCESS:     329903  HIT:     329504  MISS:        399
cpu0_STLB LOAD      ACCESS:      45418  HIT:      45297  MISS:        121
cpu0_STLB RFO       ACCESS:     284485  HIT:     284207  MISS:        278
cpu0_STLB PREFETCH  ACCESS:          0  HIT:          0  MISS:          0
cpu0_STLB WRITEBACK ACCESS:          0  HIT:          0  MISS:          0
cpu0_L1D TOTAL     ACCESS:   10535766  HIT:   10247490  MISS:     288276
cpu0_L1D LOAD      ACCESS:    4992438  HIT:    4831195  MISS:     161243
cpu0_L1D RFO       ACCESS:    5542929  HIT:    5415905  MISS:     127024
cpu0_L1D PREFETCH  ACCESS:          0  HIT:          0  MISS:          0
cpu0_L1D WRITEBACK ACCESS:          0  HIT:          0  MISS:          0
cpu0_L2C TOTAL     ACCESS:     514743  HIT:     410473  MISS:     104270
cpu0_L2C LOAD      ACCESS:     161024  HIT:     121723  MISS:      39301
cpu0_L2C RFO       ACCESS:     126884  HIT:      62135  MISS:      64749
cpu0_L2C PREFETCH  ACCESS:          0  HIT:          0  MISS:          0
cpu0_L2C WRITEBACK ACCESS:     226826  HIT:     226609  MISS:        217
LLC TOTAL     ACCESS:     178659  HIT:     153023  MISS:      25636
LLC LOAD      ACCESS:      38689  HIT:      31116  MISS:       7573
LLC RFO       ACCESS:      64748  HIT:      46685  MISS:      18063
LLC PREFETCH  ACCESS:          0  HIT:          0  MISS:          0
LLC WRITEBACK ACCESS:      75219  HIT:      75219  MISS:          0
Heartbeat CPU 0 instructions: 86000001 cycles: 33865841 heartbeat IPC: 1.61256 cumulative IPC: 1.86943 (Simulation time: 0 hr 55 min 28 sec) 

Region of Interest Statistics
cpu0_DTLB TOTAL     ACCESS:    8200956  HIT:    7863521  MISS:     337435
cpu0_DTLB LOAD      ACCESS:    4398835  HIT:    4348476  MISS:      50359
cpu0_DTLB RFO       ACCESS:    3802121  HIT:    3515045  MISS:     287076
cpu0_DTLB PREFETCH  ACCESS:          0  HIT:          0  MISS:          0
cpu0_DTLB WRITEBACK ACCESS:          0  HIT:          0  MISS:          0
cpu0_ITLB TOTAL     ACCESS:     983686  HIT:     983684  MISS:          2
cpu0_ITLB LOAD      ACCESS:     983686  HIT:     983684  MISS:          2
cpu0_ITLB RFO       ACCESS:          0  HIT:          0  MISS:          0
cpu0_ITLB PREFETCH  ACCESS:          0  HIT:          0  MISS:          0
cpu0_ITLB WRITEBACK ACCESS:          0  HIT:          0  MISS:          0
cpu0_L1I TOTAL     ACCESS:     351705  HIT:     351619  MISS:         86
cpu0_L1I LOAD      ACCESS:     351705  HIT:     351619  MISS:         86
cpu0_L1I RFO       ACCESS:          0  HIT:          0  MISS:          0
cpu0_L1I PREFETCH  ACCESS:          0  HIT:          0  MISS:          0
cpu0_L1I WRITEBACK ACCESS:          0  HIT:          0  MISS:          0
cpu0_STLB TOTAL     ACCESS:     337437  HIT:     337038  MISS:        399
cpu0_STLB LOAD      ACCESS:      50361  HIT:      50240  MISS:        121
cpu0_STLB RFO       ACCESS:     287076  HIT:     286798  MISS:        278
cpu0_STLB PREFETCH  ACCESS:          0  HIT:          0  MISS:          0
cpu0_STLB WRITEBACK ACCESS:          0  HIT:          0  MISS:          0
cpu0_L1D TOTAL     ACCESS:   11007284  HIT:   10693340  MISS:     313944
cpu0_L1D LOAD      ACCESS:    5309321  HIT:    5124950  MISS:     184371
cpu0_L1D RFO       ACCESS:    5697564  HIT:    5568000  MISS:     129564
cpu0_L1D PREFETCH  ACCESS:          0  HIT:          0  MISS:          0
cpu0_L1D WRITEBACK ACCESS:          0  HIT:          0  MISS:          0
cpu0_L2C TOTAL     ACCESS:     552599  HIT:     440343  MISS:     112256
cpu0_L2C LOAD      ACCESS:     184165  HIT:     138678  MISS:      45487
cpu0_L2C RFO       ACCESS:     129423  HIT:      62875  MISS:      66548
cpu0_L2C PREFETCH  ACCESS:          0  HIT:          0  MISS:          0
cpu0_L2C WRITEBACK ACCESS:     239002  HIT:     238784  MISS:        218
LLC TOTAL     ACCESS:     192638  HIT:     166988  MISS:      25650
LLC LOAD      ACCESS:      44782  HIT:      37195  MISS:       7587
LLC RFO       ACCESS:      66547  HIT:      48484  MISS:      18063
LLC PREFETCH  ACCESS:          0  HIT:          0  MISS:          0
LLC WRITEBACK ACCESS:      81306  HIT:      81306  MISS:          0
Heartbeat CPU 0 instructions: 88000000 cycles: 35273876 heartbeat IPC: 1.42042 cumulative IPC: 1.83884 (Simulation time: 0 hr 56 min 55 sec) 

Region of Interest Statistics
cpu0_DTLB TOTAL     ACCESS:    8769041  HIT:    8425386  MISS:     343655
cpu0_DTLB LOAD      ACCESS:    4879867  HIT:    4825576  MISS:      54291
cpu0_DTLB RFO       ACCESS:    3889174  HIT:    3599810  MISS:     289364
cpu0_DTLB PREFETCH  ACCESS:          0  HIT:          0  MISS:          0
cpu0_DTLB WRITEBACK ACCESS:          0  HIT:          0  MISS:          0
cpu0_ITLB TOTAL     ACCESS:    1080857  HIT:    1080855  MISS:          2
cpu0_ITLB LOAD      ACCESS:    1080857  HIT:    1080855  MISS:          2
cpu0_ITLB RFO       ACCESS:          0  HIT:          0  MISS:          0
cpu0_ITLB PREFETCH  ACCESS:          0  HIT:          0  MISS:          0
cpu0_ITLB WRITEBACK ACCESS:          0  HIT:          0  MISS:          0
cpu0_L1I TOTAL     ACCESS:     457200  HIT:     457114  MISS:         86
cpu0_L1I LOAD      ACCESS:     457200  HIT:     457114  MISS:         86
cpu0_L1I RFO       ACCESS:          0  HIT:          0  MISS:          0
cpu0_L1I PREFETCH  ACCESS:          0  HIT:          0  MISS:          0
cpu0_L1I WRITEBACK ACCESS:          0  HIT:          0  MISS:          0
cpu0_STLB TOTAL     ACCESS:     343657  HIT:     343258  MISS:        399
cpu0_STLB LOAD      ACCESS:      54293  HIT:      54172  MISS:        121
cpu0_STLB RFO       ACCESS:     289364  HIT:     289086  MISS:        278
cpu0_STLB PREFETCH  ACCESS:          0  HIT:          0  MISS:          0
cpu0_STLB WRITEBACK ACCESS:          0  HIT:          0  MISS:          0
cpu0_L1D TOTAL     ACCESS:   11499386  HIT:   11167576  MISS:     331810
cpu0_L1D LOAD      ACCESS:    5647111  HIT:    5449407  MISS:     197704
cpu0_L1D RFO       ACCESS:    5851876  HIT:    5717779  MISS:     134097
cpu0_L1D PREFETCH  ACCESS:          0  HIT:          0  MISS:          0
cpu0_L1D WRITEBACK ACCESS:          0  HIT:          0  MISS:          0
cpu0_L2C TOTAL     ACCESS:     577933  HIT:     456141  MISS:     121792
cpu0_L2C LOAD      ACCESS:     197496  HIT:     145426  MISS:      52070
cpu0_L2C RFO       ACCESS:     133956  HIT:      64460  MISS:      69496
cpu0_L2C PREFETCH  ACCESS:          0  HIT:          0  MISS:          0
cpu0_L2C WRITEBACK ACCESS:     246472  HIT:     246249  MISS:        223
LLC TOTAL     ACCESS:     208440  HIT:     182790  MISS:      25650
LLC LOAD      ACCESS:      51346  HIT:      43759  MISS:       7587
LLC RFO       ACCESS:      69495  HIT:      51432  MISS:      18063
LLC PREFETCH  ACCESS:          0  HIT:          0  MISS:          0
LLC WRITEBACK ACCESS:      87596  HIT:      87596  MISS:          0
Heartbeat CPU 0 instructions: 90000000 cycles: 36788326 heartbeat IPC: 1.32061 cumulative IPC: 1.80345 (Simulation time: 0 hr 58 min 16 sec) 

Region of Interest Statistics
cpu0_DTLB TOTAL     ACCESS:    9290298  HIT:    8941680  MISS:     348618
cpu0_DTLB LOAD      ACCESS:    5305265  HIT:    5248113  MISS:      57152
cpu0_DTLB RFO       ACCESS:    3985033  HIT:    3693567  MISS:     291466
cpu0_DTLB PREFETCH  ACCESS:          0  HIT:          0  MISS:          0
cpu0_DTLB WRITEBACK ACCESS:          0  HIT:          0  MISS:          0
cpu0_ITLB TOTAL     ACCESS:    1195091  HIT:    1195089  MISS:          2
cpu0_ITLB LOAD      ACCESS:    1195091  HIT:    1195089  MISS:          2
cpu0_ITLB RFO       ACCESS:          0  HIT:          0  MISS:          0
cpu0_ITLB PREFETCH  ACCESS:          0  HIT:          0  MISS:          0
cpu0_ITLB WRITEBACK ACCESS:          0  HIT:          0  MISS:          0
cpu0_L1I TOTAL     ACCESS:     577479  HIT:     577393  MISS:         86
cpu0_L1I LOAD      ACCESS:     577479  HIT:     577393  MISS:         86
cpu0_L1I RFO       ACCESS:          0  HIT:          0  MISS:          0
cpu0_L1I PREFETCH  ACCESS:          0  HIT:          0  MISS:          0
cpu0_L1I WRITEBACK ACCESS:          0  HIT:          0  MISS:          0
cpu0_STLB TOTAL     ACCESS:     348620  HIT:     348221  MISS:        399
cpu0_STLB LOAD      ACCESS:      57154  HIT:      57033  MISS:        121
cpu0_STLB RFO       ACCESS:     291466  HIT:     291188  MISS:        278
cpu0_STLB PREFETCH  ACCESS:          0  HIT:          0  MISS:          0
cpu0_STLB WRITEBACK ACCESS:          0  HIT:          0  MISS:          0
cpu0_L1D TOTAL     ACCESS:   12018598  HIT:   11668074  MISS:     350524
cpu0_L1D LOAD      ACCESS:    5995786  HIT:    5784796  MISS:     210990
cpu0_L1D RFO       ACCESS:    6022413  HIT:    5882888  MISS:     139525
cpu0_L1D PREFETCH  ACCESS:          0  HIT:          0  MISS:          0
cpu0_L1D WRITEBACK ACCESS:          0  HIT:          0  MISS:          0
cpu0_L2C TOTAL     ACCESS:     604079  HIT:     472993  MISS:     131086
cpu0_L2C LOAD      ACCESS:     210781  HIT:     152487  MISS:      58294
cpu0_L2C RFO       ACCESS:     139383  HIT:      66819  MISS:      72564
cpu0_L2C PREFETCH  ACCESS:          0  HIT:          0  MISS:          0
cpu0_L2C WRITEBACK ACCESS:     253906  HIT:     253681  MISS:        225
LLC TOTAL     ACCESS:     223181  HIT:     197531  MISS:      25650
LLC LOAD      ACCESS:      57566  HIT:      49979  MISS:       7587
LLC RFO       ACCESS:      72562  HIT:      54499  MISS:      18063
LLC PREFETCH  ACCESS:          0  HIT:          0  MISS:          0
LLC WRITEBACK ACCESS:      93050  HIT:      93050  MISS:          0
Heartbeat CPU 0 instructions: 92000003 cycles: 38265009 heartbeat IPC: 1.35439 cumulative IPC: 1.77542 (Simulation time: 0 hr 59 min 32 sec) 

Region of Interest Statistics
cpu0_DTLB TOTAL     ACCESS:    9813295  HIT:    9459322  MISS:     353973
cpu0_DTLB LOAD      ACCESS:    5738514  HIT:    5677970  MISS:      60544
cpu0_DTLB RFO       ACCESS:    4074781  HIT:    3781352  MISS:     293429
cpu0_DTLB PREFETCH  ACCESS:          0  HIT:          0  MISS:          0
cpu0_DTLB WRITEBACK ACCESS:          0  HIT:          0  MISS:          0
cpu0_ITLB TOTAL     ACCESS:    1308990  HIT:    1308988  MISS:          2
cpu0_ITLB LOAD      ACCESS:    1308990  HIT:    1308988  MISS:          2
cpu0_ITLB RFO       ACCESS:          0  HIT:          0  MISS:          0
cpu0_ITLB PREFETCH  ACCESS:          0  HIT:          0  MISS:          0
cpu0_ITLB WRITEBACK ACCESS:          0  HIT:          0  MISS:          0
cpu0_L1I TOTAL     ACCESS:     701835  HIT:     701749  MISS:         86
cpu0_L1I LOAD      ACCESS:     701835  HIT:     701749  MISS:         86
cpu0_L1I RFO       ACCESS:          0  HIT:          0  MISS:          0
cpu0_L1I PREFETCH  ACCESS:          0  HIT:          0  MISS:          0
cpu0_L1I WRITEBACK ACCESS:          0  HIT:          0  MISS:          0
cpu0_STLB TOTAL     ACCESS:     353975  HIT:     353576  MISS:        399
cpu0_STLB LOAD      ACCESS:      60546  HIT:      60425  MISS:        121
cpu0_STLB RFO       ACCESS:     293429  HIT:     293151  MISS:        278
cpu0_STLB PREFETCH  ACCESS:          0  HIT:          0  MISS:          0
cpu0_STLB WRITEBACK ACCESS:          0  HIT:          0  MISS:          0
cpu0_L1D TOTAL     ACCESS:   12521681  HIT:   12154168  MISS:     367513
cpu0_L1D LOAD      ACCESS:    6338715  HIT:    6115208  MISS:     223507
cpu0_L1D RFO       ACCESS:    6182567  HIT:    6038570  MISS:     143997
cpu0_L1D PREFETCH  ACCESS:          0  HIT:          0  MISS:          0
cpu0_L1D WRITEBACK ACCESS:          0  HIT:          0  MISS:          0
cpu0_L2C TOTAL     ACCESS:     627302  HIT:     488284  MISS:     139018
cpu0_L2C LOAD      ACCESS:     223298  HIT:     159503  MISS:      63795
cpu0_L2C RFO       ACCESS:     143855  HIT:      68861  MISS:      74994
cpu0_L2C PREFETCH  ACCESS:          0  HIT:          0  MISS:          0
cpu0_L2C WRITEBACK ACCESS:     260140  HIT:     259914  MISS:        226
LLC TOTAL     ACCESS:     235855  HIT:     210205  MISS:      25650
LLC LOAD      ACCESS:      63062  HIT:      55475  MISS:       7587
LLC RFO       ACCESS:      74992  HIT:      56929  MISS:      18063
LLC PREFETCH  ACCESS:          0  HIT:          0  MISS:          0
LLC WRITEBACK ACCESS:      97798  HIT:      97798  MISS:          0
Heartbeat CPU 0 instructions: 94000000 cycles: 39801833 heartbeat IPC: 1.30138 cumulative IPC: 1.7465 (Simulation time: 1 hr 0 min 43 sec) 

Region of Interest Statistics
cpu0_DTLB TOTAL     ACCESS:   10324651  HIT:    9965425  MISS:     359226
cpu0_DTLB LOAD      ACCESS:    6154712  HIT:    6090813  MISS:      63899
cpu0_DTLB RFO       ACCESS:    4169939  HIT:    3874612  MISS:     295327
cpu0_DTLB PREFETCH  ACCESS:          0  HIT:          0  MISS:          0
cpu0_DTLB WRITEBACK ACCESS:          0  HIT:          0  MISS:          0
cpu0_ITLB TOTAL     ACCESS:    1434790  HIT:    1434788  MISS:          2
cpu0_ITLB LOAD      ACCESS:    1434790  HIT:    1434788  MISS:          2
cpu0_ITLB RFO       ACCESS:          0  HIT:          0  MISS:          0
cpu0_ITLB PREFETCH  ACCESS:          0  HIT:          0  MISS:          0
cpu0_ITLB WRITEBACK ACCESS:          0  HIT:          0  MISS:          0
cpu0_L1I TOTAL     ACCESS:     823993  HIT:     823907  MISS:         86
cpu0_L1I LOAD      ACCESS:     823993  HIT:     823907  MISS:         86
cpu0_L1I RFO       ACCESS:          0  HIT:          0  MISS:          0
cpu0_L1I PREFETCH  ACCESS:          0  HIT:          0  MISS:          0
cpu0_L1I WRITEBACK ACCESS:          0  HIT:          0  MISS:          0
cpu0_STLB TOTAL     ACCESS:     359228  HIT:     358829  MISS:        399
cpu0_STLB LOAD      ACCESS:      63901  HIT:      63780  MISS:        121
cpu0_STLB RFO       ACCESS:     295327  HIT:     295049  MISS:        278
cpu0_STLB PREFETCH  ACCESS:          0  HIT:          0  MISS:          0
cpu0_STLB WRITEBACK ACCESS:          0  HIT:          0  MISS:          0
cpu0_L1D TOTAL     ACCESS:   13043769  HIT:   12658919  MISS:     384850
cpu0_L1D LOAD      ACCESS:    6688357  HIT:    6452384  MISS:     235973
cpu0_L1D RFO       ACCESS:    6355013  HIT:    6206145  MISS:     148868
cpu0_L1D PREFETCH  ACCESS:          0  HIT:          0  MISS:          0
cpu0_L1D WRITEBACK ACCESS:          0  HIT:          0  MISS:          0
cpu0_L2C TOTAL     ACCESS:     651014  HIT:     503561  MISS:     147453
cpu0_L2C LOAD      ACCESS:     235764  HIT:     166452  MISS:      69312
cpu0_L2C RFO       ACCESS:     148724  HIT:      70813  MISS:      77911
cpu0_L2C PREFETCH  ACCESS:          0  HIT:          0  MISS:          0
cpu0_L2C WRITEBACK ACCESS:     266517  HIT:     266290  MISS:        227
LLC TOTAL     ACCESS:     248882  HIT:     223232  MISS:      25650
LLC LOAD      ACCESS:      68578  HIT:      60991  MISS:       7587
LLC RFO       ACCESS:      77909  HIT:      59846  MISS:      18063
LLC PREFETCH  ACCESS:          0  HIT:          0  MISS:          0
LLC WRITEBACK ACCESS:     102392  HIT:     102392  MISS:          0
Heartbeat CPU 0 instructions: 96000001 cycles: 41415625 heartbeat IPC: 1.23932 cumulative IPC: 1.71597 (Simulation time: 1 hr 1 min 55 sec) 

Region of Interest Statistics
cpu0_DTLB TOTAL     ACCESS:   10823703  HIT:   10459169  MISS:     364534
cpu0_DTLB LOAD      ACCESS:    6553751  HIT:    6486590  MISS:      67161
cpu0_DTLB RFO       ACCESS:    4269952  HIT:    3972579  MISS:     297373
cpu0_DTLB PREFETCH  ACCESS:          0  HIT:          0  MISS:          0
cpu0_DTLB WRITEBACK ACCESS:          0  HIT:          0  MISS:          0
cpu0_ITLB TOTAL     ACCESS:    1567378  HIT:    1567376  MISS:          2
cpu0_ITLB LOAD      ACCESS:    1567378  HIT:    1567376  MISS:          2
cpu0_ITLB RFO       ACCESS:          0  HIT:          0  MISS:          0
cpu0_ITLB PREFETCH  ACCESS:          0  HIT:          0  MISS:          0
cpu0_ITLB WRITEBACK ACCESS:          0  HIT:          0  MISS:          0
cpu0_L1I TOTAL     ACCESS:     957735  HIT:     957649  MISS:         86
cpu0_L1I LOAD      ACCESS:     957735  HIT:     957649  MISS:         86
cpu0_L1I RFO       ACCESS:          0  HIT:          0  MISS:          0
cpu0_L1I PREFETCH  ACCESS:          0  HIT:          0  MISS:          0
cpu0_L1I WRITEBACK ACCESS:          0  HIT:          0  MISS:          0
cpu0_STLB TOTAL     ACCESS:     364536  HIT:     364137  MISS:        399
cpu0_STLB LOAD      ACCESS:      67163  HIT:      67042  MISS:        121
cpu0_STLB RFO       ACCESS:     297373  HIT:     297095  MISS:        278
cpu0_STLB PREFETCH  ACCESS:          0  HIT:          0  MISS:          0
cpu0_STLB WRITEBACK ACCESS:          0  HIT:          0  MISS:          0
cpu0_L1D TOTAL     ACCESS:   13581866  HIT:   13177822  MISS:     404044
cpu0_L1D LOAD      ACCESS:    7043343  HIT:    6793603  MISS:     249740
cpu0_L1D RFO       ACCESS:    6538124  HIT:    6383829  MISS:     154295
cpu0_L1D PREFETCH  ACCESS:          0  HIT:          0  MISS:          0
cpu0_L1D WRITEBACK ACCESS:          0  HIT:          0  MISS:          0
cpu0_L2C TOTAL     ACCESS:     677606  HIT:     522044  MISS:     155562
cpu0_L2C LOAD      ACCESS:     249531  HIT:     174890  MISS:      74641
cpu0_L2C RFO       ACCESS:     154150  HIT:      73461  MISS:      80689
cpu0_L2C PREFETCH  ACCESS:          0  HIT:          0  MISS:          0
cpu0_L2C WRITEBACK ACCESS:     273916  HIT:     273687  MISS:        229
LLC TOTAL     ACCESS:     261808  HIT:     236158  MISS:      25650
LLC LOAD      ACCESS:      73903  HIT:      66316  MISS:       7587
LLC RFO       ACCESS:      80687  HIT:      62624  MISS:      18063
LLC PREFETCH  ACCESS:          0  HIT:          0  MISS:          0
LLC WRITEBACK ACCESS:     107215  HIT:     107215  MISS:          0
Heartbeat CPU 0 instructions: 98000003 cycles: 43019921 heartbeat IPC: 1.24665 cumulative IPC: 1.68947 (Simulation time: 1 hr 3 min 6 sec) 

Region of Interest Statistics
cpu0_DTLB TOTAL     ACCESS:   11320149  HIT:   10950222  MISS:     369927
cpu0_DTLB LOAD      ACCESS:    6949705  HIT:    6879406  MISS:      70299
cpu0_DTLB RFO       ACCESS:    4370444  HIT:    4070816  MISS:     299628
cpu0_DTLB PREFETCH  ACCESS:          0  HIT:          0  MISS:          0
cpu0_DTLB WRITEBACK ACCESS:          0  HIT:          0  MISS:          0
cpu0_ITLB TOTAL     ACCESS:    1703898  HIT:    1703896  MISS:          2
cpu0_ITLB LOAD      ACCESS:    1703898  HIT:    1703896  MISS:          2
cpu0_ITLB RFO       ACCESS:          0  HIT:          0  MISS:          0
cpu0_ITLB PREFETCH  ACCESS:          0  HIT:          0  MISS:          0
cpu0_ITLB WRITEBACK ACCESS:          0  HIT:          0  MISS:          0
cpu0_L1I TOTAL     ACCESS:    1090194  HIT:    1090108  MISS:         86
cpu0_L1I LOAD      ACCESS:    1090194  HIT:    1090108  MISS:         86
cpu0_L1I RFO       ACCESS:          0  HIT:          0  MISS:          0
cpu0_L1I PREFETCH  ACCESS:          0  HIT:          0  MISS:          0
cpu0_L1I WRITEBACK ACCESS:          0  HIT:          0  MISS:          0
cpu0_STLB TOTAL     ACCESS:     369929  HIT:     369530  MISS:        399
cpu0_STLB LOAD      ACCESS:      70301  HIT:      70180  MISS:        121
cpu0_STLB RFO       ACCESS:     299628  HIT:     299350  MISS:        278
cpu0_STLB PREFETCH  ACCESS:          0  HIT:          0  MISS:          0
cpu0_STLB WRITEBACK ACCESS:          0  HIT:          0  MISS:          0
cpu0_L1D TOTAL     ACCESS:   14117677  HIT:   13695332  MISS:     422345
cpu0_L1D LOAD      ACCESS:    7396091  HIT:    7133389  MISS:     262702
cpu0_L1D RFO       ACCESS:    6721187  HIT:    6561553  MISS:     159634
cpu0_L1D PREFETCH  ACCESS:          0  HIT:          0  MISS:          0
cpu0_L1D WRITEBACK ACCESS:          0  HIT:          0  MISS:          0
cpu0_L2C TOTAL     ACCESS:     702736  HIT:     538987  MISS:     163749
cpu0_L2C LOAD      ACCESS:     262492  HIT:     182590  MISS:      79902
cpu0_L2C RFO       ACCESS:     159486  HIT:      75873  MISS:      83613
cpu0_L2C PREFETCH  ACCESS:          0  HIT:          0  MISS:          0
cpu0_L2C WRITEBACK ACCESS:     280749  HIT:     280518  MISS:        231
LLC TOTAL     ACCESS:     274907  HIT:     249257  MISS:      25650
LLC LOAD      ACCESS:      79158  HIT:      71571  MISS:       7587
LLC RFO       ACCESS:      83611  HIT:      65548  MISS:      18063
LLC PREFETCH  ACCESS:          0  HIT:          0  MISS:          0
LLC WRITEBACK ACCESS:     112135  HIT:     112135  MISS:          0
Heartbeat CPU 0 instructions: 100000001 cycles: 44625626 heartbeat IPC: 1.24556 cumulative IPC: 1.66572 (Simulation time: 1 hr 4 min 16 sec) 

Region of Interest Statistics
cpu0_DTLB TOTAL     ACCESS:   11815998  HIT:   11440261  MISS:     375737
cpu0_DTLB LOAD      ACCESS:    7339678  HIT:    7266003  MISS:      73675
cpu0_DTLB RFO       ACCESS:    4476320  HIT:    4174258  MISS:     302062
cpu0_DTLB PREFETCH  ACCESS:          0  HIT:          0  MISS:          0
cpu0_DTLB WRITEBACK ACCESS:          0  HIT:          0  MISS:          0
cpu0_ITLB TOTAL     ACCESS:    1849535  HIT:    1849533  MISS:          2
cpu0_ITLB LOAD      ACCESS:    1849535  HIT:    1849533  MISS:          2
cpu0_ITLB RFO       ACCESS:          0  HIT:          0  MISS:          0
cpu0_ITLB PREFETCH  ACCESS:          0  HIT:          0  MISS:          0
cpu0_ITLB WRITEBACK ACCESS:          0  HIT:          0  MISS:          0
cpu0_L1I TOTAL     ACCESS:    1217799  HIT:    1217713  MISS:         86
cpu0_L1I LOAD      ACCESS:    1217799  HIT:    1217713  MISS:         86
cpu0_L1I RFO       ACCESS:          0  HIT:          0  MISS:          0
cpu0_L1I PREFETCH  ACCESS:          0  HIT:          0  MISS:          0
cpu0_L1I WRITEBACK ACCESS:          0  HIT:          0  MISS:          0
cpu0_STLB TOTAL     ACCESS:     375739  HIT:     375340  MISS:        399
cpu0_STLB LOAD      ACCESS:      73677  HIT:      73556  MISS:        121
cpu0_STLB RFO       ACCESS:     302062  HIT:     301784  MISS:        278
cpu0_STLB PREFETCH  ACCESS:          0  HIT:          0  MISS:          0
cpu0_STLB WRITEBACK ACCESS:          0  HIT:          0  MISS:          0
cpu0_L1D TOTAL     ACCESS:   14665715  HIT:   14221365  MISS:     444350
cpu0_L1D LOAD      ACCESS:    7752877  HIT:    7475426  MISS:     277451
cpu0_L1D RFO       ACCESS:    6912439  HIT:    6745549  MISS:     166890
cpu0_L1D PREFETCH  ACCESS:          0  HIT:          0  MISS:          0
cpu0_L1D WRITEBACK ACCESS:          0  HIT:          0  MISS:          0
cpu0_L2C TOTAL     ACCESS:     733293  HIT:     559292  MISS:     174001
cpu0_L2C LOAD      ACCESS:     277241  HIT:     191317  MISS:      85924
cpu0_L2C RFO       ACCESS:     166740  HIT:      78897  MISS:      87843
cpu0_L2C PREFETCH  ACCESS:          0  HIT:          0  MISS:          0
cpu0_L2C WRITEBACK ACCESS:     289303  HIT:     289072  MISS:        231
LLC TOTAL     ACCESS:     291219  HIT:     265569  MISS:      25650
LLC LOAD      ACCESS:      85176  HIT:      77589  MISS:       7587
LLC RFO       ACCESS:      87841  HIT:      69778  MISS:      18063
LLC PREFETCH  ACCESS:          0  HIT:          0  MISS:          0
LLC WRITEBACK ACCESS:     118199  HIT:     118199  MISS:          0
Heartbeat CPU 0 instructions: 102000002 cycles: 46274180 heartbeat IPC: 1.21318 cumulative IPC: 1.64216 (Simulation time: 1 hr 5 min 25 sec) 

Region of Interest Statistics
cpu0_DTLB TOTAL     ACCESS:   12315085  HIT:   11932459  MISS:     382626
cpu0_DTLB LOAD      ACCESS:    7735022  HIT:    7656648  MISS:      78374
cpu0_DTLB RFO       ACCESS:    4580063  HIT:    4275811  MISS:     304252
cpu0_DTLB PREFETCH  ACCESS:          0  HIT:          0  MISS:          0
cpu0_DTLB WRITEBACK ACCESS:          0  HIT:          0  MISS:          0
cpu0_ITLB TOTAL     ACCESS:    1993388  HIT:    1993386  MISS:          2
cpu0_ITLB LOAD      ACCESS:    1993388  HIT:    1993386  MISS:          2
cpu0_ITLB RFO       ACCESS:          0  HIT:          0  MISS:          0
cpu0_ITLB PREFETCH  ACCESS:          0  HIT:          0  MISS:          0
cpu0_ITLB WRITEBACK ACCESS:          0  HIT:          0  MISS:          0
cpu0_L1I TOTAL     ACCESS:    1348481  HIT:    1348395  MISS:         86
cpu0_L1I LOAD      ACCESS:    1348481  HIT:    1348395  MISS:         86
cpu0_L1I RFO       ACCESS:          0  HIT:          0  MISS:          0
cpu0_L1I PREFETCH  ACCESS:          0  HIT:          0  MISS:          0
cpu0_L1I WRITEBACK ACCESS:          0  HIT:          0  MISS:          0
cpu0_STLB TOTAL     ACCESS:     382628  HIT:     382229  MISS:        399
cpu0_STLB LOAD      ACCESS:      78376  HIT:      78255  MISS:        121
cpu0_STLB RFO       ACCESS:     304252  HIT:     303974  MISS:        278
cpu0_STLB PREFETCH  ACCESS:          0  HIT:          0  MISS:          0
cpu0_STLB WRITEBACK ACCESS:          0  HIT:          0  MISS:          0
cpu0_L1D TOTAL     ACCESS:   15219315  HIT:   14755830  MISS:     463485
cpu0_L1D LOAD      ACCESS:    8112794  HIT:    7821677  MISS:     291117
cpu0_L1D RFO       ACCESS:    7106122  HIT:    6933763  MISS:     172359
cpu0_L1D PREFETCH  ACCESS:          0  HIT:          0  MISS:          0
cpu0_L1D WRITEBACK ACCESS:          0  HIT:          0  MISS:          0
cpu0_L2C TOTAL     ACCESS:     759531  HIT:     576076  MISS:     183455
cpu0_L2C LOAD      ACCESS:     290907  HIT:     198915  MISS:      91992
cpu0_L2C RFO       ACCESS:     172207  HIT:      80980  MISS:      91227
cpu0_L2C PREFETCH  ACCESS:          0  HIT:          0  MISS:          0
cpu0_L2C WRITEBACK ACCESS:     296408  HIT:     296175  MISS:        233
LLC TOTAL     ACCESS:     306216  HIT:     280566  MISS:      25650
LLC LOAD      ACCESS:      91237  HIT:      83650  MISS:       7587
LLC RFO       ACCESS:      91225  HIT:      73162  MISS:      18063
LLC PREFETCH  ACCESS:          0  HIT:          0  MISS:          0
LLC WRITEBACK ACCESS:     123751  HIT:     123751  MISS:          0
Heartbeat CPU 0 instructions: 104000000 cycles: 47922734 heartbeat IPC: 1.21318 cumulative IPC: 1.62094 (Simulation time: 1 hr 6 min 32 sec) 

Region of Interest Statistics
cpu0_DTLB TOTAL     ACCESS:   12806879  HIT:   12414577  MISS:     392302
cpu0_DTLB LOAD      ACCESS:    8119426  HIT:    8035519  MISS:      83907
cpu0_DTLB RFO       ACCESS:    4687453  HIT:    4379058  MISS:     308395
cpu0_DTLB PREFETCH  ACCESS:          0  HIT:          0  MISS:          0
cpu0_DTLB WRITEBACK ACCESS:          0  HIT:          0  MISS:          0
cpu0_ITLB TOTAL     ACCESS:    2144791  HIT:    2144789  MISS:          2
cpu0_ITLB LOAD      ACCESS:    2144791  HIT:    2144789  MISS:          2
cpu0_ITLB RFO       ACCESS:          0  HIT:          0  MISS:          0
cpu0_ITLB PREFETCH  ACCESS:          0  HIT:          0  MISS:          0
cpu0_ITLB WRITEBACK ACCESS:          0  HIT:          0  MISS:          0
cpu0_L1I TOTAL     ACCESS:    1476334  HIT:    1476248  MISS:         86
cpu0_L1I LOAD      ACCESS:    1476334  HIT:    1476248  MISS:         86
cpu0_L1I RFO       ACCESS:          0  HIT:          0  MISS:          0
cpu0_L1I PREFETCH  ACCESS:          0  HIT:          0  MISS:          0
cpu0_L1I WRITEBACK ACCESS:          0  HIT:          0  MISS:          0
cpu0_STLB TOTAL     ACCESS:     392304  HIT:     391905  MISS:        399
cpu0_STLB LOAD      ACCESS:      83909  HIT:      83788  MISS:        121
cpu0_STLB RFO       ACCESS:     308395  HIT:     308117  MISS:        278
cpu0_STLB PREFETCH  ACCESS:          0  HIT:          0  MISS:          0
cpu0_STLB WRITEBACK ACCESS:          0  HIT:          0  MISS:          0
cpu0_L1D TOTAL     ACCESS:   15771346  HIT:   15280188  MISS:     491158
cpu0_L1D LOAD      ACCESS:    8471103  HIT:    8161707  MISS:     309396
cpu0_L1D RFO       ACCESS:    7299844  HIT:    7118091  MISS:     181753
cpu0_L1D PREFETCH  ACCESS:          0  HIT:          0  MISS:          0
cpu0_L1D WRITEBACK ACCESS:          0  HIT:          0  MISS:          0
cpu0_L2C TOTAL     ACCESS:     798355  HIT:     600095  MISS:     198260
cpu0_L2C LOAD      ACCESS:     309185  HIT:     208533  MISS:     100652
cpu0_L2C RFO       ACCESS:     181597  HIT:      84227  MISS:      97370
cpu0_L2C PREFETCH  ACCESS:          0  HIT:          0  MISS:          0
cpu0_L2C WRITEBACK ACCESS:     307564  HIT:     307329  MISS:        235
LLC TOTAL     ACCESS:     329611  HIT:     303961  MISS:      25650
LLC LOAD      ACCESS:      99896  HIT:      92309  MISS:       7587
LLC RFO       ACCESS:      97367  HIT:      79304  MISS:      18063
LLC PREFETCH  ACCESS:          0  HIT:          0  MISS:          0
LLC WRITEBACK ACCESS:     132345  HIT:     132345  MISS:          0
Heartbeat CPU 0 instructions: 106000001 cycles: 49568413 heartbeat IPC: 1.2153 cumulative IPC: 1.60184 (Simulation time: 1 hr 7 min 37 sec) 

Region of Interest Statistics
cpu0_DTLB TOTAL     ACCESS:   13296969  HIT:   12898857  MISS:     398112
cpu0_DTLB LOAD      ACCESS:    8508066  HIT:    8420506  MISS:      87560
cpu0_DTLB RFO       ACCESS:    4788903  HIT:    4478351  MISS:     310552
cpu0_DTLB PREFETCH  ACCESS:          0  HIT:          0  MISS:          0
cpu0_DTLB WRITEBACK ACCESS:          0  HIT:          0  MISS:          0
cpu0_ITLB TOTAL     ACCESS:    2294153  HIT:    2294151  MISS:          2
cpu0_ITLB LOAD      ACCESS:    2294153  HIT:    2294151  MISS:          2
cpu0_ITLB RFO       ACCESS:          0  HIT:          0  MISS:          0
cpu0_ITLB PREFETCH  ACCESS:          0  HIT:          0  MISS:          0
cpu0_ITLB WRITEBACK ACCESS:          0  HIT:          0  MISS:          0
cpu0_L1I TOTAL     ACCESS:    1608187  HIT:    1608101  MISS:         86
cpu0_L1I LOAD      ACCESS:    1608187  HIT:    1608101  MISS:         86
cpu0_L1I RFO       ACCESS:          0  HIT:          0  MISS:          0
cpu0_L1I PREFETCH  ACCESS:          0  HIT:          0  MISS:          0
cpu0_L1I WRITEBACK ACCESS:          0  HIT:          0  MISS:          0
cpu0_STLB TOTAL     ACCESS:     398114  HIT:     397715  MISS:        399
cpu0_STLB LOAD      ACCESS:      87562  HIT:      87441  MISS:        121
cpu0_STLB RFO       ACCESS:     310552  HIT:     310274  MISS:        278
cpu0_STLB PREFETCH  ACCESS:          0  HIT:          0  MISS:          0
cpu0_STLB WRITEBACK ACCESS:          0  HIT:          0  MISS:          0
cpu0_L1D TOTAL     ACCESS:   16318781  HIT:   15807060  MISS:     511721
cpu0_L1D LOAD      ACCESS:    8830632  HIT:    8507034  MISS:     323598
cpu0_L1D RFO       ACCESS:    7487750  HIT:    7299636  MISS:     188114
cpu0_L1D PREFETCH  ACCESS:          0  HIT:          0  MISS:          0
cpu0_L1D WRITEBACK ACCESS:          0  HIT:          0  MISS:          0
cpu0_L2C TOTAL     ACCESS:     826535  HIT:     618766  MISS:     207769
cpu0_L2C LOAD      ACCESS:     323387  HIT:     216614  MISS:     106773
cpu0_L2C RFO       ACCESS:     187957  HIT:      87199  MISS:     100758
cpu0_L2C PREFETCH  ACCESS:          0  HIT:          0  MISS:          0
cpu0_L2C WRITEBACK ACCESS:     315182  HIT:     314947  MISS:        235
[...]
cpu0_DTLB PREFETCH  REQUESTED:          0  ISSUED:          0  USEFUL:          0  USELESS:          0
cpu0_DTLB AVERAGE MISS LATENCY: 9.1025 cycles
cpu0_ITLB TOTAL     ACCESS:   88568665  HIT:   88568663  MISS:          2
cpu0_ITLB LOAD      ACCESS:   88568665  HIT:   88568663  MISS:          2
cpu0_ITLB RFO       ACCESS:          0  HIT:          0  MISS:          0
cpu0_ITLB PREFETCH  ACCESS:          0  HIT:          0  MISS:          0
cpu0_ITLB WRITEBACK ACCESS:          0  HIT:          0  MISS:          0
cpu0_ITLB TRANSLATION ACCESS:          0  HIT:          0  MISS:          0
cpu0_ITLB PREFETCH  REQUESTED:          0  ISSUED:          0  USEFUL:          0  USELESS:          0
cpu0_ITLB AVERAGE MISS LATENCY: 233 cycles
cpu0_L1I TOTAL     ACCESS:   62342826  HIT:   62342731  MISS:         95
cpu0_L1I LOAD      ACCESS:   62342826  HIT:   62342731  MISS:         95
cpu0_L1I RFO       ACCESS:          0  HIT:          0  MISS:          0
cpu0_L1I PREFETCH  ACCESS:          0  HIT:          0  MISS:          0
cpu0_L1I WRITEBACK ACCESS:          0  HIT:          0  MISS:          0
cpu0_L1I TRANSLATION ACCESS:          0  HIT:          0  MISS:          0
cpu0_L1I PREFETCH  REQUESTED:          0  ISSUED:          0  USEFUL:          0  USELESS:          0
cpu0_L1I AVERAGE MISS LATENCY: 159.189 cycles
cpu0_STLB TOTAL     ACCESS:    5945816  HIT:    5944493  MISS:       1323
cpu0_STLB LOAD      ACCESS:    2932235  HIT:    2931356  MISS:        879
cpu0_STLB RFO       ACCESS:    3013581  HIT:    3013137  MISS:        444
cpu0_STLB PREFETCH  ACCESS:          0  HIT:          0  MISS:          0
cpu0_STLB WRITEBACK ACCESS:          0  HIT:          0  MISS:          0
cpu0_STLB TRANSLATION ACCESS:          0  HIT:          0  MISS:          0
cpu0_STLB PREFETCH  REQUESTED:          0  ISSUED:          0  USEFUL:          0  USELESS:          0
cpu0_STLB AVERAGE MISS LATENCY: 208.544 cycles
cpu0_L1D TOTAL     ACCESS:  399736459  HIT:  383445718  MISS:   16290741
cpu0_L1D LOAD      ACCESS:  243768897  HIT:  230946053  MISS:   12822844
cpu0_L1D RFO       ACCESS:  155966239  HIT:  152498364  MISS:    3467875
cpu0_L1D PREFETCH  ACCESS:          0  HIT:          0  MISS:          0
cpu0_L1D WRITEBACK ACCESS:          0  HIT:          0  MISS:          0
cpu0_L1D TRANSLATION ACCESS:       1323  HIT:       1301  MISS:         22
cpu0_L1D PREFETCH  REQUESTED:          0  ISSUED:          0  USEFUL:          0  USELESS:          0
cpu0_L1D AVERAGE MISS LATENCY: 19.4941 cycles
cpu0_L2C TOTAL     ACCESS:   20889631  HIT:   14696377  MISS:    6193254
cpu0_L2C LOAD      ACCESS:   12821235  HIT:    8813420  MISS:    4007815
cpu0_L2C RFO       ACCESS:    3466495  HIT:    1284490  MISS:    2182005
cpu0_L2C PREFETCH  ACCESS:          0  HIT:          0  MISS:          0
cpu0_L2C WRITEBACK ACCESS:    4601879  HIT:    4598461  MISS:       3418
cpu0_L2C TRANSLATION ACCESS:         22  HIT:          6  MISS:         16
cpu0_L2C PREFETCH  REQUESTED:          0  ISSUED:          0  USEFUL:          0  USELESS:          0
cpu0_L2C AVERAGE MISS LATENCY: 22.0657 cycles
LLC TOTAL     ACCESS:    8897375  HIT:    8811737  MISS:      85638
LLC LOAD      ACCESS:    4001924  HIT:    3945788  MISS:      56136
LLC RFO       ACCESS:    2181797  HIT:    2152355  MISS:      29442
LLC PREFETCH  ACCESS:          0  HIT:          0  MISS:          0
LLC WRITEBACK ACCESS:    2713638  HIT:    2713579  MISS:         59
LLC TRANSLATION ACCESS:         16  HIT:         15  MISS:          1
LLC PREFETCH  REQUESTED:          0  ISSUED:          0  USEFUL:          0  USELESS:          0
LLC AVERAGE MISS LATENCY: 79.3255 cycles
~~~~~~~~~~Reuse Distance Profiler output~~~~~~~~~~
0	54273296	13626848
1	48040432	21643808
2	40629264	24506864
3	42507760	33674512
4	27416192	21839584
5	17659584	12019776
6	11647344	7531568
7	13010336	7755776
8	11816784	5768208
9	10097632	7174528
10	8825664	4926592
11	8790032	3993424
12	5803168	3542176
13	14747584	7533488
14	4283600	2861856
15	3603504	2460704
16	3305328	2199280
17	2844880	2066336
18	2407760	1804880
19	2406592	1779840
20	2096016	1451232
21	1954064	1434672
22	1792160	1131520
23	1445648	896688
24	1274816	797056
25	1122032	740208
26	1060816	669744
27	1410864	777376
28	1030288	639312
29	851968	502656
30	748976	503584
31	706976	464656
32	670448	436624
33	593296	381680
34	571232	376880
35	625520	362224
36	514320	344960
37	515280	354464
38	515440	356240
39	482048	335824
40	442448	297808
41	610528	381520
42	367552	260528
43	359856	253312
44	352544	249536
45	326768	249936
46	321744	251888
47	312656	239024
48	282464	216784
49	289824	229216
50	255536	200496
51	245328	189104
52	240848	193760
53	222512	179200
54	220160	174144
55	379024	258864
56	226784	177536
57	204864	169360
58	276112	231216
59	202208	165808
60	184896	150800
61	170608	141008
62	164000	135952
63	162752	137056
64	313408	259632
66	315296	263600
68	435072	338176
70	299648	257568
72	283504	245456
74	281984	245776
76	278016	241584
78	319264	245840
80	339552	237456
82	395664	309424
84	281952	234896
86	281664	219488
88	293360	225680
90	338112	272160
92	287888	217392
94	286192	221248
96	401360	295376
98	303792	234592
100	292768	221488
102	272160	201600
104	266736	202160
106	249984	189232
108	257696	201760
110	342608	267296
112	240208	190944
114	234080	185088
116	234064	191632
118	226688	186320
120	217136	179968
122	242160	204704
124	329168	282528
126	232464	198960
128	374688	324160
132	361088	315488
136	425936	368272
140	334800	294800
144	313792	274224
148	308240	271216
152	349024	309040
156	276544	241680
160	269984	236640
164	313312	276704
168	240576	208832
172	230480	199744
176	223088	191392
180	269184	238640
184	212496	181440
188	205984	173936
192	269056	229248
196	220064	175312
200	217888	166560
204	219488	158224
208	268464	194560
212	232704	149200
216	227600	141024
220	266656	178336
224	222640	139920
228	209904	135376
232	195504	128064
236	222304	166464
240	172480	123312
244	162016	117584
248	190528	151200
252	154080	116736
256	308832	236848
264	364416	285472
272	382640	300784
280	369808	295568
288	367152	313536
296	302720	254528
304	314848	250080
312	303456	214256
320	355776	228832
328	376624	220688
336	368640	204928
344	364576	223264
352	316592	196688
360	299664	211408
368	240576	184064
376	244176	199232
384	229584	187712
392	195440	153888
400	203184	163216
408	183632	142912
416	191616	156592
424	162976	133616
432	175056	148176
440	164304	143632
448	150480	130912
456	162432	143920
464	151024	133040
472	163296	145152
480	146544	130000
488	162400	144032
496	164640	145920
504	141392	123424
512	259664	226400
528	246016	214544
544	241408	211536
560	229312	199152
576	216368	188432
592	211536	181520
608	197792	168400
624	193200	164128
640	187952	160448
656	182944	158672
672	175744	152496
688	167216	145680
704	160864	140160
720	162160	139072
736	176000	155072
752	183232	163968
768	160208	142112
784	157120	138576
800	147104	130528
816	135136	118368
832	131952	116160
848	135472	119472
864	128384	113696
880	128064	114416
896	121632	107472
912	110336	97792
928	114624	102368
944	112880	101280
960	104944	91936
976	106112	93536
992	118352	106704
1008	100896	89552
1024	180416	157568
1056	167808	145664
1088	156032	133808
1120	155600	134768
1152	148336	127072
1184	137600	119648
1216	133680	115600
1248	125632	109328
1280	126752	109088
1312	119312	103024
1344	118992	103232
1376	116800	102432
1408	112720	98416
1440	108464	93680
1472	105504	89984
1504	106048	89040
1536	105344	88032
1568	100944	84688
1600	97696	83600
1632	97712	84624
1664	110928	97488
1696	102016	90064
1728	98576	86192
1760	88320	76656
1792	84064	73728
1824	82224	72720
1856	83520	72496
1888	78096	69712
1920	78352	68064
1952	75872	66384
1984	74368	64976
2016	77040	67072
2048	143760	126144
2112	137104	119696
2176	133008	115808
2240	121728	105472
2304	123936	109440
2368	122560	108352
2432	120016	106336
2496	112064	97616
2560	120032	105120
2624	118976	104976
2688	127344	114608
2752	130176	118192
2816	128912	115456
2880	114080	102336
2944	104592	93312
3008	91360	79584
3072	85904	75152
3136	86928	75744
3200	81632	72128
3264	79504	68256
3328	75120	63744
3392	74512	63760
3456	79792	68352
3520	80160	66752
3584	81248	65152
3648	102032	85296
3712	95984	78160
3776	90704	79680
3840	89744	79248
3904	73216	63296
3968	68992	60560
4032	69648	61296
4096	126960	110160
4224	124480	107584
4352	118224	101792
4480	122720	108256
4608	118464	104416
4736	110880	97504
4864	111968	98720
4992	104096	91632
5120	106544	94256
5248	112640	99904
5376	110528	98176
5504	103600	90784
5632	114880	102592
5760	119936	108176
5888	113120	101216
6016	89536	79824
6144	87200	76656
6272	88816	78160
6400	83408	73536
6528	86592	77472
6656	80016	71344
6784	75872	67232
6912	72064	63232
7040	69632	61776
7168	65392	57440
7296	64784	57104
7424	63840	56192
7552	65616	58464
7680	65024	57280
7808	64240	56640
7936	66304	58544
8064	65872	58480
8192	137360	120544
8448	140656	127088
8704	122544	109408
8960	111632	98240
9216	112688	101392
9472	111088	97952
9728	105936	93520
9984	102432	90560
10240	101312	91232
10496	98048	88512
10752	92464	82224
11008	88880	79520
11264	85152	75888
11520	86288	77376
11776	81504	72928
12032	79808	71248
12288	73744	66256
12544	75872	67200
12800	69776	62368
13056	69200	60896
13312	67792	60800
13568	64464	57280
13824	67808	60384
14080	61904	54688
14336	63104	55696
14592	61440	54880
14848	59696	53040
15104	61648	56112
15360	58880	52944
15616	61120	55488
15872	57408	52512
16128	56352	51328
16384	105280	95008
16896	106112	96608
17408	106544	98000
17920	100480	91408
18432	92944	85472
18944	87008	79280
19456	88608	80320
19968	83872	77104
20480	84320	78240
20992	84640	78560
21504	80640	74160
22016	79360	73584
22528	80128	74800
23040	77968	72416
23552	78528	73088
24064	76672	70960
24576	72512	67888
25088	68832	64496
25600	68560	64544
26112	63712	59728
26624	61728	57456
27136	64928	61200
27648	59184	55456
28160	60000	56032
28672	59424	54864
29184	61168	57488
29696	56640	53088
30208	56688	53264
30720	53488	50240
31232	51776	48544
31744	52368	49216
32256	52592	49360
32768	104192	98064
33792	100112	94592
34816	96080	90304
35840	93088	88128
36864	90784	85360
37888	88416	83120
38912	85536	80336
39936	77808	72672
40960	77824	72880
41984	78176	73520
43008	71408	66720
44032	66176	62000
45056	67760	63520
46080	69360	64816
47104	66608	62496
48128	66736	62880
49152	66192	61872
50176	65024	61600
51200	60240	57168
52224	66816	63072
53248	63632	59808
54272	58208	54352
55296	54816	51472
56320	52272	48928
57344	53248	49984
58368	52496	49056
59392	51008	47136
60416	50752	47536
61440	48608	45408
62464	48928	45584
63488	43824	40752
64512	45232	42096
65536	87920	80608
67584	88736	81568
69632	85264	78288
71680	73696	68368
73728	73216	67968
75776	71136	66240
77824	67600	62864
79872	68304	64144
81920	66912	62768
83968	63840	59440
86016	61392	56720
88064	60928	56928
90112	60448	56000
92160	55808	51568
94208	53040	49280
96256	56560	52768
98304	53968	49856
100352	54688	50608
102400	53424	49568
104448	49568	45376
106496	48752	44528
108544	44848	40944
110592	46320	42544
112640	44320	41024
114688	39552	35568
116736	42416	38816
118784	40624	36576
120832	39488	36096
122880	38352	34656
124928	36112	32768
126976	33744	30624
129024	35424	31584
131072	63360	56848
135168	64192	57296
139264	62160	54960
143360	63344	55888
147456	58512	51696
151552	57648	51024
155648	54720	48272
159744	57616	51264
163840	52592	47296
167936	52768	45456
172032	45280	38944
176128	50752	43872
180224	44928	37648
184320	42704	36960
188416	42848	37888
192512	42704	37088
196608	41920	36624
200704	38768	32960
204800	37056	32112
208896	35024	30592
212992	35520	30752
217088	34800	30624
221184	32896	28848
225280	32048	26800
229376	33184	28656
233472	34752	29824
237568	31328	26896
241664	31328	26592
245760	33568	28320
249856	31296	26576
253952	32624	28000
258048	29184	25056
262144	56768	47920
270336	54640	46064
278528	53104	43392
286720	55232	42896
294912	54624	42768
303104	53040	40384
311296	47088	37648
319488	46496	38624
327680	44944	36448
335872	41456	33392
344064	40032	31008
352256	36432	29776
360448	39440	30736
368640	39008	30048
376832	39344	30688
385024	36496	28928
393216	35360	28688
401408	41072	32016
409600	42160	31120
417792	43712	33328
425984	36704	27600
434176	33872	25808
442368	33248	25120
450560	31072	23568
458752	30112	21136
466944	28688	21344
475136	29856	21968
483328	28624	21552
491520	28528	20560
499712	28688	21456
507904	29040	21392
516096	28656	21040
524288	58496	42160
540672	56960	42128
557056	53504	35840
573440	55056	34800
589824	56416	36816
606208	63920	36800
622592	65264	35008
638976	64528	32864
655360	50384	31280
671744	41440	29952
688128	43888	29888
704512	45424	27264
720896	46864	27072
737280	43744	26080
753664	38960	23856
770048	37424	23824
786432	34192	21952
802816	29872	19280
819200	29168	21104
835584	29872	20864
851968	36624	20640
868352	34128	18928
884736	38944	18656
901120	41200	21072
917504	34336	20192
933888	31280	18320
950272	35136	17424
966656	36256	18800
983040	27616	16624
999424	24928	15248
1015808	24112	14752
1032192	23520	15776
1048576	43408	28032
1081344	54512	26128
1114112	44576	27408
1146880	44144	26528
1179648	40256	25904
1212416	49056	24560
1245184	41392	24176
1277952	35616	22160
1310720	52304	39616
1343488	37904	23488
1376256	40448	21344
1409024	37088	24320
1441792	41024	21136
1474560	33104	24704
1507328	37776	24832
1540096	41968	24864
1572864	41728	27968
1605632	32368	20944
1638400	56608	41232
1671168	28208	18608
1703936	56032	44544
1736704	26768	18464
1769472	51152	43392
1802240	27248	19536
1835008	31808	18080
1867776	32240	18640
1900544	32048	20016
1933312	54432	43248
1966080	49280	40112
1998848	26160	16032
2031616	26544	16528
2064384	26720	16176
2097152	39536	25808
2162688	65840	51856
2228224	33552	22672
2293760	44192	26976
2359296	32784	23104
2424832	33184	22736
2490368	33408	20064
2555904	31408	23200
2621440	32688	18176
2686976	26640	15248
2752512	23248	13984
2818048	21664	13008
2883584	20192	13152
2949120	23744	14928
3014656	19536	12368
3080192	22240	12272
3145728	16896	11008
3211264	17552	10256
3276800	20224	12384
3342336	18592	11472
3407872	15536	9376
3473408	18192	11552
3538944	15248	9248
3604480	13616	8592
3670016	15200	10048
3735552	15424	9744
3801088	13744	8704
3866624	12800	7760
3932160	14928	8976
3997696	12304	8240
4063232	14272	10128
4128768	11264	6944
4194304	23504	14736
4325376	18912	12192
4456448	18656	11728
4587520	16304	10304
4718592	14944	8752
4849664	15168	9072
4980736	14528	9168
5111808	11856	7056
5242880	12080	7760
5373952	11456	7552
5505024	10672	7248
5636096	10704	6704
5767168	9472	6736
5898240	8352	5136
6029312	7408	4336
6160384	9392	6144
6291456	9600	6032
6422528	8016	5120
6553600	7120	4832
6684672	5408	3392
6815744	7184	5056
6946816	7712	5456
7077888	8256	6272
7208960	6640	4704
7340032	3904	2352
7471104	4144	2704
7602176	4576	2688
7733248	5392	3808
7864320	4624	3008
7995392	4992	3840
8126464	4688	3536
8257536	6944	5472
8388608	9904	7088
8650752	8864	5328
8912896	9712	6208
9175040	8544	3904
9437184	7200	3376
9699328	10784	5520
9961472	7744	4192
10223616	8320	4336
10485760	8336	3872
10747904	8288	2976
11010048	7696	1616
11272192	9888	4016
11534336	10304	3568
11796480	10624	3296
12058624	10320	2320
12320768	13440	4608
12582912	10448	3456
12845056	10912	3968
13107200	11520	3552
13369344	10592	3808
13631488	7040	1856
13893632	6848	1744
14155776	6976	2816
14417920	7872	3776
14680064	5968	2160
14942208	5968	2256
15204352	7024	4000
15466496	6080	3392
15728640	6000	3792
15990784	5696	3136
16252928	4496	1776
16515072	4640	2288
16777216	11152	4896
17301504	13408	5920
17825792	14736	5600
18350080	18544	5008
18874368	18528	4864
19398656	17808	4800
19922944	16912	5936
20447232	18544	4176
20971520	23136	3840
21495808	26560	4032
22020096	32912	5600
22544384	34544	4208
23068672	30976	5600
23592960	24160	5040
24117248	19168	4816
24641536	22880	5344
25165824	23024	5424
25690112	13072	3312
26214400	11024	3024
26738688	7520	4128
27262976	6384	3536
27787264	5840	3712
28311552	4400	2000
28835840	4656	3008
29360128	4448	2048
29884416	3296	1728
30408704	3168	1280
30932992	2496	1216
31457280	1552	928
31981568	1520	1024
32505856	1568	928
33030144	1248	880
33554432	3216	960
34603008	1856	1088
35651584	3232	1712
36700160	2432	1360
37748736	1920	1120
38797312	2464	1200
39845888	2416	896
40894464	3056	1248
41943040	1808	848
42991616	1008	416
44040192	2112	400
45088768	1392	224
46137344	1632	384
47185920	2096	784
48234496	2816	592
49283072	768	240
50331648	1152	32
51380224	4352	0
52428800	1264	0
53477376	160	0
54525952	384	0
55574528	256	0
56623104	240	32
57671680	64	0
58720256	0	0
59768832	832	0
60817408	992	0
61865984	0	0
62914560	64	0
63963136	64	0
65011712	48	0
66060288	16	0
67108864	0	0
69206016	0	0
71303168	0	0
73400320	0	0
75497472	0	0
77594624	0	0
79691776	0	0
81788928	0	0
83886080	0	0
85983232	0	0
88080384	0	0
90177536	0	0
92274688	0	0
94371840	0	0
96468992	0	0
98566144	0	0
100663296	0	0
102760448	0	0
104857600	16	0
106954752	0	0
109051904	0	0
111149056	0	0
113246208	0	0
115343360	0	0
117440512	0	0
119537664	0	0
121634816	0	0
123731968	0	0
125829120	0	0
127926272	0	0
130023424	0	0
132120576	0	0
134217728	0	0
138412032	0	0
142606336	0	0
146800640	0	0
150994944	0	0
155189248	16	0
159383552	0	0
163577856	16	0
167772160	0	0
171966464	0	0
176160768	0	0
180355072	0	0
184549376	0	0
188743680	0	0
192937984	0	0
197132288	0	0
201326592	0	0
205520896	0	0
209715200	0	0
213909504	0	0
218103808	0	0
222298112	0	0
226492416	0	0
230686720	0	0
234881024	0	0
239075328	0	0
243269632	0	0
247463936	0	0
251658240	0	0
255852544	0	0
260046848	0	0
264241152	0	0
268435456	0	0
276824064	0	0
285212672	0	0
293601280	0	0
301989888	0	0
310378496	0	0
318767104	0	0
327155712	0	0
335544320	0	0
343932928	0	0
352321536	0	0
360710144	0	0
369098752	0	0
377487360	0	0
385875968	0	0
394264576	0	0
402653184	0	0
411041792	0	0
419430400	0	0
427819008	0	0
436207616	0	0
444596224	0	0
452984832	0	0
461373440	0	0
469762048	0	0
478150656	0	0
486539264	0	0
494927872	0	0
503316480	0	0
511705088	0	0
520093696	0	0
528482304	0	0
536870912	0	0
553648128	0	0
570425344	0	0
587202560	0	0
603979776	0	0
620756992	0	0
637534208	0	0
654311424	0	0
671088640	0	0
687865856	0	0
704643072	0	0
721420288	0	0
738197504	0	0
754974720	0	0
771751936	0	0
788529152	0	0
805306368	0	0
822083584	0	0
838860800	0	0
855638016	0	0
872415232	0	0
889192448	0	0
905969664	0	0
922746880	0	0
939524096	0	0
956301312	0	0
973078528	0	0
989855744	0	0
1006632960	0	0
1023410176	0	0
1040187392	0	0
1056964608	0	0
1073741824	0	0
1107296256	0	0
1140850688	0	0
1174405120	0	0
1207959552	0	0
1241513984	0	0
1275068416	0	0
1308622848	0	0
1342177280	0	0
1375731712	0	0
1409286144	0	0
1442840576	0	0
1476395008	0	0
1509949440	0	0
1543503872	0	0
1577058304	0	0
1610612736	0	0
1644167168	0	0
1677721600	0	0
1711276032	0	0
1744830464	0	0
1778384896	0	0
1811939328	0	0
1845493760	0	0
1879048192	0	0
1912602624	0	0
1946157056	0	0
1979711488	0	0
2013265920	0	0
2046820352	0	0
2080374784	0	0
2113929216	0	0
2147483648	0	0
2214592512	0	0
2281701376	0	0
2348810240	0	0
2415919104	0	0
2483027968	0	0
2550136832	0	0
2617245696	0	0
2684354560	0	0
2751463424	0	0
2818572288	0	0
2885681152	0	0
2952790016	0	0
3019898880	0	0
3087007744	0	0
3154116608	0	0
3221225472	0	0
3288334336	0	0
3355443200	0	0
3422552064	0	0
3489660928	0	0
3556769792	0	0
3623878656	0	0
3690987520	0	0
3758096384	0	0
3825205248	0	0
3892314112	0	0
3959422976	0	0
4026531840	0	0
4093640704	0	0
4160749568	0	0
4227858432	0	0
~~~~~~~~~~Reuse Distance Profiler output end~~~~~~~~~~

Sampler size:8193

DRAM Statistics
 CHANNEL 0
 RQ ROW_BUFFER_HIT:      71259  ROW_BUFFER_MISS:      14320
 DBUS AVG_CONGESTED_CYCLE:    3.85195
 WQ ROW_BUFFER_HIT:       1574  ROW_BUFFER_MISS:       1304  FULL:          0


CPU 0 Branch Prediction Accuracy: 91.9507% MPKI: 12.2886 Average ROB Occupancy at Mispredict: 32.2615
Branch type MPKI
BRANCH_DIRECT_JUMP: 1.26667e-05
BRANCH_INDIRECT: 0
BRANCH_CONDITIONAL: 12.2886
BRANCH_DIRECT_CALL: 1.26667e-05
BRANCH_INDIRECT_CALL: 0
BRANCH_RETURN: 1.2e-05

