
*** ChampSim Multicore Out-of-Order Simulator ***

Warmup Instructions: 50000000
Simulation Instructions: 1500000000
Number of CPUs: 1
Off-chip DRAM Size: 4 GiB Channels: 1 Width: 64-bit Data Rate: 3200 MT/s

VirtualMemory physical capacity: 8588881920 num_ppages: 2096895
VirtualMemory page size: 4096 log2_page_size: 12

CPU 0 runs /s/traces/champsim_traces/429.mcf-184B.champsimtrace.xz
CPU 0 Bimodal branch predictor
Basic BTB sets: 1024 ways: 8 indirect buffer size: 4096 RAS size: 64
Initializing LRU.
Initializing LRU.
Initializing LRU.
Initializing LRU.
Initializing rdLRU.
Initializing LRU.
Heartbeat CPU 0 instructions: 2000002 cycles: 626116 heartbeat IPC: 3.1943 cumulative IPC: 3.1943 (Simulation time: 0 hr 1 min 15 sec) 
Heartbeat CPU 0 instructions: 4000004 cycles: 1262702 heartbeat IPC: 3.14176 cumulative IPC: 3.16781 (Simulation time: 0 hr 2 min 27 sec) 
Heartbeat CPU 0 instructions: 6000000 cycles: 1904777 heartbeat IPC: 3.11489 cumulative IPC: 3.14998 (Simulation time: 0 hr 3 min 42 sec) 
Heartbeat CPU 0 instructions: 8000003 cycles: 2526968 heartbeat IPC: 3.21445 cumulative IPC: 3.16585 (Simulation time: 0 hr 4 min 55 sec) 
Heartbeat CPU 0 instructions: 10000000 cycles: 3147722 heartbeat IPC: 3.22188 cumulative IPC: 3.1769 (Simulation time: 0 hr 6 min 5 sec) 
Heartbeat CPU 0 instructions: 12000002 cycles: 3770294 heartbeat IPC: 3.21248 cumulative IPC: 3.18278 (Simulation time: 0 hr 7 min 18 sec) 
Heartbeat CPU 0 instructions: 14000003 cycles: 4391584 heartbeat IPC: 3.21911 cumulative IPC: 3.18792 (Simulation time: 0 hr 8 min 28 sec) 
Heartbeat CPU 0 instructions: 16000002 cycles: 5013877 heartbeat IPC: 3.21392 cumulative IPC: 3.19114 (Simulation time: 0 hr 9 min 39 sec) 
Heartbeat CPU 0 instructions: 18000002 cycles: 5637503 heartbeat IPC: 3.20705 cumulative IPC: 3.1929 (Simulation time: 0 hr 10 min 55 sec) 
Heartbeat CPU 0 instructions: 20000000 cycles: 6289284 heartbeat IPC: 3.06851 cumulative IPC: 3.18001 (Simulation time: 0 hr 12 min 18 sec) 
Heartbeat CPU 0 instructions: 22000003 cycles: 6912118 heartbeat IPC: 3.21113 cumulative IPC: 3.18282 (Simulation time: 0 hr 13 min 33 sec) 
Heartbeat CPU 0 instructions: 24000000 cycles: 7534853 heartbeat IPC: 3.21163 cumulative IPC: 3.1852 (Simulation time: 0 hr 14 min 47 sec) 
Heartbeat CPU 0 instructions: 26000002 cycles: 8157925 heartbeat IPC: 3.20991 cumulative IPC: 3.18709 (Simulation time: 0 hr 16 min 1 sec) 
Heartbeat CPU 0 instructions: 28000002 cycles: 8781634 heartbeat IPC: 3.20662 cumulative IPC: 3.18847 (Simulation time: 0 hr 17 min 16 sec) 
Heartbeat CPU 0 instructions: 30000001 cycles: 9402532 heartbeat IPC: 3.22114 cumulative IPC: 3.19063 (Simulation time: 0 hr 18 min 31 sec) 
Heartbeat CPU 0 instructions: 32000004 cycles: 10023337 heartbeat IPC: 3.22163 cumulative IPC: 3.19255 (Simulation time: 0 hr 19 min 44 sec) 
Heartbeat CPU 0 instructions: 34000004 cycles: 10665731 heartbeat IPC: 3.11335 cumulative IPC: 3.18778 (Simulation time: 0 hr 21 min 5 sec) 
Heartbeat CPU 0 instructions: 36000001 cycles: 11298031 heartbeat IPC: 3.16305 cumulative IPC: 3.1864 (Simulation time: 0 hr 22 min 21 sec) 
Heartbeat CPU 0 instructions: 38000004 cycles: 11919378 heartbeat IPC: 3.21882 cumulative IPC: 3.18809 (Simulation time: 0 hr 23 min 36 sec) 
Heartbeat CPU 0 instructions: 40000001 cycles: 12537674 heartbeat IPC: 3.23469 cumulative IPC: 3.19038 (Simulation time: 0 hr 24 min 47 sec) 
Heartbeat CPU 0 instructions: 42000002 cycles: 13159625 heartbeat IPC: 3.21569 cumulative IPC: 3.19158 (Simulation time: 0 hr 26 min 0 sec) 
Heartbeat CPU 0 instructions: 44000001 cycles: 13782666 heartbeat IPC: 3.21006 cumulative IPC: 3.19242 (Simulation time: 0 hr 27 min 10 sec) 
Heartbeat CPU 0 instructions: 46000000 cycles: 14405282 heartbeat IPC: 3.21225 cumulative IPC: 3.19327 (Simulation time: 0 hr 28 min 19 sec) 
Heartbeat CPU 0 instructions: 48000001 cycles: 15057219 heartbeat IPC: 3.06778 cumulative IPC: 3.18784 (Simulation time: 0 hr 29 min 33 sec) 
Heartbeat CPU 0 instructions: 50000003 cycles: 15679595 heartbeat IPC: 3.21349 cumulative IPC: 3.18886 (Simulation time: 0 hr 30 min 47 sec) 

Warmup complete CPU 0 instructions: 50000003 cycles: 15679595 (Simulation time: 0 hr 30 min 47 sec) 

Heartbeat CPU 0 instructions: 52000002 cycles: 39627929 heartbeat IPC: 0.0835131 cumulative IPC: 0.0835131 (Simulation time: 0 hr 36 min 18 sec) 

Region of Interest Statistics
cpu0_DTLB TOTAL     ACCESS:     419233  HIT:     141229  MISS:     278004
cpu0_DTLB LOAD      ACCESS:     411238  HIT:     134025  MISS:     277213
cpu0_DTLB RFO       ACCESS:       7995  HIT:       7204  MISS:        791
cpu0_DTLB PREFETCH  ACCESS:          0  HIT:          0  MISS:          0
cpu0_DTLB WRITEBACK ACCESS:          0  HIT:          0  MISS:          0
cpu0_ITLB TOTAL     ACCESS:     220978  HIT:     220978  MISS:          0
cpu0_ITLB LOAD      ACCESS:     220978  HIT:     220978  MISS:          0
cpu0_ITLB RFO       ACCESS:          0  HIT:          0  MISS:          0
cpu0_ITLB PREFETCH  ACCESS:          0  HIT:          0  MISS:          0
cpu0_ITLB WRITEBACK ACCESS:          0  HIT:          0  MISS:          0
cpu0_STLB TOTAL     ACCESS:     278004  HIT:     271186  MISS:       6818
cpu0_STLB LOAD      ACCESS:     277213  HIT:     270475  MISS:       6738
cpu0_STLB RFO       ACCESS:        791  HIT:        711  MISS:         80
cpu0_STLB PREFETCH  ACCESS:          0  HIT:          0  MISS:          0
cpu0_STLB WRITEBACK ACCESS:          0  HIT:          0  MISS:          0
cpu0_L1D TOTAL     ACCESS:     436650  HIT:     157793  MISS:     278857
cpu0_L1D LOAD      ACCESS:     415689  HIT:     139042  MISS:     276647
cpu0_L1D RFO       ACCESS:      14169  HIT:      13851  MISS:        318
cpu0_L1D PREFETCH  ACCESS:          0  HIT:          0  MISS:          0
cpu0_L1D WRITEBACK ACCESS:          0  HIT:          0  MISS:          0
cpu0_L2C TOTAL     ACCESS:     282542  HIT:      82932  MISS:     199610
cpu0_L2C LOAD      ACCESS:     276647  HIT:      78606  MISS:     198041
cpu0_L2C RFO       ACCESS:        318  HIT:        140  MISS:        178
cpu0_L2C PREFETCH  ACCESS:          0  HIT:          0  MISS:          0
cpu0_L2C WRITEBACK ACCESS:       3685  HIT:       3685  MISS:          0
LLC TOTAL     ACCESS:     202027  HIT:      79391  MISS:     122636
LLC LOAD      ACCESS:     198041  HIT:      75518  MISS:     122523
LLC RFO       ACCESS:        178  HIT:        116  MISS:         62
LLC PREFETCH  ACCESS:          0  HIT:          0  MISS:          0
LLC WRITEBACK ACCESS:       2417  HIT:       2366  MISS:         51
Heartbeat CPU 0 instructions: 54000000 cycles: 64571432 heartbeat IPC: 0.0801811 cumulative IPC: 0.0818132 (Simulation time: 0 hr 41 min 50 sec) 

Region of Interest Statistics
cpu0_DTLB TOTAL     ACCESS:     836581  HIT:     270948  MISS:     565633
cpu0_DTLB LOAD      ACCESS:     825024  HIT:     260610  MISS:     564414
cpu0_DTLB RFO       ACCESS:      11557  HIT:      10338  MISS:       1219
cpu0_DTLB PREFETCH  ACCESS:          0  HIT:          0  MISS:          0
cpu0_DTLB WRITEBACK ACCESS:          0  HIT:          0  MISS:          0
cpu0_ITLB TOTAL     ACCESS:     442269  HIT:     442269  MISS:          0
cpu0_ITLB LOAD      ACCESS:     442269  HIT:     442269  MISS:          0
cpu0_ITLB RFO       ACCESS:          0  HIT:          0  MISS:          0
cpu0_ITLB PREFETCH  ACCESS:          0  HIT:          0  MISS:          0
cpu0_ITLB WRITEBACK ACCESS:          0  HIT:          0  MISS:          0
cpu0_STLB TOTAL     ACCESS:     565633  HIT:     552855  MISS:      12778
cpu0_STLB LOAD      ACCESS:     564414  HIT:     551759  MISS:      12655
cpu0_STLB RFO       ACCESS:       1219  HIT:       1096  MISS:        123
cpu0_STLB PREFETCH  ACCESS:          0  HIT:          0  MISS:          0
cpu0_STLB WRITEBACK ACCESS:          0  HIT:          0  MISS:          0
cpu0_L1D TOTAL     ACCESS:     864382  HIT:     299597  MISS:     564785
cpu0_L1D LOAD      ACCESS:     831218  HIT:     270581  MISS:     560637
cpu0_L1D RFO       ACCESS:      20423  HIT:      19956  MISS:        467
cpu0_L1D PREFETCH  ACCESS:          0  HIT:          0  MISS:          0
cpu0_L1D WRITEBACK ACCESS:          0  HIT:          0  MISS:          0
cpu0_L2C TOTAL     ACCESS:     570203  HIT:     164377  MISS:     405826
cpu0_L2C LOAD      ACCESS:     560636  HIT:     157936  MISS:     402700
cpu0_L2C RFO       ACCESS:        467  HIT:        184  MISS:        283
cpu0_L2C PREFETCH  ACCESS:          0  HIT:          0  MISS:          0
cpu0_L2C WRITEBACK ACCESS:       5419  HIT:       5419  MISS:          0
LLC TOTAL     ACCESS:     409716  HIT:     158814  MISS:     250902
LLC LOAD      ACCESS:     402700  HIT:     151966  MISS:     250734
LLC RFO       ACCESS:        283  HIT:        182  MISS:        101
LLC PREFETCH  ACCESS:          0  HIT:          0  MISS:          0
LLC WRITEBACK ACCESS:       3890  HIT:       3825  MISS:         65
Heartbeat CPU 0 instructions: 56000001 cycles: 87287893 heartbeat IPC: 0.0880419 cumulative IPC: 0.0837891 (Simulation time: 0 hr 46 min 56 sec) 

Region of Interest Statistics
cpu0_DTLB TOTAL     ACCESS:    1258852  HIT:     431338  MISS:     827514
cpu0_DTLB LOAD      ACCESS:    1232065  HIT:     408250  MISS:     823815
cpu0_DTLB RFO       ACCESS:      26787  HIT:      23088  MISS:       3699
cpu0_DTLB PREFETCH  ACCESS:          0  HIT:          0  MISS:          0
cpu0_DTLB WRITEBACK ACCESS:          0  HIT:          0  MISS:          0
cpu0_ITLB TOTAL     ACCESS:     663375  HIT:     663375  MISS:          0
cpu0_ITLB LOAD      ACCESS:     663375  HIT:     663375  MISS:          0
cpu0_ITLB RFO       ACCESS:          0  HIT:          0  MISS:          0
cpu0_ITLB PREFETCH  ACCESS:          0  HIT:          0  MISS:          0
cpu0_ITLB WRITEBACK ACCESS:          0  HIT:          0  MISS:          0
cpu0_STLB TOTAL     ACCESS:     827514  HIT:     808114  MISS:      19400
cpu0_STLB LOAD      ACCESS:     823815  HIT:     804622  MISS:      19193
cpu0_STLB RFO       ACCESS:       3699  HIT:       3492  MISS:        207
cpu0_STLB PREFETCH  ACCESS:          0  HIT:          0  MISS:          0
cpu0_STLB WRITEBACK ACCESS:          0  HIT:          0  MISS:          0
cpu0_L1D TOTAL     ACCESS:    1316895  HIT:     484551  MISS:     832344
cpu0_L1D LOAD      ACCESS:    1251495  HIT:     425565  MISS:     825930
cpu0_L1D RFO       ACCESS:      46043  HIT:      45059  MISS:        984
cpu0_L1D PREFETCH  ACCESS:          0  HIT:          0  MISS:          0
cpu0_L1D WRITEBACK ACCESS:          0  HIT:          0  MISS:          0
cpu0_L2C TOTAL     ACCESS:     845493  HIT:     252425  MISS:     593068
cpu0_L2C LOAD      ACCESS:     825927  HIT:     237519  MISS:     588408
cpu0_L2C RFO       ACCESS:        984  HIT:        497  MISS:        487
cpu0_L2C PREFETCH  ACCESS:          0  HIT:          0  MISS:          0
cpu0_L2C WRITEBACK ACCESS:      13152  HIT:      13152  MISS:          0
LLC TOTAL     ACCESS:     600424  HIT:     235202  MISS:     365222
LLC LOAD      ACCESS:     588408  HIT:     223540  MISS:     364868
LLC RFO       ACCESS:        487  HIT:        297  MISS:        190
LLC PREFETCH  ACCESS:          0  HIT:          0  MISS:          0
LLC WRITEBACK ACCESS:       7356  HIT:       7195  MISS:        161
Heartbeat CPU 0 instructions: 58000000 cycles: 110231275 heartbeat IPC: 0.0871711 cumulative IPC: 0.0846098 (Simulation time: 0 hr 52 min 0 sec) 

Region of Interest Statistics
cpu0_DTLB TOTAL     ACCESS:    1682145  HIT:     592037  MISS:    1090108
cpu0_DTLB LOAD      ACCESS:    1640040  HIT:     556751  MISS:    1083289
cpu0_DTLB RFO       ACCESS:      42105  HIT:      35286  MISS:       6819
cpu0_DTLB PREFETCH  ACCESS:          0  HIT:          0  MISS:          0
cpu0_DTLB WRITEBACK ACCESS:          0  HIT:          0  MISS:          0
cpu0_ITLB TOTAL     ACCESS:     885972  HIT:     885972  MISS:          0
cpu0_ITLB LOAD      ACCESS:     885972  HIT:     885972  MISS:          0
cpu0_ITLB RFO       ACCESS:          0  HIT:          0  MISS:          0
cpu0_ITLB PREFETCH  ACCESS:          0  HIT:          0  MISS:          0
cpu0_ITLB WRITEBACK ACCESS:          0  HIT:          0  MISS:          0
cpu0_STLB TOTAL     ACCESS:    1090108  HIT:    1064362  MISS:      25746
cpu0_STLB LOAD      ACCESS:    1083289  HIT:    1057846  MISS:      25443
cpu0_STLB RFO       ACCESS:       6819  HIT:       6516  MISS:        303
cpu0_STLB PREFETCH  ACCESS:          0  HIT:          0  MISS:          0
cpu0_STLB WRITEBACK ACCESS:          0  HIT:          0  MISS:          0
cpu0_L1D TOTAL     ACCESS:    1770288  HIT:     667689  MISS:    1102599
cpu0_L1D LOAD      ACCESS:    1673996  HIT:     580006  MISS:    1093990
cpu0_L1D RFO       ACCESS:      70595  HIT:      69137  MISS:       1458
cpu0_L1D PREFETCH  ACCESS:          0  HIT:          0  MISS:          0
cpu0_L1D WRITEBACK ACCESS:          0  HIT:          0  MISS:          0
cpu0_L2C TOTAL     ACCESS:    1124481  HIT:     343539  MISS:     780942
cpu0_L2C LOAD      ACCESS:    1093986  HIT:     319198  MISS:     774788
cpu0_L2C RFO       ACCESS:       1458  HIT:        776  MISS:        682
cpu0_L2C PREFETCH  ACCESS:          0  HIT:          0  MISS:          0
cpu0_L2C WRITEBACK ACCESS:      21886  HIT:      21886  MISS:          0
LLC TOTAL     ACCESS:     792065  HIT:     311924  MISS:     480141
LLC LOAD      ACCESS:     774788  HIT:     295155  MISS:     479633
LLC RFO       ACCESS:        682  HIT:        391  MISS:        291
LLC PREFETCH  ACCESS:          0  HIT:          0  MISS:          0
LLC WRITEBACK ACCESS:      11123  HIT:      10911  MISS:        212
Heartbeat CPU 0 instructions: 60000001 cycles: 133082004 heartbeat IPC: 0.0875246 cumulative IPC: 0.0851771 (Simulation time: 0 hr 57 min 4 sec) 

Region of Interest Statistics
cpu0_DTLB TOTAL     ACCESS:    2104355  HIT:     748671  MISS:    1355684
cpu0_DTLB LOAD      ACCESS:    2049283  HIT:     703109  MISS:    1346174
cpu0_DTLB RFO       ACCESS:      55072  HIT:      45562  MISS:       9510
cpu0_DTLB PREFETCH  ACCESS:          0  HIT:          0  MISS:          0
cpu0_DTLB WRITEBACK ACCESS:          0  HIT:          0  MISS:          0
cpu0_ITLB TOTAL     ACCESS:    1107868  HIT:    1107868  MISS:          0
cpu0_ITLB LOAD      ACCESS:    1107868  HIT:    1107868  MISS:          0
cpu0_ITLB RFO       ACCESS:          0  HIT:          0  MISS:          0
cpu0_ITLB PREFETCH  ACCESS:          0  HIT:          0  MISS:          0
cpu0_ITLB WRITEBACK ACCESS:          0  HIT:          0  MISS:          0
cpu0_STLB TOTAL     ACCESS:    1355684  HIT:    1323284  MISS:      32400
cpu0_STLB LOAD      ACCESS:    1346174  HIT:    1314155  MISS:      32019
cpu0_STLB RFO       ACCESS:       9510  HIT:       9129  MISS:        381
cpu0_STLB PREFETCH  ACCESS:          0  HIT:          0  MISS:          0
cpu0_STLB WRITEBACK ACCESS:          0  HIT:          0  MISS:          0
cpu0_L1D TOTAL     ACCESS:    2220950  HIT:     847263  MISS:    1373687
cpu0_L1D LOAD      ACCESS:    2096514  HIT:     733628  MISS:    1362886
cpu0_L1D RFO       ACCESS:      92094  HIT:      90206  MISS:       1888
cpu0_L1D PREFETCH  ACCESS:          0  HIT:          0  MISS:          0
cpu0_L1D WRITEBACK ACCESS:          0  HIT:          0  MISS:          0
cpu0_L2C TOTAL     ACCESS:    1402883  HIT:     432722  MISS:     970161
cpu0_L2C LOAD      ACCESS:    1362882  HIT:     400403  MISS:     962479
cpu0_L2C RFO       ACCESS:       1888  HIT:       1014  MISS:        874
cpu0_L2C PREFETCH  ACCESS:          0  HIT:          0  MISS:          0
cpu0_L2C WRITEBACK ACCESS:      29200  HIT:      29200  MISS:          0
LLC TOTAL     ACCESS:     984395  HIT:     389557  MISS:     594838
LLC LOAD      ACCESS:     962479  HIT:     368336  MISS:     594143
LLC RFO       ACCESS:        874  HIT:        501  MISS:        373
LLC PREFETCH  ACCESS:          0  HIT:          0  MISS:          0
LLC WRITEBACK ACCESS:      14234  HIT:      13917  MISS:        317
Heartbeat CPU 0 instructions: 62000002 cycles: 167833892 heartbeat IPC: 0.0575509 cumulative IPC: 0.0788673 (Simulation time: 1 hr 3 min 53 sec) 

Region of Interest Statistics
cpu0_DTLB TOTAL     ACCESS:    2584685  HIT:    1036747  MISS:    1547938
cpu0_DTLB LOAD      ACCESS:    2470461  HIT:     932857  MISS:    1537604
cpu0_DTLB RFO       ACCESS:     114224  HIT:     103890  MISS:      10334
cpu0_DTLB PREFETCH  ACCESS:          0  HIT:          0  MISS:          0
cpu0_DTLB WRITEBACK ACCESS:          0  HIT:          0  MISS:          0
cpu0_ITLB TOTAL     ACCESS:    1393122  HIT:    1393122  MISS:          0
cpu0_ITLB LOAD      ACCESS:    1393122  HIT:    1393122  MISS:          0
cpu0_ITLB RFO       ACCESS:          0  HIT:          0  MISS:          0
cpu0_ITLB PREFETCH  ACCESS:          0  HIT:          0  MISS:          0
cpu0_ITLB WRITEBACK ACCESS:          0  HIT:          0  MISS:          0
cpu0_STLB TOTAL     ACCESS:    1547938  HIT:    1477085  MISS:      70853
cpu0_STLB LOAD      ACCESS:    1537604  HIT:    1467203  MISS:      70401
cpu0_STLB RFO       ACCESS:      10334  HIT:       9882  MISS:        452
cpu0_STLB PREFETCH  ACCESS:          0  HIT:          0  MISS:          0
cpu0_STLB WRITEBACK ACCESS:          0  HIT:          0  MISS:          0
cpu0_L1D TOTAL     ACCESS:    2763135  HIT:    1119168  MISS:    1643967
cpu0_L1D LOAD      ACCESS:    2533324  HIT:     911693  MISS:    1621631
cpu0_L1D RFO       ACCESS:     159155  HIT:     151118  MISS:       8037
cpu0_L1D PREFETCH  ACCESS:          0  HIT:          0  MISS:          0
cpu0_L1D WRITEBACK ACCESS:          0  HIT:          0  MISS:          0
cpu0_L2C TOTAL     ACCESS:    1726559  HIT:     531762  MISS:    1194797
cpu0_L2C LOAD      ACCESS:    1621626  HIT:     440163  MISS:    1181463
cpu0_L2C RFO       ACCESS:       8037  HIT:       2561  MISS:       5476
cpu0_L2C PREFETCH  ACCESS:          0  HIT:          0  MISS:          0
cpu0_L2C WRITEBACK ACCESS:      82597  HIT:      82597  MISS:          0
LLC TOTAL     ACCESS:    1260484  HIT:     476899  MISS:     783585
LLC LOAD      ACCESS:    1181463  HIT:     403088  MISS:     778375
LLC RFO       ACCESS:       5476  HIT:       1778  MISS:       3698
LLC PREFETCH  ACCESS:          0  HIT:          0  MISS:          0
LLC WRITEBACK ACCESS:      65687  HIT:      64248  MISS:       1439
Heartbeat CPU 0 instructions: 64000001 cycles: 191059623 heartbeat IPC: 0.0861113 cumulative IPC: 0.0798266 (Simulation time: 1 hr 8 min 59 sec) 

Region of Interest Statistics
cpu0_DTLB TOTAL     ACCESS:    3004287  HIT:    1192199  MISS:    1812088
cpu0_DTLB LOAD      ACCESS:    2876415  HIT:    1076817  MISS:    1799598
cpu0_DTLB RFO       ACCESS:     127872  HIT:     115382  MISS:      12490
cpu0_DTLB PREFETCH  ACCESS:          0  HIT:          0  MISS:          0
cpu0_DTLB WRITEBACK ACCESS:          0  HIT:          0  MISS:          0
cpu0_ITLB TOTAL     ACCESS:    1613736  HIT:    1613736  MISS:          0
cpu0_ITLB LOAD      ACCESS:    1613736  HIT:    1613736  MISS:          0
cpu0_ITLB RFO       ACCESS:          0  HIT:          0  MISS:          0
cpu0_ITLB PREFETCH  ACCESS:          0  HIT:          0  MISS:          0
cpu0_ITLB WRITEBACK ACCESS:          0  HIT:          0  MISS:          0
cpu0_STLB TOTAL     ACCESS:    1812088  HIT:    1735227  MISS:      76861
cpu0_STLB LOAD      ACCESS:    1799598  HIT:    1723273  MISS:      76325
cpu0_STLB RFO       ACCESS:      12490  HIT:      11954  MISS:        536
cpu0_STLB PREFETCH  ACCESS:          0  HIT:          0  MISS:          0
cpu0_STLB WRITEBACK ACCESS:          0  HIT:          0  MISS:          0
cpu0_L1D TOTAL     ACCESS:    3211448  HIT:    1298485  MISS:    1912963
cpu0_L1D LOAD      ACCESS:    2951809  HIT:    1063295  MISS:    1888514
cpu0_L1D RFO       ACCESS:     182984  HIT:     174468  MISS:       8516
cpu0_L1D PREFETCH  ACCESS:          0  HIT:          0  MISS:          0
cpu0_L1D WRITEBACK ACCESS:          0  HIT:          0  MISS:          0
cpu0_L2C TOTAL     ACCESS:    2002654  HIT:     617810  MISS:    1384844
cpu0_L2C LOAD      ACCESS:    1888507  HIT:     518540  MISS:    1369967
cpu0_L2C RFO       ACCESS:       8516  HIT:       2832  MISS:       5684
cpu0_L2C PREFETCH  ACCESS:          0  HIT:          0  MISS:          0
cpu0_L2C WRITEBACK ACCESS:      89698  HIT:      89698  MISS:          0
LLC TOTAL     ACCESS:    1454090  HIT:     551037  MISS:     903053
LLC LOAD      ACCESS:    1369967  HIT:     472436  MISS:     897531
LLC RFO       ACCESS:       5684  HIT:       1888  MISS:       3796
LLC PREFETCH  ACCESS:          0  HIT:          0  MISS:          0
LLC WRITEBACK ACCESS:      69246  HIT:      67594  MISS:       1652
Heartbeat CPU 0 instructions: 66000001 cycles: 212743623 heartbeat IPC: 0.0922339 cumulative IPC: 0.0811919 (Simulation time: 1 hr 13 min 47 sec) 

Region of Interest Statistics
cpu0_DTLB TOTAL     ACCESS:    3429001  HIT:    1367986  MISS:    2061015
cpu0_DTLB LOAD      ACCESS:    3280547  HIT:    1235258  MISS:    2045289
cpu0_DTLB RFO       ACCESS:     148454  HIT:     132728  MISS:      15726
cpu0_DTLB PREFETCH  ACCESS:          0  HIT:          0  MISS:          0
cpu0_DTLB WRITEBACK ACCESS:          0  HIT:          0  MISS:          0
cpu0_ITLB TOTAL     ACCESS:    1835469  HIT:    1835469  MISS:          0
cpu0_ITLB LOAD      ACCESS:    1835469  HIT:    1835469  MISS:          0
cpu0_ITLB RFO       ACCESS:          0  HIT:          0  MISS:          0
cpu0_ITLB PREFETCH  ACCESS:          0  HIT:          0  MISS:          0
cpu0_ITLB WRITEBACK ACCESS:          0  HIT:          0  MISS:          0
cpu0_STLB TOTAL     ACCESS:    2061015  HIT:    1978048  MISS:      82967
cpu0_STLB LOAD      ACCESS:    2045289  HIT:    1962972  MISS:      82317
cpu0_STLB RFO       ACCESS:      15726  HIT:      15076  MISS:        650
cpu0_STLB PREFETCH  ACCESS:          0  HIT:          0  MISS:          0
cpu0_STLB WRITEBACK ACCESS:          0  HIT:          0  MISS:          0
cpu0_L1D TOTAL     ACCESS:    3674945  HIT:    1502701  MISS:    2172244
cpu0_L1D LOAD      ACCESS:    3374900  HIT:    1229376  MISS:    2145524
cpu0_L1D RFO       ACCESS:     217289  HIT:     208082  MISS:       9207
cpu0_L1D PREFETCH  ACCESS:          0  HIT:          0  MISS:          0
cpu0_L1D WRITEBACK ACCESS:          0  HIT:          0  MISS:          0
cpu0_L2C TOTAL     ACCESS:    2272821  HIT:     709640  MISS:    1563181
cpu0_L2C LOAD      ACCESS:    2145516  HIT:     598683  MISS:    1546833
cpu0_L2C RFO       ACCESS:       9207  HIT:       3282  MISS:       5925
cpu0_L2C PREFETCH  ACCESS:          0  HIT:          0  MISS:          0
cpu0_L2C WRITEBACK ACCESS:     100585  HIT:     100585  MISS:          0
LLC TOTAL     ACCESS:    1637281  HIT:     626194  MISS:    1011087
LLC LOAD      ACCESS:    1546833  HIT:     541684  MISS:    1005149
LLC RFO       ACCESS:       5925  HIT:       1994  MISS:       3931
LLC PREFETCH  ACCESS:          0  HIT:          0  MISS:          0
LLC WRITEBACK ACCESS:      74100  HIT:      72168  MISS:       1932
Heartbeat CPU 0 instructions: 68000000 cycles: 233875440 heartbeat IPC: 0.094644 cumulative IPC: 0.0824947 (Simulation time: 1 hr 18 min 35 sec) 

Region of Interest Statistics
cpu0_DTLB TOTAL     ACCESS:    3852837  HIT:    1546973  MISS:    2305864
cpu0_DTLB LOAD      ACCESS:    3683046  HIT:    1395470  MISS:    2287576
cpu0_DTLB RFO       ACCESS:     169791  HIT:     151503  MISS:      18288
cpu0_DTLB PREFETCH  ACCESS:          0  HIT:          0  MISS:          0
cpu0_DTLB WRITEBACK ACCESS:          0  HIT:          0  MISS:          0
cpu0_ITLB TOTAL     ACCESS:    2056529  HIT:    2056529  MISS:          0
cpu0_ITLB LOAD      ACCESS:    2056529  HIT:    2056529  MISS:          0
cpu0_ITLB RFO       ACCESS:          0  HIT:          0  MISS:          0
cpu0_ITLB PREFETCH  ACCESS:          0  HIT:          0  MISS:          0
cpu0_ITLB WRITEBACK ACCESS:          0  HIT:          0  MISS:          0
cpu0_STLB TOTAL     ACCESS:    2305864  HIT:    2217025  MISS:      88839
cpu0_STLB LOAD      ACCESS:    2287576  HIT:    2199491  MISS:      88085
cpu0_STLB RFO       ACCESS:      18288  HIT:      17534  MISS:        754
cpu0_STLB PREFETCH  ACCESS:          0  HIT:          0  MISS:          0
cpu0_STLB WRITEBACK ACCESS:          0  HIT:          0  MISS:          0
cpu0_L1D TOTAL     ACCESS:    4138145  HIT:    1712252  MISS:    2425893
cpu0_L1D LOAD      ACCESS:    3795052  HIT:    1398177  MISS:    2396875
cpu0_L1D RFO       ACCESS:     254470  HIT:     244507  MISS:       9963
cpu0_L1D PREFETCH  ACCESS:          0  HIT:          0  MISS:          0
cpu0_L1D WRITEBACK ACCESS:          0  HIT:          0  MISS:          0
cpu0_L2C TOTAL     ACCESS:    2536796  HIT:     800432  MISS:    1736364
cpu0_L2C LOAD      ACCESS:    2396866  HIT:     678308  MISS:    1718558
cpu0_L2C RFO       ACCESS:       9963  HIT:       3770  MISS:       6193
cpu0_L2C PREFETCH  ACCESS:          0  HIT:          0  MISS:          0
cpu0_L2C WRITEBACK ACCESS:     110912  HIT:     110912  MISS:          0
LLC TOTAL     ACCESS:    1814494  HIT:     698617  MISS:    1115877
LLC LOAD      ACCESS:    1718558  HIT:     608792  MISS:    1109766
LLC RFO       ACCESS:       6193  HIT:       2117  MISS:       4076
LLC PREFETCH  ACCESS:          0  HIT:          0  MISS:          0
LLC WRITEBACK ACCESS:      78130  HIT:      76173  MISS:       1957
Heartbeat CPU 0 instructions: 70000000 cycles: 269223541 heartbeat IPC: 0.0565801 cumulative IPC: 0.0788818 (Simulation time: 1 hr 25 min 31 sec) 

Region of Interest Statistics
cpu0_DTLB TOTAL     ACCESS:    4333407  HIT:    1831152  MISS:    2502255
cpu0_DTLB LOAD      ACCESS:    4106202  HIT:    1622951  MISS:    2483251
cpu0_DTLB RFO       ACCESS:     227205  HIT:     208201  MISS:      19004
cpu0_DTLB PREFETCH  ACCESS:          0  HIT:          0  MISS:          0
cpu0_DTLB WRITEBACK ACCESS:          0  HIT:          0  MISS:          0
cpu0_ITLB TOTAL     ACCESS:    2342296  HIT:    2342296  MISS:          0
cpu0_ITLB LOAD      ACCESS:    2342296  HIT:    2342296  MISS:          0
cpu0_ITLB RFO       ACCESS:          0  HIT:          0  MISS:          0
cpu0_ITLB PREFETCH  ACCESS:          0  HIT:          0  MISS:          0
cpu0_ITLB WRITEBACK ACCESS:          0  HIT:          0  MISS:          0
cpu0_STLB TOTAL     ACCESS:    2502255  HIT:    2374935  MISS:     127320
cpu0_STLB LOAD      ACCESS:    2483251  HIT:    2356750  MISS:     126501
cpu0_STLB RFO       ACCESS:      19004  HIT:      18185  MISS:        819
cpu0_STLB PREFETCH  ACCESS:          0  HIT:          0  MISS:          0
cpu0_STLB WRITEBACK ACCESS:          0  HIT:          0  MISS:          0
cpu0_L1D TOTAL     ACCESS:    4678275  HIT:    1978307  MISS:    2699968
cpu0_L1D LOAD      ACCESS:    4233202  HIT:    1573734  MISS:    2659468
cpu0_L1D RFO       ACCESS:     318097  HIT:     302057  MISS:      16040
cpu0_L1D PREFETCH  ACCESS:          0  HIT:          0  MISS:          0
cpu0_L1D WRITEBACK ACCESS:          0  HIT:          0  MISS:          0
cpu0_L2C TOTAL     ACCESS:    2863971  HIT:     899458  MISS:    1964513
cpu0_L2C LOAD      ACCESS:    2659458  HIT:     718379  MISS:    1941079
cpu0_L2C RFO       ACCESS:      16040  HIT:       5232  MISS:      10808
cpu0_L2C PREFETCH  ACCESS:          0  HIT:          0  MISS:          0
cpu0_L2C WRITEBACK ACCESS:     164013  HIT:     164013  MISS:          0
LLC TOTAL     ACCESS:    2094128  HIT:     786817  MISS:    1307311
LLC LOAD      ACCESS:    1941079  HIT:     644008  MISS:    1297071
LLC RFO       ACCESS:      10808  HIT:       3415  MISS:       7393
LLC PREFETCH  ACCESS:          0  HIT:          0  MISS:          0
LLC WRITEBACK ACCESS:     129615  HIT:     126898  MISS:       2717
Heartbeat CPU 0 instructions: 72000001 cycles: 291227298 heartbeat IPC: 0.0908936 cumulative IPC: 0.079841 (Simulation time: 1 hr 30 min 23 sec) 

Region of Interest Statistics
cpu0_DTLB TOTAL     ACCESS:    4755576  HIT:    2003129  MISS:    2752447
cpu0_DTLB LOAD      ACCESS:    4509706  HIT:    1777786  MISS:    2731920
cpu0_DTLB RFO       ACCESS:     245870  HIT:     225343  MISS:      20527
cpu0_DTLB PREFETCH  ACCESS:          0  HIT:          0  MISS:          0
cpu0_DTLB WRITEBACK ACCESS:          0  HIT:          0  MISS:          0
cpu0_ITLB TOTAL     ACCESS:    2563286  HIT:    2563286  MISS:          0
cpu0_ITLB LOAD      ACCESS:    2563286  HIT:    2563286  MISS:          0
cpu0_ITLB RFO       ACCESS:          0  HIT:          0  MISS:          0
cpu0_ITLB PREFETCH  ACCESS:          0  HIT:          0  MISS:          0
cpu0_ITLB WRITEBACK ACCESS:          0  HIT:          0  MISS:          0
cpu0_STLB TOTAL     ACCESS:    2752447  HIT:    2619021  MISS:     133426
cpu0_STLB LOAD      ACCESS:    2731920  HIT:    2599419  MISS:     132501
cpu0_STLB RFO       ACCESS:      20527  HIT:      19602  MISS:        925
cpu0_STLB PREFETCH  ACCESS:          0  HIT:          0  MISS:          0
cpu0_STLB WRITEBACK ACCESS:          0  HIT:          0  MISS:          0
cpu0_L1D TOTAL     ACCESS:    5134149  HIT:    2174439  MISS:    2959710
cpu0_L1D LOAD      ACCESS:    4650296  HIT:    1733476  MISS:    2916820
cpu0_L1D RFO       ACCESS:     350773  HIT:     333969  MISS:      16804
cpu0_L1D PREFETCH  ACCESS:          0  HIT:          0  MISS:          0
cpu0_L1D WRITEBACK ACCESS:          0  HIT:          0  MISS:          0
cpu0_L2C TOTAL     ACCESS:    3133121  HIT:     989892  MISS:    2143229
cpu0_L2C LOAD      ACCESS:    2916808  HIT:     798492  MISS:    2118316
cpu0_L2C RFO       ACCESS:      16804  HIT:       5733  MISS:      11071
cpu0_L2C PREFETCH  ACCESS:          0  HIT:          0  MISS:          0
cpu0_L2C WRITEBACK ACCESS:     173423  HIT:     173423  MISS:          0
LLC TOTAL     ACCESS:    2277349  HIT:     858018  MISS:    1419331
LLC LOAD      ACCESS:    2118316  HIT:     709539  MISS:    1408777
LLC RFO       ACCESS:      11071  HIT:       3519  MISS:       7552
LLC PREFETCH  ACCESS:          0  HIT:          0  MISS:          0
LLC WRITEBACK ACCESS:     134120  HIT:     131248  MISS:       2872
Heartbeat CPU 0 instructions: 74000002 cycles: 314708976 heartbeat IPC: 0.0851728 cumulative IPC: 0.0802597 (Simulation time: 1 hr 35 min 45 sec) 

Region of Interest Statistics
cpu0_DTLB TOTAL     ACCESS:    5176185  HIT:    2152250  MISS:    3023935
cpu0_DTLB LOAD      ACCESS:    4919825  HIT:    1918135  MISS:    3001690
cpu0_DTLB RFO       ACCESS:     256360  HIT:     234115  MISS:      22245
cpu0_DTLB PREFETCH  ACCESS:          0  HIT:          0  MISS:          0
cpu0_DTLB WRITEBACK ACCESS:          0  HIT:          0  MISS:          0
cpu0_ITLB TOTAL     ACCESS:    2785302  HIT:    2785302  MISS:          0
cpu0_ITLB LOAD      ACCESS:    2785302  HIT:    2785302  MISS:          0
cpu0_ITLB RFO       ACCESS:          0  HIT:          0  MISS:          0
cpu0_ITLB PREFETCH  ACCESS:          0  HIT:          0  MISS:          0
cpu0_ITLB WRITEBACK ACCESS:          0  HIT:          0  MISS:          0
cpu0_STLB TOTAL     ACCESS:    3023935  HIT:    2884213  MISS:     139722
cpu0_STLB LOAD      ACCESS:    3001690  HIT:    2862962  MISS:     138728
cpu0_STLB RFO       ACCESS:      22245  HIT:      21251  MISS:        994
cpu0_STLB PREFETCH  ACCESS:          0  HIT:          0  MISS:          0
cpu0_STLB WRITEBACK ACCESS:          0  HIT:          0  MISS:          0
cpu0_L1D TOTAL     ACCESS:    5577845  HIT:    2343532  MISS:    3234313
cpu0_L1D LOAD      ACCESS:    5069758  HIT:    1880573  MISS:    3189185
cpu0_L1D RFO       ACCESS:     368716  HIT:     351481  MISS:      17235
cpu0_L1D PREFETCH  ACCESS:          0  HIT:          0  MISS:          0
cpu0_L1D WRITEBACK ACCESS:          0  HIT:          0  MISS:          0
cpu0_L2C TOTAL     ACCESS:    3413588  HIT:    1075486  MISS:    2338102
cpu0_L2C LOAD      ACCESS:    3189172  HIT:     877544  MISS:    2311628
cpu0_L2C RFO       ACCESS:      17235  HIT:       5976  MISS:      11259
cpu0_L2C PREFETCH  ACCESS:          0  HIT:          0  MISS:          0
cpu0_L2C WRITEBACK ACCESS:     179288  HIT:     179288  MISS:          0
LLC TOTAL     ACCESS:    2475602  HIT:     937782  MISS:    1537820
LLC LOAD      ACCESS:    2311628  HIT:     784532  MISS:    1527096
LLC RFO       ACCESS:      11259  HIT:       3617  MISS:       7642
LLC PREFETCH  ACCESS:          0  HIT:          0  MISS:          0
LLC WRITEBACK ACCESS:     137500  HIT:     134548  MISS:       2952
Heartbeat CPU 0 instructions: 76000001 cycles: 338014801 heartbeat IPC: 0.0858154 cumulative IPC: 0.0806614 (Simulation time: 1 hr 41 min 10 sec) 

Region of Interest Statistics
cpu0_DTLB TOTAL     ACCESS:    5595698  HIT:    2299884  MISS:    3295814
cpu0_DTLB LOAD      ACCESS:    5328919  HIT:    2056904  MISS:    3272015
cpu0_DTLB RFO       ACCESS:     266779  HIT:     242980  MISS:      23799
cpu0_DTLB PREFETCH  ACCESS:          0  HIT:          0  MISS:          0
cpu0_DTLB WRITEBACK ACCESS:          0  HIT:          0  MISS:          0
cpu0_ITLB TOTAL     ACCESS:    3006875  HIT:    3006875  MISS:          0
cpu0_ITLB LOAD      ACCESS:    3006875  HIT:    3006875  MISS:          0
cpu0_ITLB RFO       ACCESS:          0  HIT:          0  MISS:          0
cpu0_ITLB PREFETCH  ACCESS:          0  HIT:          0  MISS:          0
cpu0_ITLB WRITEBACK ACCESS:          0  HIT:          0  MISS:          0
cpu0_STLB TOTAL     ACCESS:    3295814  HIT:    3150042  MISS:     145772
cpu0_STLB LOAD      ACCESS:    3272015  HIT:    3127314  MISS:     144701
cpu0_STLB RFO       ACCESS:      23799  HIT:      22728  MISS:       1071
cpu0_STLB PREFETCH  ACCESS:          0  HIT:          0  MISS:          0
cpu0_STLB WRITEBACK ACCESS:          0  HIT:          0  MISS:          0
cpu0_L1D TOTAL     ACCESS:    6020028  HIT:    2512011  MISS:    3508017
cpu0_L1D LOAD      ACCESS:    5488008  HIT:    2027253  MISS:    3460755
cpu0_L1D RFO       ACCESS:     386613  HIT:     368959  MISS:      17654
cpu0_L1D PREFETCH  ACCESS:          0  HIT:          0  MISS:          0
cpu0_L1D WRITEBACK ACCESS:          0  HIT:          0  MISS:          0
cpu0_L2C TOTAL     ACCESS:    3692824  HIT:    1161298  MISS:    2531526
cpu0_L2C LOAD      ACCESS:    3460741  HIT:     957202  MISS:    2503539
cpu0_L2C RFO       ACCESS:      17654  HIT:       6217  MISS:      11437
cpu0_L2C PREFETCH  ACCESS:          0  HIT:          0  MISS:          0
cpu0_L2C WRITEBACK ACCESS:     184821  HIT:     184821  MISS:          0
LLC TOTAL     ACCESS:    2671968  HIT:    1016576  MISS:    1655392
LLC LOAD      ACCESS:    2503539  HIT:     859096  MISS:    1644443
LLC RFO       ACCESS:      11437  HIT:       3705  MISS:       7732
LLC PREFETCH  ACCESS:          0  HIT:          0  MISS:          0
LLC WRITEBACK ACCESS:     140442  HIT:     137356  MISS:       3086
Heartbeat CPU 0 instructions: 78000004 cycles: 362605287 heartbeat IPC: 0.0813324 cumulative IPC: 0.0807089 (Simulation time: 1 hr 46 min 35 sec) 

Region of Interest Statistics
cpu0_DTLB TOTAL     ACCESS:    6027165  HIT:    2485283  MISS:    3541882
cpu0_DTLB LOAD      ACCESS:    5735780  HIT:    2218936  MISS:    3516844
cpu0_DTLB RFO       ACCESS:     291385  HIT:     266347  MISS:      25038
cpu0_DTLB PREFETCH  ACCESS:          0  HIT:          0  MISS:          0
cpu0_DTLB WRITEBACK ACCESS:          0  HIT:          0  MISS:          0
cpu0_ITLB TOTAL     ACCESS:    3240732  HIT:    3240732  MISS:          0
cpu0_ITLB LOAD      ACCESS:    3240732  HIT:    3240732  MISS:          0
cpu0_ITLB RFO       ACCESS:          0  HIT:          0  MISS:          0
cpu0_ITLB PREFETCH  ACCESS:          0  HIT:          0  MISS:          0
cpu0_ITLB WRITEBACK ACCESS:          0  HIT:          0  MISS:          0
cpu0_STLB TOTAL     ACCESS:    3541882  HIT:    3381931  MISS:     159951
cpu0_STLB LOAD      ACCESS:    3516844  HIT:    3358065  MISS:     158779
cpu0_STLB RFO       ACCESS:      25038  HIT:      23866  MISS:       1172
cpu0_STLB PREFETCH  ACCESS:          0  HIT:          0  MISS:          0
cpu0_STLB WRITEBACK ACCESS:          0  HIT:          0  MISS:          0
cpu0_L1D TOTAL     ACCESS:    6487980  HIT:    2711158  MISS:    3776822
cpu0_L1D LOAD      ACCESS:    5907430  HIT:    2182440  MISS:    3724990
cpu0_L1D RFO       ACCESS:     420986  HIT:     401390  MISS:      19596
cpu0_L1D PREFETCH  ACCESS:          0  HIT:          0  MISS:          0
cpu0_L1D WRITEBACK ACCESS:          0  HIT:          0  MISS:          0
cpu0_L2C TOTAL     ACCESS:    3979818  HIT:    1251703  MISS:    2728115
cpu0_L2C LOAD      ACCESS:    3724976  HIT:    1027391  MISS:    2697585
cpu0_L2C RFO       ACCESS:      19596  HIT:       6903  MISS:      12693
cpu0_L2C PREFETCH  ACCESS:          0  HIT:          0  MISS:          0
cpu0_L2C WRITEBACK ACCESS:     203010  HIT:     203010  MISS:          0
LLC TOTAL     ACCESS:    2880960  HIT:    1095458  MISS:    1785502
LLC LOAD      ACCESS:    2697585  HIT:     924256  MISS:    1773329
LLC RFO       ACCESS:      12693  HIT:       4073  MISS:       8620
LLC PREFETCH  ACCESS:          0  HIT:          0  MISS:          0
LLC WRITEBACK ACCESS:     152845  HIT:     149423  MISS:       3422
Heartbeat CPU 0 instructions: 80000001 cycles: 395281780 heartbeat IPC: 0.061206 cumulative IPC: 0.0790301 (Simulation time: 1 hr 52 min 58 sec) 

Region of Interest Statistics
cpu0_DTLB TOTAL     ACCESS:    6497952  HIT:    2753758  MISS:    3744194
cpu0_DTLB LOAD      ACCESS:    6155504  HIT:    2438068  MISS:    3717436
cpu0_DTLB RFO       ACCESS:     342448  HIT:     315690  MISS:      26758
cpu0_DTLB PREFETCH  ACCESS:          0  HIT:          0  MISS:          0
cpu0_DTLB WRITEBACK ACCESS:          0  HIT:          0  MISS:          0
cpu0_ITLB TOTAL     ACCESS:    3513700  HIT:    3513700  MISS:          0
cpu0_ITLB LOAD      ACCESS:    3513700  HIT:    3513700  MISS:          0
cpu0_ITLB RFO       ACCESS:          0  HIT:          0  MISS:          0
cpu0_ITLB PREFETCH  ACCESS:          0  HIT:          0  MISS:          0
cpu0_ITLB WRITEBACK ACCESS:          0  HIT:          0  MISS:          0
cpu0_STLB TOTAL     ACCESS:    3744194  HIT:    3553682  MISS:     190512
cpu0_STLB LOAD      ACCESS:    3717436  HIT:    3528179  MISS:     189257
cpu0_STLB RFO       ACCESS:      26758  HIT:      25503  MISS:       1255
cpu0_STLB PREFETCH  ACCESS:          0  HIT:          0  MISS:          0
cpu0_STLB WRITEBACK ACCESS:          0  HIT:          0  MISS:          0
cpu0_L1D TOTAL     ACCESS:    7017047  HIT:    2975093  MISS:    4041954
cpu0_L1D LOAD      ACCESS:    6345170  HIT:    2364323  MISS:    3980847
cpu0_L1D RFO       ACCESS:     481885  HIT:     457450  MISS:      24435
cpu0_L1D PREFETCH  ACCESS:          0  HIT:          0  MISS:          0
cpu0_L1D WRITEBACK ACCESS:          0  HIT:          0  MISS:          0
cpu0_L2C TOTAL     ACCESS:    4288855  HIT:    1350054  MISS:    2938801
cpu0_L2C LOAD      ACCESS:    3980831  HIT:    1077186  MISS:    2903645
cpu0_L2C RFO       ACCESS:      24435  HIT:       8109  MISS:      16326
cpu0_L2C PREFETCH  ACCESS:          0  HIT:          0  MISS:          0
cpu0_L2C WRITEBACK ACCESS:     246917  HIT:     246914  MISS:          3
LLC TOTAL     ACCESS:    3134459  HIT:    1176846  MISS:    1957613
LLC LOAD      ACCESS:    2903645  HIT:     961502  MISS:    1942143
LLC RFO       ACCESS:      16326  HIT:       5126  MISS:      11200
LLC PREFETCH  ACCESS:          0  HIT:          0  MISS:          0
LLC WRITEBACK ACCESS:     195661  HIT:     191575  MISS:       4086
Heartbeat CPU 0 instructions: 82000001 cycles: 413506175 heartbeat IPC: 0.109743 cumulative IPC: 0.0804371 (Simulation time: 1 hr 57 min 1 sec) 

Region of Interest Statistics
cpu0_DTLB TOTAL     ACCESS:    6927163  HIT:    2967539  MISS:    3959624
cpu0_DTLB LOAD      ACCESS:    6549287  HIT:    2623002  MISS:    3926285
cpu0_DTLB RFO       ACCESS:     377876  HIT:     344537  MISS:      33339
cpu0_DTLB PREFETCH  ACCESS:          0  HIT:          0  MISS:          0
cpu0_DTLB WRITEBACK ACCESS:          0  HIT:          0  MISS:          0
cpu0_ITLB TOTAL     ACCESS:    3734182  HIT:    3734182  MISS:          0
cpu0_ITLB LOAD      ACCESS:    3734182  HIT:    3734182  MISS:          0
cpu0_ITLB RFO       ACCESS:          0  HIT:          0  MISS:          0
cpu0_ITLB PREFETCH  ACCESS:          0  HIT:          0  MISS:          0
cpu0_ITLB WRITEBACK ACCESS:          0  HIT:          0  MISS:          0
cpu0_STLB TOTAL     ACCESS:    3959624  HIT:    3764386  MISS:     195238
cpu0_STLB LOAD      ACCESS:    3926285  HIT:    3732451  MISS:     193834
cpu0_STLB RFO       ACCESS:      33339  HIT:      31935  MISS:       1404
cpu0_STLB PREFETCH  ACCESS:          0  HIT:          0  MISS:          0
cpu0_STLB WRITEBACK ACCESS:          0  HIT:          0  MISS:          0
cpu0_L1D TOTAL     ACCESS:    7511010  HIT:    3237203  MISS:    4273807
cpu0_L1D LOAD      ACCESS:    6774259  HIT:    2563890  MISS:    4210369
cpu0_L1D RFO       ACCESS:     542034  HIT:     516493  MISS:      25541
cpu0_L1D PREFETCH  ACCESS:          0  HIT:          0  MISS:          0
cpu0_L1D WRITEBACK ACCESS:          0  HIT:          0  MISS:          0
cpu0_L2C TOTAL     ACCESS:    4537279  HIT:    1454467  MISS:    3082812
cpu0_L2C LOAD      ACCESS:    4210344  HIT:    1164017  MISS:    3046327
cpu0_L2C RFO       ACCESS:      25541  HIT:       8886  MISS:      16655
cpu0_L2C PREFETCH  ACCESS:          0  HIT:          0  MISS:          0
cpu0_L2C WRITEBACK ACCESS:     263497  HIT:     263492  MISS:          5
LLC TOTAL     ACCESS:    3282007  HIT:    1236714  MISS:    2045293
LLC LOAD      ACCESS:    3046327  HIT:    1016771  MISS:    2029556
LLC RFO       ACCESS:      16655  HIT:       5231  MISS:      11424
LLC PREFETCH  ACCESS:          0  HIT:          0  MISS:          0
LLC WRITEBACK ACCESS:     199200  HIT:     195071  MISS:       4129
Heartbeat CPU 0 instructions: 84000000 cycles: 445901191 heartbeat IPC: 0.0617379 cumulative IPC: 0.079029 (Simulation time: 2 hr 3 min 17 sec) 

Region of Interest Statistics
cpu0_DTLB TOTAL     ACCESS:    7411205  HIT:    3276491  MISS:    4134714
cpu0_DTLB LOAD      ACCESS:    6966769  HIT:    2868866  MISS:    4097903
cpu0_DTLB RFO       ACCESS:     444436  HIT:     407625  MISS:      36811
cpu0_DTLB PREFETCH  ACCESS:          0  HIT:          0  MISS:          0
cpu0_DTLB WRITEBACK ACCESS:          0  HIT:          0  MISS:          0
cpu0_ITLB TOTAL     ACCESS:    4019095  HIT:    4019095  MISS:          0
cpu0_ITLB LOAD      ACCESS:    4019095  HIT:    4019095  MISS:          0
cpu0_ITLB RFO       ACCESS:          0  HIT:          0  MISS:          0
cpu0_ITLB PREFETCH  ACCESS:          0  HIT:          0  MISS:          0
cpu0_ITLB WRITEBACK ACCESS:          0  HIT:          0  MISS:          0
cpu0_STLB TOTAL     ACCESS:    4134714  HIT:    3901642  MISS:     233072
cpu0_STLB LOAD      ACCESS:    4097903  HIT:    3866310  MISS:     231593
cpu0_STLB RFO       ACCESS:      36811  HIT:      35332  MISS:       1479
cpu0_STLB PREFETCH  ACCESS:          0  HIT:          0  MISS:          0
cpu0_STLB WRITEBACK ACCESS:          0  HIT:          0  MISS:          0
cpu0_L1D TOTAL     ACCESS:    8071776  HIT:    3539040  MISS:    4532736
cpu0_L1D LOAD      ACCESS:    7219095  HIT:    2761351  MISS:    4457744
cpu0_L1D RFO       ACCESS:     620252  HIT:     588332  MISS:      31920
cpu0_L1D PREFETCH  ACCESS:          0  HIT:          0  MISS:          0
cpu0_L1D WRITEBACK ACCESS:          0  HIT:          0  MISS:          0
cpu0_L2C TOTAL     ACCESS:    4854490  HIT:    1564618  MISS:    3289872
cpu0_L2C LOAD      ACCESS:    4457718  HIT:    1209870  MISS:    3247848
cpu0_L2C RFO       ACCESS:      31920  HIT:      10600  MISS:      21320
cpu0_L2C PREFETCH  ACCESS:          0  HIT:          0  MISS:          0
cpu0_L2C WRITEBACK ACCESS:     321780  HIT:     321775  MISS:          5
LLC TOTAL     ACCESS:    3540108  HIT:    1320879  MISS:    2219229
LLC LOAD      ACCESS:    3247848  HIT:    1048599  MISS:    2199249
LLC RFO       ACCESS:      21320  HIT:       6564  MISS:      14756
LLC PREFETCH  ACCESS:          0  HIT:          0  MISS:          0
LLC WRITEBACK ACCESS:     250241  HIT:     245234  MISS:       5007
Heartbeat CPU 0 instructions: 86000000 cycles: 463218564 heartbeat IPC: 0.115491 cumulative IPC: 0.0804399 (Simulation time: 2 hr 7 min 26 sec) 

Region of Interest Statistics
cpu0_DTLB TOTAL     ACCESS:    7836085  HIT:    3500082  MISS:    4336003
cpu0_DTLB LOAD      ACCESS:    7350219  HIT:    3059433  MISS:    4290786
cpu0_DTLB RFO       ACCESS:     485866  HIT:     440649  MISS:      45217
cpu0_DTLB PREFETCH  ACCESS:          0  HIT:          0  MISS:          0
cpu0_DTLB WRITEBACK ACCESS:          0  HIT:          0  MISS:          0
cpu0_ITLB TOTAL     ACCESS:    4237311  HIT:    4237311  MISS:          0
cpu0_ITLB LOAD      ACCESS:    4237311  HIT:    4237311  MISS:          0
cpu0_ITLB RFO       ACCESS:          0  HIT:          0  MISS:          0
cpu0_ITLB PREFETCH  ACCESS:          0  HIT:          0  MISS:          0
cpu0_ITLB WRITEBACK ACCESS:          0  HIT:          0  MISS:          0
cpu0_STLB TOTAL     ACCESS:    4336003  HIT:    4099056  MISS:     236947
cpu0_STLB LOAD      ACCESS:    4290786  HIT:    4055476  MISS:     235310
cpu0_STLB RFO       ACCESS:      45217  HIT:      43580  MISS:       1637
cpu0_STLB PREFETCH  ACCESS:          0  HIT:          0  MISS:          0
cpu0_STLB WRITEBACK ACCESS:          0  HIT:          0  MISS:          0
cpu0_L1D TOTAL     ACCESS:    8578670  HIT:    3824104  MISS:    4754566
cpu0_L1D LOAD      ACCESS:    7651216  HIT:    2974046  MISS:    4677170
cpu0_L1D RFO       ACCESS:     691151  HIT:     657919  MISS:      33232
cpu0_L1D PREFETCH  ACCESS:          0  HIT:          0  MISS:          0
cpu0_L1D WRITEBACK ACCESS:          0  HIT:          0  MISS:          0
cpu0_L2C TOTAL     ACCESS:    5095956  HIT:    1676343  MISS:    3419613
cpu0_L2C LOAD      ACCESS:    4677124  HIT:    1300851  MISS:    3376273
cpu0_L2C RFO       ACCESS:      33232  HIT:      11517  MISS:      21715
cpu0_L2C PREFETCH  ACCESS:          0  HIT:          0  MISS:          0
cpu0_L2C WRITEBACK ACCESS:     341436  HIT:     341425  MISS:         11
LLC TOTAL     ACCESS:    3673454  HIT:    1368906  MISS:    2304548
LLC LOAD      ACCESS:    3376273  HIT:    1092126  MISS:    2284147
LLC RFO       ACCESS:      21715  HIT:       6674  MISS:      15041
LLC PREFETCH  ACCESS:          0  HIT:          0  MISS:          0
LLC WRITEBACK ACCESS:     253852  HIT:     248729  MISS:       5123
Heartbeat CPU 0 instructions: 88000000 cycles: 492829059 heartbeat IPC: 0.0675436 cumulative IPC: 0.0796396 (Simulation time: 2 hr 12 min 51 sec) 

Region of Interest Statistics
cpu0_DTLB TOTAL     ACCESS:    8313316  HIT:    3809597  MISS:    4503719
cpu0_DTLB LOAD      ACCESS:    7757845  HIT:    3304614  MISS:    4453231
cpu0_DTLB RFO       ACCESS:     555471  HIT:     504983  MISS:      50488
cpu0_DTLB PREFETCH  ACCESS:          0  HIT:          0  MISS:          0
cpu0_DTLB WRITEBACK ACCESS:          0  HIT:          0  MISS:          0
cpu0_ITLB TOTAL     ACCESS:    4516289  HIT:    4516289  MISS:          0
cpu0_ITLB LOAD      ACCESS:    4516289  HIT:    4516289  MISS:          0
cpu0_ITLB RFO       ACCESS:          0  HIT:          0  MISS:          0
cpu0_ITLB PREFETCH  ACCESS:          0  HIT:          0  MISS:          0
cpu0_ITLB WRITEBACK ACCESS:          0  HIT:          0  MISS:          0
cpu0_STLB TOTAL     ACCESS:    4503719  HIT:    4232953  MISS:     270766
cpu0_STLB LOAD      ACCESS:    4453231  HIT:    4184202  MISS:     269029
cpu0_STLB RFO       ACCESS:      50488  HIT:      48751  MISS:       1737
cpu0_STLB PREFETCH  ACCESS:          0  HIT:          0  MISS:          0
cpu0_STLB WRITEBACK ACCESS:          0  HIT:          0  MISS:          0
cpu0_L1D TOTAL     ACCESS:    9145890  HIT:    4143663  MISS:    5002227
cpu0_L1D LOAD      ACCESS:    8097703  HIT:    3183540  MISS:    4914163
cpu0_L1D RFO       ACCESS:     778081  HIT:     738876  MISS:      39205
cpu0_L1D PREFETCH  ACCESS:          0  HIT:          0  MISS:          0
cpu0_L1D WRITEBACK ACCESS:          0  HIT:          0  MISS:          0
cpu0_L2C TOTAL     ACCESS:    5400064  HIT:    1789478  MISS:    3610586
cpu0_L2C LOAD      ACCESS:    4914117  HIT:    1351994  MISS:    3562123
cpu0_L2C RFO       ACCESS:      39205  HIT:      13206  MISS:      25999
cpu0_L2C PREFETCH  ACCESS:          0  HIT:          0  MISS:          0
cpu0_L2C WRITEBACK ACCESS:     397883  HIT:     397870  MISS:         13
LLC TOTAL     ACCESS:    3909122  HIT:    1446430  MISS:    2462692
LLC LOAD      ACCESS:    3562123  HIT:    1123891  MISS:    2438232
LLC RFO       ACCESS:      25999  HIT:       7899  MISS:      18100
LLC PREFETCH  ACCESS:          0  HIT:          0  MISS:          0
LLC WRITEBACK ACCESS:     298549  HIT:     292439  MISS:       6110
Heartbeat CPU 0 instructions: 90000000 cycles: 512452183 heartbeat IPC: 0.101921 cumulative IPC: 0.0805197 (Simulation time: 2 hr 17 min 4 sec) 

Region of Interest Statistics
cpu0_DTLB TOTAL     ACCESS:    8741970  HIT:    4035911  MISS:    4706059
cpu0_DTLB LOAD      ACCESS:    8143801  HIT:    3496606  MISS:    4647195
cpu0_DTLB RFO       ACCESS:     598169  HIT:     539305  MISS:      58864
cpu0_DTLB PREFETCH  ACCESS:          0  HIT:          0  MISS:          0
cpu0_DTLB WRITEBACK ACCESS:          0  HIT:          0  MISS:          0
cpu0_ITLB TOTAL     ACCESS:    4739809  HIT:    4739809  MISS:          0
cpu0_ITLB LOAD      ACCESS:    4739809  HIT:    4739809  MISS:          0
cpu0_ITLB RFO       ACCESS:          0  HIT:          0  MISS:          0
cpu0_ITLB PREFETCH  ACCESS:          0  HIT:          0  MISS:          0
cpu0_ITLB WRITEBACK ACCESS:          0  HIT:          0  MISS:          0
cpu0_STLB TOTAL     ACCESS:    4706059  HIT:    4427768  MISS:     278291
cpu0_STLB LOAD      ACCESS:    4647195  HIT:    4370779  MISS:     276416
cpu0_STLB RFO       ACCESS:      58864  HIT:      56989  MISS:       1875
cpu0_STLB PREFETCH  ACCESS:          0  HIT:          0  MISS:          0
cpu0_STLB WRITEBACK ACCESS:          0  HIT:          0  MISS:          0
cpu0_L1D TOTAL     ACCESS:    9654309  HIT:    4423582  MISS:    5230727
cpu0_L1D LOAD      ACCESS:    8529027  HIT:    3389590  MISS:    5139437
cpu0_L1D RFO       ACCESS:     847771  HIT:     806870  MISS:      40901
cpu0_L1D PREFETCH  ACCESS:          0  HIT:          0  MISS:          0
cpu0_L1D WRITEBACK ACCESS:          0  HIT:          0  MISS:          0
cpu0_L2C TOTAL     ACCESS:    5651446  HIT:    1897786  MISS:    3753660
cpu0_L2C LOAD      ACCESS:    5139382  HIT:    1435870  MISS:    3703512
cpu0_L2C RFO       ACCESS:      40901  HIT:      14144  MISS:      26757
cpu0_L2C PREFETCH  ACCESS:          0  HIT:          0  MISS:          0
cpu0_L2C WRITEBACK ACCESS:     420774  HIT:     420761  MISS:         13
LLC TOTAL     ACCESS:    4063536  HIT:    1501736  MISS:    2561800
LLC LOAD      ACCESS:    3703512  HIT:    1166967  MISS:    2536545
LLC RFO       ACCESS:      26757  HIT:       8047  MISS:      18710
LLC PREFETCH  ACCESS:          0  HIT:          0  MISS:          0
LLC WRITEBACK ACCESS:     309889  HIT:     303628  MISS:       6261
Heartbeat CPU 0 instructions: 92000000 cycles: 533598109 heartbeat IPC: 0.0945809 cumulative IPC: 0.0810938 (Simulation time: 2 hr 21 min 24 sec) 

Region of Interest Statistics
cpu0_DTLB TOTAL     ACCESS:    9174119  HIT:    4257786  MISS:    4916333
cpu0_DTLB LOAD      ACCESS:    8534197  HIT:    3682479  MISS:    4851718
cpu0_DTLB RFO       ACCESS:     639922  HIT:     575307  MISS:      64615
cpu0_DTLB PREFETCH  ACCESS:          0  HIT:          0  MISS:          0
cpu0_DTLB WRITEBACK ACCESS:          0  HIT:          0  MISS:          0
cpu0_ITLB TOTAL     ACCESS:    4970900  HIT:    4970900  MISS:          0
cpu0_ITLB LOAD      ACCESS:    4970900  HIT:    4970900  MISS:          0
cpu0_ITLB RFO       ACCESS:          0  HIT:          0  MISS:          0
cpu0_ITLB PREFETCH  ACCESS:          0  HIT:          0  MISS:          0
cpu0_ITLB WRITEBACK ACCESS:          0  HIT:          0  MISS:          0
cpu0_STLB TOTAL     ACCESS:    4916334  HIT:    4627209  MISS:     289125
cpu0_STLB LOAD      ACCESS:    4851719  HIT:    4564613  MISS:     287106
cpu0_STLB RFO       ACCESS:      64615  HIT:      62596  MISS:       2019
cpu0_STLB PREFETCH  ACCESS:          0  HIT:          0  MISS:          0
cpu0_STLB WRITEBACK ACCESS:          0  HIT:          0  MISS:          0
cpu0_L1D TOTAL     ACCESS:   10155247  HIT:    4681052  MISS:    5474195
cpu0_L1D LOAD      ACCESS:    8956278  HIT:    3577439  MISS:    5378839
cpu0_L1D RFO       ACCESS:     910630  HIT:     867623  MISS:      43007
cpu0_L1D PREFETCH  ACCESS:          0  HIT:          0  MISS:          0
cpu0_L1D WRITEBACK ACCESS:          0  HIT:          0  MISS:          0
cpu0_L2C TOTAL     ACCESS:    5921814  HIT:    2001976  MISS:    3919838
cpu0_L2C LOAD      ACCESS:    5378779  HIT:    1511303  MISS:    3867476
cpu0_L2C RFO       ACCESS:      43007  HIT:      15106  MISS:      27901
cpu0_L2C PREFETCH  ACCESS:          0  HIT:          0  MISS:          0
cpu0_L2C WRITEBACK ACCESS:     447679  HIT:     447666  MISS:         13
LLC TOTAL     ACCESS:    4243869  HIT:    1571795  MISS:    2672074
LLC LOAD      ACCESS:    3867474  HIT:    1221870  MISS:    2645604
LLC RFO       ACCESS:      27901  HIT:       8377  MISS:      19524
LLC PREFETCH  ACCESS:          0  HIT:          0  MISS:          0
LLC WRITEBACK ACCESS:     324046  HIT:     317384  MISS:       6662
Heartbeat CPU 0 instructions: 94000002 cycles: 565857091 heartbeat IPC: 0.0619983 cumulative IPC: 0.0799742 (Simulation time: 2 hr 27 min 35 sec) 

Region of Interest Statistics
cpu0_DTLB TOTAL     ACCESS:    9644992  HIT:    4535969  MISS:    5109023
cpu0_DTLB LOAD      ACCESS:    8948599  HIT:    3906825  MISS:    5041774
cpu0_DTLB RFO       ACCESS:     696393  HIT:     629144  MISS:      67249
cpu0_DTLB PREFETCH  ACCESS:          0  HIT:          0  MISS:          0
cpu0_DTLB WRITEBACK ACCESS:          0  HIT:          0  MISS:          0
cpu0_ITLB TOTAL     ACCESS:    5244512  HIT:    5244512  MISS:          0
cpu0_ITLB LOAD      ACCESS:    5244512  HIT:    5244512  MISS:          0
cpu0_ITLB RFO       ACCESS:          0  HIT:          0  MISS:          0
cpu0_ITLB PREFETCH  ACCESS:          0  HIT:          0  MISS:          0
cpu0_ITLB WRITEBACK ACCESS:          0  HIT:          0  MISS:          0
cpu0_STLB TOTAL     ACCESS:    5109023  HIT:    4788081  MISS:     320942
cpu0_STLB LOAD      ACCESS:    5041774  HIT:    4722935  MISS:     318839
cpu0_STLB RFO       ACCESS:      67249  HIT:      65146  MISS:       2103
cpu0_STLB PREFETCH  ACCESS:          0  HIT:          0  MISS:          0
cpu0_STLB WRITEBACK ACCESS:          0  HIT:          0  MISS:          0
cpu0_L1D TOTAL     ACCESS:   10693947  HIT:    4958286  MISS:    5735661
cpu0_L1D LOAD      ACCESS:    9394472  HIT:    3763921  MISS:    5630551
cpu0_L1D RFO       ACCESS:     979445  HIT:     931230  MISS:      48215
cpu0_L1D PREFETCH  ACCESS:          0  HIT:          0  MISS:          0
cpu0_L1D WRITEBACK ACCESS:          0  HIT:          0  MISS:          0
cpu0_L2C TOTAL     ACCESS:    6231203  HIT:    2104163  MISS:    4127040
cpu0_L2C LOAD      ACCESS:    5630488  HIT:    1560579  MISS:    4069909
cpu0_L2C RFO       ACCESS:      48215  HIT:      16504  MISS:      31711
cpu0_L2C PREFETCH  ACCESS:          0  HIT:          0  MISS:          0
cpu0_L2C WRITEBACK ACCESS:     495605  HIT:     495592  MISS:         13
LLC TOTAL     ACCESS:    4496135  HIT:    1652904  MISS:    2843231
LLC LOAD      ACCESS:    4069907  HIT:    1256544  MISS:    2813363
LLC RFO       ACCESS:      31711  HIT:       9457  MISS:      22254
LLC PREFETCH  ACCESS:          0  HIT:          0  MISS:          0
LLC WRITEBACK ACCESS:     369110  HIT:     361828  MISS:       7282
Heartbeat CPU 0 instructions: 96000001 cycles: 584766602 heartbeat IPC: 0.105767 cumulative IPC: 0.0808312 (Simulation time: 2 hr 31 min 52 sec) 

Region of Interest Statistics
cpu0_DTLB TOTAL     ACCESS:   10066556  HIT:    4734311  MISS:    5332245
cpu0_DTLB LOAD      ACCESS:    9338164  HIT:    4077989  MISS:    5260175
cpu0_DTLB RFO       ACCESS:     728392  HIT:     656322  MISS:      72070
cpu0_DTLB PREFETCH  ACCESS:          0  HIT:          0  MISS:          0
cpu0_DTLB WRITEBACK ACCESS:          0  HIT:          0  MISS:          0
cpu0_ITLB TOTAL     ACCESS:    5462966  HIT:    5462966  MISS:          0
cpu0_ITLB LOAD      ACCESS:    5462966  HIT:    5462966  MISS:          0
cpu0_ITLB RFO       ACCESS:          0  HIT:          0  MISS:          0
cpu0_ITLB PREFETCH  ACCESS:          0  HIT:          0  MISS:          0
cpu0_ITLB WRITEBACK ACCESS:          0  HIT:          0  MISS:          0
cpu0_STLB TOTAL     ACCESS:    5332245  HIT:    5006139  MISS:     326106
cpu0_STLB LOAD      ACCESS:    5260175  HIT:    4936310  MISS:     323865
cpu0_STLB RFO       ACCESS:      72070  HIT:      69829  MISS:       2241
cpu0_STLB PREFETCH  ACCESS:          0  HIT:          0  MISS:          0
cpu0_STLB WRITEBACK ACCESS:          0  HIT:          0  MISS:          0
cpu0_L1D TOTAL     ACCESS:   11177624  HIT:    5203331  MISS:    5974293
cpu0_L1D LOAD      ACCESS:    9817447  HIT:    3950689  MISS:    5866758
cpu0_L1D RFO       ACCESS:    1034985  HIT:     985702  MISS:      49283
cpu0_L1D PREFETCH  ACCESS:          0  HIT:          0  MISS:          0
cpu0_L1D WRITEBACK ACCESS:          0  HIT:          0  MISS:          0
cpu0_L2C TOTAL     ACCESS:    6485092  HIT:    2203930  MISS:    4281162
cpu0_L2C LOAD      ACCESS:    5866690  HIT:    1644035  MISS:    4222655
cpu0_L2C RFO       ACCESS:      49283  HIT:      17255  MISS:      32028
cpu0_L2C PREFETCH  ACCESS:          0  HIT:          0  MISS:          0
cpu0_L2C WRITEBACK ACCESS:     510867  HIT:     510854  MISS:         13
LLC TOTAL     ACCESS:    4654934  HIT:    1718136  MISS:    2936798
LLC LOAD      ACCESS:    4222653  HIT:    1316012  MISS:    2906641
LLC RFO       ACCESS:      32028  HIT:       9551  MISS:      22477
LLC PREFETCH  ACCESS:          0  HIT:          0  MISS:          0
LLC WRITEBACK ACCESS:     373787  HIT:     366439  MISS:       7348
Heartbeat CPU 0 instructions: 98000000 cycles: 616696611 heartbeat IPC: 0.062637 cumulative IPC: 0.0798646 (Simulation time: 2 hr 37 min 36 sec) 

Region of Interest Statistics
cpu0_DTLB TOTAL     ACCESS:   10549405  HIT:    5050454  MISS:    5498951
cpu0_DTLB LOAD      ACCESS:    9750235  HIT:    4326704  MISS:    5423531
cpu0_DTLB RFO       ACCESS:     799170  HIT:     723750  MISS:      75420
cpu0_DTLB PREFETCH  ACCESS:          0  HIT:          0  MISS:          0
cpu0_DTLB WRITEBACK ACCESS:          0  HIT:          0  MISS:          0
cpu0_ITLB TOTAL     ACCESS:    5746646  HIT:    5746646  MISS:          0
cpu0_ITLB LOAD      ACCESS:    5746646  HIT:    5746646  MISS:          0
cpu0_ITLB RFO       ACCESS:          0  HIT:          0  MISS:          0
cpu0_ITLB PREFETCH  ACCESS:          0  HIT:          0  MISS:          0
cpu0_ITLB WRITEBACK ACCESS:          0  HIT:          0  MISS:          0
cpu0_STLB TOTAL     ACCESS:    5498951  HIT:    5135263  MISS:     363688
cpu0_STLB LOAD      ACCESS:    5423531  HIT:    5062178  MISS:     361353
cpu0_STLB RFO       ACCESS:      75420  HIT:      73085  MISS:       2335
cpu0_STLB PREFETCH  ACCESS:          0  HIT:          0  MISS:          0
cpu0_STLB WRITEBACK ACCESS:          0  HIT:          0  MISS:          0
cpu0_L1D TOTAL     ACCESS:   11743855  HIT:    5517682  MISS:    6226173
cpu0_L1D LOAD      ACCESS:   10260047  HIT:    4152944  MISS:    6107103
cpu0_L1D RFO       ACCESS:    1121156  HIT:    1065404  MISS:      55752
cpu0_L1D PREFETCH  ACCESS:          0  HIT:          0  MISS:          0
cpu0_L1D WRITEBACK ACCESS:          0  HIT:          0  MISS:          0
cpu0_L2C TOTAL     ACCESS:    6796040  HIT:    2312497  MISS:    4483543
cpu0_L2C LOAD      ACCESS:    6107030  HIT:    1687501  MISS:    4419529
cpu0_L2C RFO       ACCESS:      55752  HIT:      19041  MISS:      36711
cpu0_L2C PREFETCH  ACCESS:          0  HIT:          0  MISS:          0
cpu0_L2C WRITEBACK ACCESS:     569940  HIT:     569926  MISS:         14
LLC TOTAL     ACCESS:    4909530  HIT:    1801387  MISS:    3108143
LLC LOAD      ACCESS:    4419527  HIT:    1345811  MISS:    3073716
LLC RFO       ACCESS:      36711  HIT:      10846  MISS:      25865
LLC PREFETCH  ACCESS:          0  HIT:          0  MISS:          0
LLC WRITEBACK ACCESS:     426003  HIT:     417815  MISS:       8188
Heartbeat CPU 0 instructions: 100000003 cycles: 633456538 heartbeat IPC: 0.119332 cumulative IPC: 0.0809354 (Simulation time: 2 hr 41 min 28 sec) 

Region of Interest Statistics
cpu0_DTLB TOTAL     ACCESS:   10973769  HIT:    5284066  MISS:    5689703
cpu0_DTLB LOAD      ACCESS:   10128136  HIT:    4522175  MISS:    5605961
cpu0_DTLB RFO       ACCESS:     845633  HIT:     761891  MISS:      83742
cpu0_DTLB PREFETCH  ACCESS:          0  HIT:          0  MISS:          0
cpu0_DTLB WRITEBACK ACCESS:          0  HIT:          0  MISS:          0
cpu0_ITLB TOTAL     ACCESS:    5964931  HIT:    5964931  MISS:          0
cpu0_ITLB LOAD      ACCESS:    5964931  HIT:    5964931  MISS:          0
cpu0_ITLB RFO       ACCESS:          0  HIT:          0  MISS:          0
cpu0_ITLB PREFETCH  ACCESS:          0  HIT:          0  MISS:          0
cpu0_ITLB WRITEBACK ACCESS:          0  HIT:          0  MISS:          0
cpu0_STLB TOTAL     ACCESS:    5689703  HIT:    5321917  MISS:     367786
cpu0_STLB LOAD      ACCESS:    5605961  HIT:    5240693  MISS:     365268
cpu0_STLB RFO       ACCESS:      83742  HIT:      81224  MISS:       2518
cpu0_STLB PREFETCH  ACCESS:          0  HIT:          0  MISS:          0
cpu0_STLB WRITEBACK ACCESS:          0  HIT:          0  MISS:          0
cpu0_L1D TOTAL     ACCESS:   12254678  HIT:    5814931  MISS:    6439747
cpu0_L1D LOAD      ACCESS:   10687055  HIT:    4368976  MISS:    6318079
cpu0_L1D RFO       ACCESS:    1200873  HIT:    1143611  MISS:      57262
cpu0_L1D PREFETCH  ACCESS:          0  HIT:          0  MISS:          0
cpu0_L1D WRITEBACK ACCESS:          0  HIT:          0  MISS:          0
cpu0_L2C TOTAL     ACCESS:    7031316  HIT:    2421713  MISS:    4609603
cpu0_L2C LOAD      ACCESS:    6317993  HIT:    1773734  MISS:    4544259
cpu0_L2C RFO       ACCESS:      57261  HIT:      20113  MISS:      37148
cpu0_L2C PREFETCH  ACCESS:          0  HIT:          0  MISS:          0
cpu0_L2C WRITEBACK ACCESS:     591656  HIT:     591641  MISS:         15
LLC TOTAL     ACCESS:    5040635  HIT:    1850158  MISS:    3190477
LLC LOAD      ACCESS:    4544257  HIT:    1388706  MISS:    3155551
LLC RFO       ACCESS:      37148  HIT:      10957  MISS:      26191
LLC PREFETCH  ACCESS:          0  HIT:          0  MISS:          0
LLC WRITEBACK ACCESS:     431049  HIT:     422713  MISS:       8336
Heartbeat CPU 0 instructions: 102000001 cycles: 664854583 heartbeat IPC: 0.0636982 cumulative IPC: 0.0801017 (Simulation time: 2 hr 47 min 22 sec) 

Region of Interest Statistics
cpu0_DTLB TOTAL     ACCESS:   11454666  HIT:    5610787  MISS:    5843879
cpu0_DTLB LOAD      ACCESS:   10532631  HIT:    4775937  MISS:    5756694
cpu0_DTLB RFO       ACCESS:     922035  HIT:     834850  MISS:      87185
cpu0_DTLB PREFETCH  ACCESS:          0  HIT:          0  MISS:          0
cpu0_DTLB WRITEBACK ACCESS:          0  HIT:          0  MISS:          0
cpu0_ITLB TOTAL     ACCESS:    6248693  HIT:    6248693  MISS:          0
cpu0_ITLB LOAD      ACCESS:    6248693  HIT:    6248693  MISS:          0
cpu0_ITLB RFO       ACCESS:          0  HIT:          0  MISS:          0
cpu0_ITLB PREFETCH  ACCESS:          0  HIT:          0  MISS:          0
cpu0_ITLB WRITEBACK ACCESS:          0  HIT:          0  MISS:          0
cpu0_STLB TOTAL     ACCESS:    5843879  HIT:    5439056  MISS:     404823
cpu0_STLB LOAD      ACCESS:    5756694  HIT:    5354502  MISS:     402192
cpu0_STLB RFO       ACCESS:      87185  HIT:      84554  MISS:       2631
cpu0_STLB PREFETCH  ACCESS:          0  HIT:          0  MISS:          0
cpu0_STLB WRITEBACK ACCESS:          0  HIT:          0  MISS:          0
cpu0_L1D TOTAL     ACCESS:   12824715  HIT:    6147982  MISS:    6676733
cpu0_L1D LOAD      ACCESS:   11123360  HIT:    4580133  MISS:    6543227
cpu0_L1D RFO       ACCESS:    1297671  HIT:    1233618  MISS:      64053
cpu0_L1D PREFETCH  ACCESS:          0  HIT:          0  MISS:          0
cpu0_L1D WRITEBACK ACCESS:          0  HIT:          0  MISS:          0
cpu0_L2C TOTAL     ACCESS:    7327190  HIT:    2524479  MISS:    4802711
cpu0_L2C LOAD      ACCESS:    6543133  HIT:    1811272  MISS:    4731861
cpu0_L2C RFO       ACCESS:      64052  HIT:      22148  MISS:      41904
cpu0_L2C PREFETCH  ACCESS:          0  HIT:          0  MISS:          0
cpu0_L2C WRITEBACK ACCESS:     650552  HIT:     650535  MISS:         17
LLC TOTAL     ACCESS:    5287546  HIT:    1928884  MISS:    3358662
LLC LOAD      ACCESS:    4731859  HIT:    1412889  MISS:    3318970
LLC RFO       ACCESS:      41904  HIT:      12270  MISS:      29634
LLC PREFETCH  ACCESS:          0  HIT:          0  MISS:          0
LLC WRITEBACK ACCESS:     484854  HIT:     475232  MISS:       9622
Heartbeat CPU 0 instructions: 104000000 cycles: 679692627 heartbeat IPC: 0.134789 cumulative IPC: 0.0813237 (Simulation time: 2 hr 50 min 58 sec) 

Region of Interest Statistics
cpu0_DTLB TOTAL     ACCESS:   11876394  HIT:    5857856  MISS:    6018538
cpu0_DTLB LOAD      ACCESS:   10901963  HIT:    4975809  MISS:    5926154
cpu0_DTLB RFO       ACCESS:     974431  HIT:     882047  MISS:      92384
cpu0_DTLB PREFETCH  ACCESS:          0  HIT:          0  MISS:          0
cpu0_DTLB WRITEBACK ACCESS:          0  HIT:          0  MISS:          0
cpu0_ITLB TOTAL     ACCESS:    6464714  HIT:    6464714  MISS:          0
cpu0_ITLB LOAD      ACCESS:    6464714  HIT:    6464714  MISS:          0
cpu0_ITLB RFO       ACCESS:          0  HIT:          0  MISS:          0
cpu0_ITLB PREFETCH  ACCESS:          0  HIT:          0  MISS:          0
cpu0_ITLB WRITEBACK ACCESS:          0  HIT:          0  MISS:          0
cpu0_STLB TOTAL     ACCESS:    6018538  HIT:    5609788  MISS:     408750
cpu0_STLB LOAD      ACCESS:    5926154  HIT:    5520218  MISS:     405936
cpu0_STLB RFO       ACCESS:      92384  HIT:      89570  MISS:       2814
cpu0_STLB PREFETCH  ACCESS:          0  HIT:          0  MISS:          0
cpu0_STLB WRITEBACK ACCESS:          0  HIT:          0  MISS:          0
cpu0_L1D TOTAL     ACCESS:   13336320  HIT:    6472300  MISS:    6864020
cpu0_L1D LOAD      ACCESS:   11537302  HIT:    4809879  MISS:    6727423
cpu0_L1D RFO       ACCESS:    1391407  HIT:    1325291  MISS:      66116
cpu0_L1D PREFETCH  ACCESS:          0  HIT:          0  MISS:          0
cpu0_L1D WRITEBACK ACCESS:          0  HIT:          0  MISS:          0
cpu0_L2C TOTAL     ACCESS:    7531206  HIT:    2617741  MISS:    4913465
cpu0_L2C LOAD      ACCESS:    6727318  HIT:    1886136  MISS:    4841182
cpu0_L2C RFO       ACCESS:      66115  HIT:      23563  MISS:      42552
cpu0_L2C PREFETCH  ACCESS:          0  HIT:          0  MISS:          0
cpu0_L2C WRITEBACK ACCESS:     667292  HIT:     667265  MISS:         27
LLC TOTAL     ACCESS:    5402218  HIT:    1971421  MISS:    3430797
LLC LOAD      ACCESS:    4841179  HIT:    1450701  MISS:    3390478
LLC RFO       ACCESS:      42552  HIT:      12443  MISS:      30109
LLC PREFETCH  ACCESS:          0  HIT:          0  MISS:          0
LLC WRITEBACK ACCESS:     488783  HIT:     479016  MISS:       9767
Heartbeat CPU 0 instructions: 106000000 cycles: 710867658 heartbeat IPC: 0.0641539 cumulative IPC: 0.0805537 (Simulation time: 2 hr 56 min 59 sec) 

Region of Interest Statistics
cpu0_DTLB TOTAL     ACCESS:   12356483  HIT:    6183585  MISS:    6172898
cpu0_DTLB LOAD      ACCESS:   11307309  HIT:    5229349  MISS:    6077960
cpu0_DTLB RFO       ACCESS:    1049174  HIT:     954236  MISS:      94938
cpu0_DTLB PREFETCH  ACCESS:          0  HIT:          0  MISS:          0
cpu0_DTLB WRITEBACK ACCESS:          0  HIT:          0  MISS:          0
cpu0_ITLB TOTAL     ACCESS:    6746633  HIT:    6746633  MISS:          0
cpu0_ITLB LOAD      ACCESS:    6746633  HIT:    6746633  MISS:          0
cpu0_ITLB RFO       ACCESS:          0  HIT:          0  MISS:          0
cpu0_ITLB PREFETCH  ACCESS:          0  HIT:          0  MISS:          0
cpu0_ITLB WRITEBACK ACCESS:          0  HIT:          0  MISS:          0
cpu0_STLB TOTAL     ACCESS:    6172898  HIT:    5727852  MISS:     445046
cpu0_STLB LOAD      ACCESS:    6077960  HIT:    5635840  MISS:     442120
cpu0_STLB RFO       ACCESS:      94938  HIT:      92012  MISS:       2926
cpu0_STLB PREFETCH  ACCESS:          0  HIT:          0  MISS:          0
cpu0_STLB WRITEBACK ACCESS:          0  HIT:          0  MISS:          0
cpu0_L1D TOTAL     ACCESS:   13904146  HIT:    6805939  MISS:    7098207
cpu0_L1D LOAD      ACCESS:   11972686  HIT:    5022733  MISS:    6949953
cpu0_L1D RFO       ACCESS:    1487660  HIT:    1414893  MISS:      72767
cpu0_L1D PREFETCH  ACCESS:          0  HIT:          0  MISS:          0
cpu0_L1D WRITEBACK ACCESS:          0  HIT:          0  MISS:          0
cpu0_L2C TOTAL     ACCESS:    7822084  HIT:    2719063  MISS:    5103021
cpu0_L2C LOAD      ACCESS:    6949845  HIT:    1924538  MISS:    5025307
cpu0_L2C RFO       ACCESS:      72765  HIT:      25534  MISS:      47231
cpu0_L2C PREFETCH  ACCESS:          0  HIT:          0  MISS:          0
cpu0_L2C WRITEBACK ACCESS:     723987  HIT:     723956  MISS:         31
LLC TOTAL     ACCESS:    5643305  HIT:    2045166  MISS:    3598139
LLC LOAD      ACCESS:    5025304  HIT:    1471950  MISS:    3553354
LLC RFO       ACCESS:      47231  HIT:      13685  MISS:      33546
LLC PREFETCH  ACCESS:          0  HIT:          0  MISS:          0
LLC WRITEBACK ACCESS:     540318  HIT:     529578  MISS:      10740
Heartbeat CPU 0 instructions: 108000002 cycles: 735210547 heartbeat IPC: 0.0821596 cumulative IPC: 0.0806081 (Simulation time: 3 hr 2 min 1 sec) 

Region of Interest Statistics
cpu0_DTLB TOTAL     ACCESS:   12816704  HIT:    6479399  MISS:    6337305
cpu0_DTLB LOAD      ACCESS:   11702294  HIT:    5463253  MISS:    6239041
cpu0_DTLB RFO       ACCESS:    1114410  HIT:    1016146  MISS:      98264
cpu0_DTLB PREFETCH  ACCESS:          0  HIT:          0  MISS:          0
cpu0_DTLB WRITEBACK ACCESS:          0  HIT:          0  MISS:          0
cpu0_ITLB TOTAL     ACCESS:    7006067  HIT:    7006067  MISS:          0
cpu0_ITLB LOAD      ACCESS:    7006067  HIT:    7006067  MISS:          0
cpu0_ITLB RFO       ACCESS:          0  HIT:          0  MISS:          0
cpu0_ITLB PREFETCH  ACCESS:          0  HIT:          0  MISS:          0
cpu0_ITLB WRITEBACK ACCESS:          0  HIT:          0  MISS:          0
cpu0_STLB TOTAL     ACCESS:    6337305  HIT:    5867595  MISS:     469710
cpu0_STLB LOAD      ACCESS:    6239041  HIT:    5772392  MISS:     466649
cpu0_STLB RFO       ACCESS:      98264  HIT:      95203  MISS:       3061
cpu0_STLB PREFETCH  ACCESS:          0  HIT:          0  MISS:          0
cpu0_STLB WRITEBACK ACCESS:          0  HIT:          0  MISS:          0
cpu0_L1D TOTAL     ACCESS:   14450615  HIT:    7133892  MISS:    7316723
cpu0_L1D LOAD      ACCESS:   12400961  HIT:    5240909  MISS:    7160052
cpu0_L1D RFO       ACCESS:    1581196  HIT:    1503412  MISS:      77784
cpu0_L1D PREFETCH  ACCESS:          0  HIT:          0  MISS:          0
cpu0_L1D WRITEBACK ACCESS:          0  HIT:          0  MISS:          0
cpu0_L2C TOTAL     ACCESS:    8082511  HIT:    2817038  MISS:    5265473
cpu0_L2C LOAD      ACCESS:    7159936  HIT:    1976224  MISS:    5183712
cpu0_L2C RFO       ACCESS:      77782  HIT:      27288  MISS:      50494
cpu0_L2C PREFETCH  ACCESS:          0  HIT:          0  MISS:          0
cpu0_L2C WRITEBACK ACCESS:     765906  HIT:     765868  MISS:         38
LLC TOTAL     ACCESS:    5837424  HIT:    2111084  MISS:    3726340
LLC LOAD      ACCESS:    5183709  HIT:    1505239  MISS:    3678470
LLC RFO       ACCESS:      50494  HIT:      14697  MISS:      35797
LLC PREFETCH  ACCESS:          0  HIT:          0  MISS:          0
LLC WRITEBACK ACCESS:     571992  HIT:     560420  MISS:      11572
Heartbeat CPU 0 instructions: 110000003 cycles: 756830071 heartbeat IPC: 0.092509 cumulative IPC: 0.0809552 (Simulation time: 3 hr 6 min 35 sec) 

Region of Interest Statistics
cpu0_DTLB TOTAL     ACCESS:   13260397  HIT:    6753981  MISS:    6506416
cpu0_DTLB LOAD      ACCESS:   12084907  HIT:    5683604  MISS:    6401303
cpu0_DTLB RFO       ACCESS:    1175490  HIT:    1070377  MISS:     105113
cpu0_DTLB PREFETCH  ACCESS:          0  HIT:          0  MISS:          0
cpu0_DTLB WRITEBACK ACCESS:          0  HIT:          0  MISS:          0
cpu0_ITLB TOTAL     ACCESS:    7246620  HIT:    7246620  MISS:          0
cpu0_ITLB LOAD      ACCESS:    7246620  HIT:    7246620  MISS:          0
cpu0_ITLB RFO       ACCESS:          0  HIT:          0  MISS:          0
cpu0_ITLB PREFETCH  ACCESS:          0  HIT:          0  MISS:          0
cpu0_ITLB WRITEBACK ACCESS:          0  HIT:          0  MISS:          0
cpu0_STLB TOTAL     ACCESS:    6506416  HIT:    6020902  MISS:     485514
cpu0_STLB LOAD      ACCESS:    6401303  HIT:    5919017  MISS:     482286
cpu0_STLB RFO       ACCESS:     105113  HIT:     101885  MISS:       3228
cpu0_STLB PREFETCH  ACCESS:          0  HIT:          0  MISS:          0
cpu0_STLB WRITEBACK ACCESS:          0  HIT:          0  MISS:          0
cpu0_L1D TOTAL     ACCESS:   14988047  HIT:    7461525  MISS:    7526522
cpu0_L1D LOAD      ACCESS:   12828331  HIT:    5464654  MISS:    7363677
cpu0_L1D RFO       ACCESS:    1675569  HIT:    1594185  MISS:      81384
cpu0_L1D PREFETCH  ACCESS:          0  HIT:          0  MISS:          0
cpu0_L1D WRITEBACK ACCESS:          0  HIT:          0  MISS:          0
cpu0_L2C TOTAL     ACCESS:    8326522  HIT:    2922045  MISS:    5404477
cpu0_L2C LOAD      ACCESS:    7363548  HIT:    2043590  MISS:    5319958
cpu0_L2C RFO       ACCESS:      81381  HIT:      28855  MISS:      52526
cpu0_L2C PREFETCH  ACCESS:          0  HIT:          0  MISS:          0
cpu0_L2C WRITEBACK ACCESS:     800132  HIT:     800086  MISS:         46
LLC TOTAL     ACCESS:    6000433  HIT:    2164100  MISS:    3836333
LLC LOAD      ACCESS:    5319955  HIT:    1533338  MISS:    3786617
LLC RFO       ACCESS:      52526  HIT:      15207  MISS:      37319
LLC PREFETCH  ACCESS:          0  HIT:          0  MISS:          0
LLC WRITEBACK ACCESS:     596005  HIT:     584152  MISS:      11853
Heartbeat CPU 0 instructions: 112000004 cycles: 788109828 heartbeat IPC: 0.0639391 cumulative IPC: 0.0802661 (Simulation time: 3 hr 12 min 20 sec) 

Region of Interest Statistics
cpu0_DTLB TOTAL     ACCESS:   13743052  HIT:    7079817  MISS:    6663235
cpu0_DTLB LOAD      ACCESS:   12491489  HIT:    5937608  MISS:    6553881
cpu0_DTLB RFO       ACCESS:    1251563  HIT:    1142209  MISS:     109354
cpu0_DTLB PREFETCH  ACCESS:          0  HIT:          0  MISS:          0
cpu0_DTLB WRITEBACK ACCESS:          0  HIT:          0  MISS:          0
cpu0_ITLB TOTAL     ACCESS:    7531440  HIT:    7531440  MISS:          0
cpu0_ITLB LOAD      ACCESS:    7531440  HIT:    7531440  MISS:          0
cpu0_ITLB RFO       ACCESS:          0  HIT:          0  MISS:          0
cpu0_ITLB PREFETCH  ACCESS:          0  HIT:          0  MISS:          0
cpu0_ITLB WRITEBACK ACCESS:          0  HIT:          0  MISS:          0
cpu0_STLB TOTAL     ACCESS:    6663236  HIT:    6140842  MISS:     522394
cpu0_STLB LOAD      ACCESS:    6553882  HIT:    6034835  MISS:     519047
cpu0_STLB RFO       ACCESS:     109354  HIT:     106007  MISS:       3347
cpu0_STLB PREFETCH  ACCESS:          0  HIT:          0  MISS:          0
cpu0_STLB WRITEBACK ACCESS:          0  HIT:          0  MISS:          0
cpu0_L1D TOTAL     ACCESS:   15559664  HIT:    7793635  MISS:    7766029
cpu0_L1D LOAD      ACCESS:   13267546  HIT:    5676121  MISS:    7591425
cpu0_L1D RFO       ACCESS:    1771195  HIT:    1683102  MISS:      88093
cpu0_L1D PREFETCH  ACCESS:          0  HIT:          0  MISS:          0
cpu0_L1D WRITEBACK ACCESS:          0  HIT:          0  MISS:          0
cpu0_L2C TOTAL     ACCESS:    8625852  HIT:    3028676  MISS:    5597176
cpu0_L2C LOAD      ACCESS:    7591287  HIT:    2084154  MISS:    5507133
cpu0_L2C RFO       ACCESS:      88090  HIT:      30789  MISS:      57301
cpu0_L2C PREFETCH  ACCESS:          0  HIT:          0  MISS:          0
cpu0_L2C WRITEBACK ACCESS:     859964  HIT:     859915  MISS:         49
LLC TOTAL     ACCESS:    6245963  HIT:    2242531  MISS:    4003432
LLC LOAD      ACCESS:    5507130  HIT:    1557938  MISS:    3949192
LLC RFO       ACCESS:      57301  HIT:      16522  MISS:      40779
LLC PREFETCH  ACCESS:          0  HIT:          0  MISS:          0
LLC WRITEBACK ACCESS:     648839  HIT:     635949  MISS:      12890
Heartbeat CPU 0 instructions: 114000003 cycles: 803450463 heartbeat IPC: 0.130373 cumulative IPC: 0.0812419 (Simulation time: 3 hr 16 min 5 sec) 

Region of Interest Statistics
cpu0_DTLB TOTAL     ACCESS:   14166427  HIT:    7322577  MISS:    6843850
cpu0_DTLB LOAD      ACCESS:   12865594  HIT:    6137250  MISS:    6728344
cpu0_DTLB RFO       ACCESS:    1300833  HIT:    1185327  MISS:     115506
cpu0_DTLB PREFETCH  ACCESS:          0  HIT:          0  MISS:          0
cpu0_DTLB WRITEBACK ACCESS:          0  HIT:          0  MISS:          0
cpu0_ITLB TOTAL     ACCESS:    7747792  HIT:    7747792  MISS:          0
cpu0_ITLB LOAD      ACCESS:    7747792  HIT:    7747792  MISS:          0
cpu0_ITLB RFO       ACCESS:          0  HIT:          0  MISS:          0
cpu0_ITLB PREFETCH  ACCESS:          0  HIT:          0  MISS:          0
cpu0_ITLB WRITEBACK ACCESS:          0  HIT:          0  MISS:          0
cpu0_STLB TOTAL     ACCESS:    6843850  HIT:    6318189  MISS:     525661
cpu0_STLB LOAD      ACCESS:    6728344  HIT:    6206209  MISS:     522135
cpu0_STLB RFO       ACCESS:     115506  HIT:     111980  MISS:       3526
cpu0_STLB PREFETCH  ACCESS:          0  HIT:          0  MISS:          0
cpu0_STLB WRITEBACK ACCESS:          0  HIT:          0  MISS:          0
cpu0_L1D TOTAL     ACCESS:   16070401  HIT:    8108890  MISS:    7961511
cpu0_L1D LOAD      ACCESS:   13686731  HIT:    5902443  MISS:    7784288
cpu0_L1D RFO       ACCESS:    1859480  HIT:    1769736  MISS:      89744
cpu0_L1D PREFETCH  ACCESS:          0  HIT:          0  MISS:          0
cpu0_L1D WRITEBACK ACCESS:          0  HIT:          0  MISS:          0
cpu0_L2C TOTAL     ACCESS:    8838671  HIT:    3127828  MISS:    5710843
cpu0_L2C LOAD      ACCESS:    7784133  HIT:    2164598  MISS:    5619535
cpu0_L2C RFO       ACCESS:      89741  HIT:      31954  MISS:      57787
cpu0_L2C PREFETCH  ACCESS:          0  HIT:          0  MISS:          0
cpu0_L2C WRITEBACK ACCESS:     877318  HIT:     877255  MISS:         63
LLC TOTAL     ACCESS:    6363489  HIT:    2284757  MISS:    4078732
LLC LOAD      ACCESS:    5619532  HIT:    1595834  MISS:    4023698
LLC RFO       ACCESS:      57787  HIT:      16660  MISS:      41127
LLC PREFETCH  ACCESS:          0  HIT:          0  MISS:          0
LLC WRITEBACK ACCESS:     652712  HIT:     639390  MISS:      13322
Heartbeat CPU 0 instructions: 116000003 cycles: 834569949 heartbeat IPC: 0.0642684 cumulative IPC: 0.0805969 (Simulation time: 3 hr 21 min 40 sec) 

Region of Interest Statistics
cpu0_DTLB TOTAL     ACCESS:   14647699  HIT:    7646994  MISS:    7000705
cpu0_DTLB LOAD      ACCESS:   13270941  HIT:    6390547  MISS:    6880394
[...]
cpu0_ITLB PREFETCH  ACCESS:          0  HIT:          0  MISS:          0
cpu0_ITLB WRITEBACK ACCESS:          0  HIT:          0  MISS:          0
cpu0_ITLB TRANSLATION ACCESS:          0  HIT:          0  MISS:          0
cpu0_ITLB PREFETCH  REQUESTED:          0  ISSUED:          0  USEFUL:          0  USELESS:          0
cpu0_ITLB AVERAGE MISS LATENCY: -nan cycles
cpu0_L1I TOTAL     ACCESS:          7  HIT:          7  MISS:          0
cpu0_L1I LOAD      ACCESS:          7  HIT:          7  MISS:          0
cpu0_L1I RFO       ACCESS:          0  HIT:          0  MISS:          0
cpu0_L1I PREFETCH  ACCESS:          0  HIT:          0  MISS:          0
cpu0_L1I WRITEBACK ACCESS:          0  HIT:          0  MISS:          0
cpu0_L1I TRANSLATION ACCESS:          0  HIT:          0  MISS:          0
cpu0_L1I PREFETCH  REQUESTED:          0  ISSUED:          0  USEFUL:          0  USELESS:          0
cpu0_L1I AVERAGE MISS LATENCY: -nan cycles
cpu0_STLB TOTAL     ACCESS:  171879744  HIT:  161168441  MISS:   10711303
cpu0_STLB LOAD      ACCESS:  168695967  HIT:  158053963  MISS:   10642004
cpu0_STLB RFO       ACCESS:    3183777  HIT:    3114478  MISS:      69299
cpu0_STLB PREFETCH  ACCESS:          0  HIT:          0  MISS:          0
cpu0_STLB WRITEBACK ACCESS:          0  HIT:          0  MISS:          0
cpu0_STLB TRANSLATION ACCESS:          0  HIT:          0  MISS:          0
cpu0_STLB PREFETCH  REQUESTED:          0  ISSUED:          0  USEFUL:          0  USELESS:          0
cpu0_STLB AVERAGE MISS LATENCY: 18.8617 cycles
cpu0_L1D TOTAL     ACCESS:  365886938  HIT:  170520359  MISS:  195366579
cpu0_L1D LOAD      ACCESS:  320585420  HIT:  128803080  MISS:  191782340
cpu0_L1D RFO       ACCESS:   34621023  HIT:   32931294  MISS:    1689729
cpu0_L1D PREFETCH  ACCESS:          0  HIT:          0  MISS:          0
cpu0_L1D WRITEBACK ACCESS:          0  HIT:          0  MISS:          0
cpu0_L1D TRANSLATION ACCESS:   10680495  HIT:    8785985  MISS:    1894510
cpu0_L1D PREFETCH  REQUESTED:          0  ISSUED:          0  USEFUL:          0  USELESS:          0
cpu0_L1D AVERAGE MISS LATENCY: 201.037 cycles
cpu0_L2C TOTAL     ACCESS:  213707484  HIT:   74460667  MISS:  139246817
cpu0_L2C LOAD      ACCESS:  191780642  HIT:   54476601  MISS:  137304041
cpu0_L2C RFO       ACCESS:    1689676  HIT:     603992  MISS:    1085684
cpu0_L2C PREFETCH  ACCESS:          0  HIT:          0  MISS:          0
cpu0_L2C WRITEBACK ACCESS:   18342656  HIT:   18342122  MISS:        534
cpu0_L2C TRANSLATION ACCESS:    1894510  HIT:    1037952  MISS:     856558
cpu0_L2C PREFETCH  REQUESTED:          0  ISSUED:          0  USEFUL:          0  USELESS:          0
cpu0_L2C AVERAGE MISS LATENCY: 266.58 cycles
LLC TOTAL     ACCESS:  152895887  HIT:   56364986  MISS:   96530901
LLC LOAD      ACCESS:  137303984  HIT:   41821130  MISS:   95482854
LLC RFO       ACCESS:    1085684  HIT:     328983  MISS:     756701
LLC PREFETCH  ACCESS:          0  HIT:          0  MISS:          0
LLC WRITEBACK ACCESS:   13649661  HIT:   13369667  MISS:     279994
LLC TRANSLATION ACCESS:     856558  HIT:     845206  MISS:      11352
LLC PREFETCH  REQUESTED:          0  ISSUED:          0  USEFUL:          0  USELESS:          0
LLC AVERAGE MISS LATENCY: 354.252 cycles
~~~~~~~~~~Reuse Distance Profiler output~~~~~~~~~~
0	19189200	10012080
1	59647440	53312368
2	7866032	6419264
3	7444352	5244096
4	6929568	3892896
5	6493184	3533168
6	4305856	2799872
7	2658976	1714480
8	2066816	1523888
9	2079968	1703424
10	1909664	1666832
11	1412800	1215312
12	970416	822400
13	758576	646288
14	649744	544304
15	570128	443248
16	590912	458864
17	557168	451440
18	523936	445248
19	458032	379088
20	432800	376352
21	427392	380576
22	488720	447280
23	428960	402560
24	389200	365888
25	333248	312112
26	288096	267424
27	288096	267728
28	253120	232976
29	257648	231968
30	241840	223600
31	226352	203088
32	211872	177984
33	202336	170400
34	189584	161248
35	180912	158480
36	161440	140112
37	150608	133776
38	125888	114128
39	130384	118288
40	130752	119008
41	115632	104512
42	113920	103584
43	123808	113088
44	121088	110320
45	112592	102112
46	117920	106768
47	116016	103520
48	104000	93616
49	92816	80512
50	102320	88384
51	112672	98176
52	112720	98640
53	108816	92944
54	110992	93648
55	107456	89200
56	108608	90464
57	106416	85712
58	103104	82352
59	113840	92928
60	114464	91120
61	129536	106992
62	136144	109360
63	132240	104240
64	226672	156832
66	233328	167184
68	280752	206256
70	253088	180496
72	199152	120816
74	194608	107968
76	189952	94128
78	206560	97664
80	209472	92000
82	216496	87824
84	216464	84384
86	214256	86080
88	194880	74736
90	189024	83776
92	158624	70656
94	152224	79200
96	131200	73456
98	120768	73232
100	106096	69936
102	107840	77856
104	93488	71184
106	94752	76272
108	95200	78432
110	98096	79376
112	88608	72032
114	90976	77648
116	86576	74448
118	85184	75472
120	84880	75456
122	92912	84368
124	86528	78368
126	92288	85104
128	162960	151744
132	147456	139232
136	141872	134736
140	133744	128208
144	141824	136720
148	130976	125920
152	126128	122016
156	117792	114384
160	114016	110528
164	111872	108176
168	118256	114768
172	151552	148464
176	126432	123120
180	106688	103248
184	96224	92608
188	99632	96336
192	93584	90624
196	91408	88704
200	85248	82480
204	85248	82176
208	82720	79760
212	80224	77344
216	77584	75136
220	75136	72320
224	73792	71072
228	73536	70976
232	73744	71360
236	73552	71216
240	75792	73648
244	73936	71584
248	73632	70528
252	72624	70080
256	144048	138976
264	146384	141728
272	141792	137296
280	144224	139168
288	142688	137872
296	145600	141440
304	144000	139728
312	153200	149040
320	143536	139744
328	152976	149168
336	156944	153040
344	159360	155344
352	158528	154432
360	151072	147616
368	147376	144624
376	143376	140448
384	141664	139232
392	135984	133488
400	138592	136128
408	144464	142272
416	138992	136656
424	133216	130448
432	123024	120144
440	127328	123504
448	126976	114896
456	125712	105232
464	116448	104336
472	102064	97968
480	101808	99664
488	94976	92592
496	94608	92064
504	95088	92400
512	184912	180016
528	182352	177984
544	181328	177104
560	179728	175280
576	183040	178432
592	172240	166912
608	183776	178480
624	178240	173120
640	181872	175712
656	178560	172720
672	178144	171680
688	185904	178688
704	184064	176240
720	180880	172112
736	179600	170496
752	173824	163440
768	168256	158240
784	162144	151520
800	160960	150784
816	161808	151440
832	155104	145072
848	152880	142960
864	141840	131408
880	138224	129024
896	128368	118784
912	278064	268864
928	399248	389488
944	129392	120144
960	109616	101280
976	112112	103680
992	111328	103328
1008	115392	107120
1024	223952	207936
1056	209760	193856
1088	198816	184240
1120	188352	173952
1152	242608	229328
1184	9696784	9652784
1216	254624	233872
1248	255744	242208
1280	249152	236848
1312	248224	237056
1344	247568	237024
1376	246336	237072
1408	244640	236272
1440	255920	247888
1472	241904	232912
1504	245536	237824
1536	247504	238944
1568	255280	247424
1600	236880	229456
1632	191680	180480
1664	183312	161424
1696	154432	146480
1728	141600	135616
1760	144688	138640
1792	141744	135968
1824	202464	196608
1856	320512	314416
1888	142512	136080
1920	138176	132800
1952	134736	128704
1984	119840	114608
2016	105936	100320
2048	195104	184320
2112	179312	169008
2176	168944	158256
2240	164288	154784
2304	177680	168048
2368	4839696	4809760
2432	290448	277264
2496	379776	369552
2560	490832	482768
2624	595344	587648
2688	639296	632688
2752	767088	760800
2816	620176	606944
2880	564768	557984
2944	552560	546320
3008	517264	511664
3072	469920	464096
3136	461024	455248
3200	431536	425040
3264	378896	372496
3328	340848	333888
3392	326208	319840
3456	316176	309584
3520	347360	340496
3584	2231632	2214784
3648	351776	345904
3712	478352	472496
3776	484320	478336
3840	540128	534048
3904	546944	539328
3968	517760	510688
4032	464832	454848
4096	818896	808672
4224	686416	678176
4352	593344	587440
4480	460016	453408
4608	419792	413392
4736	2206384	2192800
4864	442672	435696
4992	555728	549408
5120	569168	562592
5248	508560	501632
5376	464000	459088
5504	466064	461440
5632	400992	396160
5760	420336	415536
5888	1136128	1126592
6016	384720	378576
6144	480352	476432
6272	509536	505424
6400	466288	461184
6528	419008	414528
6656	351776	348032
6784	327104	323600
6912	300336	296032
7040	294512	290256
7168	964992	958160
7296	316576	312576
7424	367120	363696
7552	339424	335152
7680	309424	306144
7808	286416	283248
7936	272112	268608
8064	255632	252928
8192	927440	919712
8448	566912	561712
8704	598208	592416
8960	514128	509280
9216	498160	492640
9472	1096784	1088864
9728	521056	515744
9984	467104	461888
10240	421408	416784
10496	395456	390496
10752	668288	662768
11008	531120	526688
11264	458032	454080
11520	429760	424960
11776	625152	620000
12032	409424	404992
12288	412368	407808
12544	396288	392368
12800	378752	374912
13056	502000	497168
13312	377520	373776
13568	357584	352976
13824	341792	338400
14080	323600	319936
14336	552320	548160
14592	342992	339632
14848	320640	317648
15104	301184	298176
15360	395120	391536
15616	324560	321440
15872	334528	331216
16128	301056	298320
16384	695584	689232
16896	585232	580000
17408	541232	536160
17920	642144	636832
18432	534016	528880
18944	723360	717808
19456	521808	516112
19968	533936	529552
20480	539744	535440
20992	481120	476736
21504	537568	532608
22016	462016	457856
22528	489600	485312
23040	452144	447648
23552	499040	495216
24064	435792	431424
24576	399984	396912
25088	448848	444816
25600	396848	393136
26112	430448	426560
26624	387968	384640
27136	391120	387280
27648	373248	369840
28160	364976	361136
28672	428672	425136
29184	346512	343328
29696	369760	366208
30208	354304	351744
30720	355712	353072
31232	333456	330912
31744	325104	322288
32256	341296	338576
32768	652528	646864
33792	622576	617728
34816	593248	588224
35840	585840	581328
36864	576608	571568
37888	595824	590960
38912	534272	529776
39936	530944	526896
40960	518256	514240
41984	494720	491312
43008	498176	494352
44032	477472	474016
45056	474032	470704
46080	457280	454240
47104	460464	457056
48128	435776	432656
49152	420064	417344
50176	417488	414768
51200	405648	402592
52224	404848	401904
53248	387680	385008
54272	383120	380416
55296	365376	362448
56320	363552	361184
57344	367792	365424
58368	353168	349952
59392	345520	342960
60416	339664	337088
61440	329536	326848
62464	318544	316000
63488	317904	315984
64512	317072	314912
65536	619072	614480
67584	605760	601376
69632	572960	568608
71680	560848	556512
73728	543360	539264
75776	533920	529904
77824	519424	515632
79872	506960	502752
81920	486384	482496
83968	471904	467792
86016	463984	460080
88064	453984	449664
90112	435312	431424
92160	432848	428864
94208	418256	414608
96256	409952	405984
98304	391856	388352
100352	387392	383776
102400	374384	370768
104448	367584	363840
106496	357440	353808
108544	360800	357344
110592	378448	374896
112640	334208	331104
114688	337136	333648
116736	329152	325856
118784	318848	315456
120832	315104	311664
122880	313712	310224
124928	301568	298672
126976	295504	292384
129024	287872	284704
131072	559536	553568
135168	533472	527728
139264	516576	511024
143360	506528	501296
147456	490496	485648
151552	472160	467248
155648	463840	458688
159744	448480	443792
163840	437568	432864
167936	422208	416832
172032	414448	409456
176128	399424	394560
180224	388656	384032
184320	387072	381904
188416	364768	360032
192512	354400	350000
196608	346912	342896
200704	336432	331568
204800	331920	327376
208896	324288	320288
212992	312736	308512
217088	304768	300128
221184	300832	295664
225280	302608	296704
229376	300736	294752
233472	292368	286576
237568	285744	279712
241664	277696	271888
245760	285392	279376
249856	274800	269248
253952	269680	264096
258048	259936	254944
262144	500304	492048
270336	491152	482864
278528	484480	473776
286720	451216	444256
294912	415584	408128
303104	397088	390080
311296	385984	379536
319488	361936	355632
327680	348064	341696
335872	328080	322960
344064	309728	304464
352256	294784	289344
360448	271360	266464
368640	254400	248640
376832	241568	236672
385024	239664	234944
393216	234288	230096
401408	218672	214800
409600	210592	206240
417792	206480	202160
425984	202624	198624
434176	195824	192032
442368	193648	189680
450560	184192	180400
458752	180928	177296
466944	177040	173312
475136	169600	166256
483328	157792	154448
491520	163376	160064
499712	157152	153824
507904	145584	142912
516096	132192	129392
524288	243872	238144
540672	230416	225008
557056	213072	208272
573440	210896	206064
589824	197856	193312
606208	196368	191936
622592	182960	178672
638976	181936	177904
655360	183904	179344
671744	158720	154304
688128	138096	134048
704512	134064	129808
720896	124240	120112
737280	107568	103712
753664	96304	92656
770048	107344	103248
786432	98592	94992
802816	93984	90336
819200	119936	116128
835584	121792	117552
851968	206608	201440
868352	223776	217024
884736	303472	296528
901120	488240	479680
917504	499616	490320
933888	642048	632688
950272	461088	452864
966656	389232	381952
983040	647168	638096
999424	540512	533104
1015808	443568	438272
1032192	101904	96704
1048576	886240	869088
1081344	1130256	1115152
1114112	998000	985136
1146880	489504	478352
1179648	916496	907120
1212416	561440	553536
1245184	966976	953920
1277952	703536	694832
1310720	579424	572960
1343488	494768	487680
1376256	448000	442624
1409024	397536	392192
1441792	336912	332416
1474560	244384	239696
1507328	465392	458976
1540096	520672	515616
1572864	107360	104672
1605632	308800	304944
1638400	139200	136320
1671168	450960	446304
1703936	259504	256480
1736704	181312	178544
1769472	168400	164800
1802240	671120	665248
1835008	135488	133632
1867776	118816	117200
1900544	19856	18832
1933312	216160	213920
1966080	126944	125056
1998848	17936	17024
2031616	115984	114512
2064384	33696	31792
2097152	601152	596416
2162688	31952	31280
2228224	151120	149248
2293760	44704	43504
2359296	164736	163248
2424832	187840	185776
2490368	280272	277472
2555904	355392	351312
2621440	317792	314288
2686976	123904	122544
2752512	8832	8464
2818048	9792	9072
2883584	190336	188624
2949120	30560	30192
3014656	8768	8256
3080192	109088	107696
3145728	114848	113856
3211264	79072	78432
3276800	145808	144784
3342336	178816	177024
3407872	98512	97920
3473408	8032	7824
3538944	16592	16208
3604480	192496	191184
3670016	9040	8800
3735552	97520	96576
3801088	33984	33872
3866624	34832	34304
3932160	83120	82224
3997696	16528	16112
4063232	82928	82352
4128768	11360	11216
4194304	101424	100368
4325376	190672	189760
4456448	4464	4192
4587520	99808	98688
4718592	66896	66704
4849664	1792	1680
4980736	2320	2160
5111808	91248	90416
5242880	1376	1280
5373952	912	816
5505024	83584	83008
5636096	3376	3280
5767168	2240	1920
5898240	154000	152976
6029312	144	144
6160384	0	0
6291456	0	0
6422528	16	16
6553600	0	0
6684672	32	0
6815744	16	16
6946816	0	0
7077888	0	0
7208960	16	16
7340032	0	0
7471104	0	0
7602176	16	16
7733248	16	16
7864320	0	0
7995392	16	16
8126464	32	32
8257536	0	0
8388608	48	48
8650752	32	32
8912896	64	64
9175040	32	32
9437184	0	0
9699328	16	16
9961472	16	16
10223616	32	32
10485760	0	0
10747904	0	0
11010048	0	0
11272192	16	16
11534336	16	16
11796480	16	16
12058624	16	16
12320768	32	32
12582912	0	0
12845056	16	16
13107200	16	0
13369344	0	0
13631488	0	0
13893632	0	0
14155776	16	16
14417920	48	32
14680064	16	16
14942208	32	32
15204352	0	0
15466496	32	32
15728640	16	16
15990784	0	0
16252928	32	32
16515072	32	16
16777216	48	48
17301504	0	0
17825792	0	0
18350080	16	16
18874368	48	48
19398656	64	64
19922944	48	32
20447232	0	0
20971520	48	32
21495808	80	80
22020096	0	0
22544384	32	32
23068672	48	48
23592960	32	32
24117248	48	48
24641536	48	48
25165824	16	16
25690112	32	32
26214400	48	48
26738688	0	0
27262976	80	80
27787264	16	16
28311552	32	32
28835840	64	64
29360128	80	80
29884416	32	16
30408704	32	32
30932992	16	16
31457280	0	0
31981568	16	16
32505856	48	48
33030144	64	64
33554432	96	96
34603008	128	128
35651584	112	112
36700160	48	48
37748736	96	96
38797312	112	112
39845888	64	48
40894464	96	96
41943040	80	80
42991616	48	32
44040192	160	160
45088768	208	208
46137344	144	144
47185920	128	128
48234496	32	32
49283072	208	208
50331648	144	144
51380224	176	176
52428800	208	208
53477376	208	208
54525952	208	208
55574528	208	208
56623104	208	208
57671680	224	224
58720256	208	208
59768832	128	128
60817408	208	208
61865984	176	176
62914560	176	176
63963136	160	160
65011712	144	144
66060288	128	128
67108864	368	368
69206016	256	256
71303168	320	320
73400320	368	368
75497472	256	256
77594624	208	208
79691776	240	240
81788928	192	192
83886080	240	240
85983232	192	192
88080384	240	240
90177536	224	224
92274688	288	288
94371840	368	368
96468992	112	112
98566144	464	464
100663296	400	400
102760448	384	384
104857600	384	384
106954752	272	272
109051904	320	320
111149056	304	304
113246208	256	256
115343360	224	224
117440512	320	320
119537664	368	368
121634816	288	288
123731968	208	208
125829120	304	304
127926272	400	400
130023424	288	288
132120576	336	336
134217728	752	752
138412032	1008	1008
142606336	960	960
146800640	449296	449296
150994944	1287168	1287168
155189248	708432	708432
159383552	2535072	2535072
163577856	1804064	1804064
167772160	1196240	1196240
171966464	637152	637152
176160768	400352	400352
180355072	425328	425328
184549376	3404208	3404208
188743680	1385840	1385840
192937984	1398736	1398736
197132288	364560	364560
201326592	1368432	1368432
205520896	1712592	1712592
209715200	2245088	2245088
213909504	645440	645440
218103808	1826688	1826688
222298112	2674976	2674976
226492416	0	0
230686720	0	0
234881024	0	0
239075328	0	0
243269632	0	0
247463936	0	0
251658240	0	0
255852544	0	0
260046848	0	0
264241152	0	0
268435456	0	0
276824064	0	0
285212672	0	0
293601280	0	0
301989888	0	0
310378496	0	0
318767104	0	0
327155712	0	0
335544320	0	0
343932928	0	0
352321536	0	0
360710144	0	0
369098752	0	0
377487360	0	0
385875968	0	0
394264576	0	0
402653184	0	0
411041792	0	0
419430400	0	0
427819008	0	0
436207616	0	0
444596224	0	0
452984832	0	0
461373440	0	0
469762048	0	0
478150656	0	0
486539264	0	0
494927872	0	0
503316480	0	0
511705088	0	0
520093696	0	0
528482304	0	0
536870912	0	0
553648128	0	0
570425344	0	0
587202560	0	0
603979776	0	0
620756992	0	0
637534208	0	0
654311424	0	0
671088640	0	0
687865856	0	0
704643072	0	0
721420288	0	0
738197504	0	0
754974720	0	0
771751936	0	0
788529152	0	0
805306368	0	0
822083584	0	0
838860800	0	0
855638016	0	0
872415232	0	0
889192448	0	0
905969664	0	0
922746880	0	0
939524096	0	0
956301312	0	0
973078528	0	0
989855744	0	0
1006632960	0	0
1023410176	0	0
1040187392	0	0
1056964608	0	0
1073741824	0	0
1107296256	0	0
1140850688	0	0
1174405120	0	0
1207959552	0	0
1241513984	0	0
1275068416	0	0
1308622848	0	0
1342177280	0	0
1375731712	0	0
1409286144	0	0
1442840576	0	0
1476395008	0	0
1509949440	0	0
1543503872	0	0
1577058304	0	0
1610612736	0	0
1644167168	0	0
1677721600	0	0
1711276032	0	0
1744830464	0	0
1778384896	0	0
1811939328	0	0
1845493760	0	0
1879048192	0	0
1912602624	0	0
1946157056	0	0
1979711488	0	0
2013265920	0	0
2046820352	0	0
2080374784	0	0
2113929216	0	0
2147483648	0	0
2214592512	0	0
2281701376	0	0
2348810240	0	0
2415919104	0	0
2483027968	0	0
2550136832	0	0
2617245696	0	0
2684354560	0	0
2751463424	0	0
2818572288	0	0
2885681152	0	0
2952790016	0	0
3019898880	0	0
3087007744	0	0
3154116608	0	0
3221225472	0	0
3288334336	0	0
3355443200	0	0
3422552064	0	0
3489660928	0	0
3556769792	0	0
3623878656	0	0
3690987520	0	0
3758096384	0	0
3825205248	0	0
3892314112	0	0
3959422976	0	0
4026531840	0	0
4093640704	0	0
4160749568	0	0
4227858432	0	0
~~~~~~~~~~Reuse Distance Profiler output end~~~~~~~~~~

Sampler size:1721576

DRAM Statistics
 CHANNEL 0
 RQ ROW_BUFFER_HIT:     121183  ROW_BUFFER_MISS:   96123150
 DBUS AVG_CONGESTED_CYCLE:    3.97549
 WQ ROW_BUFFER_HIT:     762897  ROW_BUFFER_MISS:   11318905  FULL:          0


CPU 0 Branch Prediction Accuracy: 87.9092% MPKI: 29.2176 Average ROB Occupancy at Mispredict: 22.4552
Branch type MPKI
BRANCH_DIRECT_JUMP: 2.66667e-06
BRANCH_INDIRECT: 0
BRANCH_CONDITIONAL: 29.2176
BRANCH_DIRECT_CALL: 0
BRANCH_INDIRECT_CALL: 0
BRANCH_RETURN: 0

