
*** ChampSim Multicore Out-of-Order Simulator ***

Warmup Instructions: 50000000
Simulation Instructions: 1500000000
Number of CPUs: 1
Off-chip DRAM Size: 4 GiB Channels: 1 Width: 64-bit Data Rate: 3200 MT/s

VirtualMemory physical capacity: 8588881920 num_ppages: 2096895
VirtualMemory page size: 4096 log2_page_size: 12

CPU 0 runs /s/traces/champsim_traces/437.leslie3d-265B.champsimtrace.xz
CPU 0 Bimodal branch predictor
Basic BTB sets: 1024 ways: 8 indirect buffer size: 4096 RAS size: 64
Initializing LRU.
Initializing LRU.
Initializing LRU.
Initializing LRU.
Initializing rdLRU.
Initializing LRU.
Heartbeat CPU 0 instructions: 2000000 cycles: 758067 heartbeat IPC: 2.63829 cumulative IPC: 2.63829 (Simulation time: 0 hr 1 min 39 sec) 
Heartbeat CPU 0 instructions: 4000000 cycles: 1516086 heartbeat IPC: 2.63846 cumulative IPC: 2.63837 (Simulation time: 0 hr 3 min 14 sec) 
Heartbeat CPU 0 instructions: 6000002 cycles: 2274111 heartbeat IPC: 2.63844 cumulative IPC: 2.63839 (Simulation time: 0 hr 4 min 51 sec) 
Heartbeat CPU 0 instructions: 8000002 cycles: 3031905 heartbeat IPC: 2.63924 cumulative IPC: 2.63861 (Simulation time: 0 hr 6 min 30 sec) 
Heartbeat CPU 0 instructions: 10000003 cycles: 3789767 heartbeat IPC: 2.639 cumulative IPC: 2.63869 (Simulation time: 0 hr 8 min 6 sec) 
Heartbeat CPU 0 instructions: 12000004 cycles: 4547581 heartbeat IPC: 2.63917 cumulative IPC: 2.63877 (Simulation time: 0 hr 9 min 39 sec) 
Heartbeat CPU 0 instructions: 14000001 cycles: 5304857 heartbeat IPC: 2.64104 cumulative IPC: 2.63909 (Simulation time: 0 hr 11 min 11 sec) 
Heartbeat CPU 0 instructions: 16000001 cycles: 6062108 heartbeat IPC: 2.64113 cumulative IPC: 2.63935 (Simulation time: 0 hr 12 min 48 sec) 
Heartbeat CPU 0 instructions: 18000002 cycles: 6819502 heartbeat IPC: 2.64063 cumulative IPC: 2.63949 (Simulation time: 0 hr 14 min 25 sec) 
Heartbeat CPU 0 instructions: 20000000 cycles: 7576969 heartbeat IPC: 2.64038 cumulative IPC: 2.63958 (Simulation time: 0 hr 16 min 2 sec) 
Heartbeat CPU 0 instructions: 22000001 cycles: 8334441 heartbeat IPC: 2.64036 cumulative IPC: 2.63965 (Simulation time: 0 hr 17 min 37 sec) 
Heartbeat CPU 0 instructions: 24000003 cycles: 9092432 heartbeat IPC: 2.63856 cumulative IPC: 2.63956 (Simulation time: 0 hr 19 min 13 sec) 
Heartbeat CPU 0 instructions: 26000001 cycles: 9849930 heartbeat IPC: 2.64027 cumulative IPC: 2.63961 (Simulation time: 0 hr 20 min 48 sec) 
Heartbeat CPU 0 instructions: 28000002 cycles: 10607563 heartbeat IPC: 2.6398 cumulative IPC: 2.63963 (Simulation time: 0 hr 22 min 23 sec) 
Heartbeat CPU 0 instructions: 30000001 cycles: 11365454 heartbeat IPC: 2.6389 cumulative IPC: 2.63958 (Simulation time: 0 hr 23 min 57 sec) 
Heartbeat CPU 0 instructions: 32000002 cycles: 12123402 heartbeat IPC: 2.6387 cumulative IPC: 2.63952 (Simulation time: 0 hr 25 min 29 sec) 
Heartbeat CPU 0 instructions: 34000004 cycles: 12881422 heartbeat IPC: 2.63846 cumulative IPC: 2.63946 (Simulation time: 0 hr 26 min 58 sec) 
Heartbeat CPU 0 instructions: 36000004 cycles: 13639442 heartbeat IPC: 2.63845 cumulative IPC: 2.6394 (Simulation time: 0 hr 28 min 27 sec) 
Heartbeat CPU 0 instructions: 38000003 cycles: 14397232 heartbeat IPC: 2.63925 cumulative IPC: 2.6394 (Simulation time: 0 hr 29 min 57 sec) 
Heartbeat CPU 0 instructions: 40000004 cycles: 15155090 heartbeat IPC: 2.63902 cumulative IPC: 2.63938 (Simulation time: 0 hr 31 min 25 sec) 
Heartbeat CPU 0 instructions: 42000000 cycles: 15912897 heartbeat IPC: 2.63919 cumulative IPC: 2.63937 (Simulation time: 0 hr 32 min 52 sec) 
Heartbeat CPU 0 instructions: 44000000 cycles: 16670151 heartbeat IPC: 2.64112 cumulative IPC: 2.63945 (Simulation time: 0 hr 34 min 22 sec) 
Heartbeat CPU 0 instructions: 46000000 cycles: 17427402 heartbeat IPC: 2.64113 cumulative IPC: 2.63952 (Simulation time: 0 hr 35 min 52 sec) 
Heartbeat CPU 0 instructions: 48000002 cycles: 18184810 heartbeat IPC: 2.64059 cumulative IPC: 2.63957 (Simulation time: 0 hr 37 min 22 sec) 
Heartbeat CPU 0 instructions: 50000001 cycles: 18942280 heartbeat IPC: 2.64037 cumulative IPC: 2.6396 (Simulation time: 0 hr 38 min 51 sec) 

Warmup complete CPU 0 instructions: 50000001 cycles: 18942280 (Simulation time: 0 hr 38 min 51 sec) 

Heartbeat CPU 0 instructions: 52000001 cycles: 20657229 heartbeat IPC: 1.16622 cumulative IPC: 1.16622 (Simulation time: 0 hr 41 min 13 sec) 

Region of Interest Statistics
cpu0_DTLB TOTAL     ACCESS:     512429  HIT:     512014  MISS:        415
cpu0_DTLB LOAD      ACCESS:     464447  HIT:     464132  MISS:        315
cpu0_DTLB RFO       ACCESS:      47982  HIT:      47882  MISS:        100
cpu0_DTLB PREFETCH  ACCESS:          0  HIT:          0  MISS:          0
cpu0_DTLB WRITEBACK ACCESS:          0  HIT:          0  MISS:          0
cpu0_ITLB TOTAL     ACCESS:      20621  HIT:      20621  MISS:          0
cpu0_ITLB LOAD      ACCESS:      20621  HIT:      20621  MISS:          0
cpu0_ITLB RFO       ACCESS:          0  HIT:          0  MISS:          0
cpu0_ITLB PREFETCH  ACCESS:          0  HIT:          0  MISS:          0
cpu0_ITLB WRITEBACK ACCESS:          0  HIT:          0  MISS:          0
cpu0_L1I TOTAL     ACCESS:       7107  HIT:       7107  MISS:          0
cpu0_L1I LOAD      ACCESS:       7107  HIT:       7107  MISS:          0
cpu0_L1I RFO       ACCESS:          0  HIT:          0  MISS:          0
cpu0_L1I PREFETCH  ACCESS:          0  HIT:          0  MISS:          0
cpu0_L1I WRITEBACK ACCESS:          0  HIT:          0  MISS:          0
cpu0_STLB TOTAL     ACCESS:        415  HIT:        303  MISS:        112
cpu0_STLB LOAD      ACCESS:        315  HIT:        232  MISS:         83
cpu0_STLB RFO       ACCESS:        100  HIT:         71  MISS:         29
cpu0_STLB PREFETCH  ACCESS:          0  HIT:          0  MISS:          0
cpu0_STLB WRITEBACK ACCESS:          0  HIT:          0  MISS:          0
cpu0_L1D TOTAL     ACCESS:     550774  HIT:     533451  MISS:      17323
cpu0_L1D LOAD      ACCESS:     480925  HIT:     467175  MISS:      13750
cpu0_L1D RFO       ACCESS:      69740  HIT:      66208  MISS:       3532
cpu0_L1D PREFETCH  ACCESS:          0  HIT:          0  MISS:          0
cpu0_L1D WRITEBACK ACCESS:          0  HIT:          0  MISS:          0
cpu0_L2C TOTAL     ACCESS:      22039  HIT:      10809  MISS:      11230
cpu0_L2C LOAD      ACCESS:      13750  HIT:       4330  MISS:       9420
cpu0_L2C RFO       ACCESS:       3532  HIT:       1722  MISS:       1810
cpu0_L2C PREFETCH  ACCESS:          0  HIT:          0  MISS:          0
cpu0_L2C WRITEBACK ACCESS:       4716  HIT:       4716  MISS:          0
LLC TOTAL     ACCESS:      13009  HIT:       1780  MISS:      11229
LLC LOAD      ACCESS:       9420  HIT:          1  MISS:       9419
LLC RFO       ACCESS:       1810  HIT:          0  MISS:       1810
LLC PREFETCH  ACCESS:          0  HIT:          0  MISS:          0
LLC WRITEBACK ACCESS:       1779  HIT:       1779  MISS:          0
Heartbeat CPU 0 instructions: 54000001 cycles: 22338640 heartbeat IPC: 1.18948 cumulative IPC: 1.17773 (Simulation time: 0 hr 43 min 34 sec) 

Region of Interest Statistics
cpu0_DTLB TOTAL     ACCESS:    1024978  HIT:    1024077  MISS:        901
cpu0_DTLB LOAD      ACCESS:     929450  HIT:     928757  MISS:        693
cpu0_DTLB RFO       ACCESS:      95528  HIT:      95320  MISS:        208
cpu0_DTLB PREFETCH  ACCESS:          0  HIT:          0  MISS:          0
cpu0_DTLB WRITEBACK ACCESS:          0  HIT:          0  MISS:          0
cpu0_ITLB TOTAL     ACCESS:      40643  HIT:      40643  MISS:          0
cpu0_ITLB LOAD      ACCESS:      40643  HIT:      40643  MISS:          0
cpu0_ITLB RFO       ACCESS:          0  HIT:          0  MISS:          0
cpu0_ITLB PREFETCH  ACCESS:          0  HIT:          0  MISS:          0
cpu0_ITLB WRITEBACK ACCESS:          0  HIT:          0  MISS:          0
cpu0_L1I TOTAL     ACCESS:      13905  HIT:      13905  MISS:          0
cpu0_L1I LOAD      ACCESS:      13905  HIT:      13905  MISS:          0
cpu0_L1I RFO       ACCESS:          0  HIT:          0  MISS:          0
cpu0_L1I PREFETCH  ACCESS:          0  HIT:          0  MISS:          0
cpu0_L1I WRITEBACK ACCESS:          0  HIT:          0  MISS:          0
cpu0_STLB TOTAL     ACCESS:        901  HIT:        688  MISS:        213
cpu0_STLB LOAD      ACCESS:        693  HIT:        537  MISS:        156
cpu0_STLB RFO       ACCESS:        208  HIT:        151  MISS:         57
cpu0_STLB PREFETCH  ACCESS:          0  HIT:          0  MISS:          0
cpu0_STLB WRITEBACK ACCESS:          0  HIT:          0  MISS:          0
cpu0_L1D TOTAL     ACCESS:    1102279  HIT:    1067745  MISS:      34534
cpu0_L1D LOAD      ACCESS:     962424  HIT:     934954  MISS:      27470
cpu0_L1D RFO       ACCESS:     139649  HIT:     132660  MISS:       6989
cpu0_L1D PREFETCH  ACCESS:          0  HIT:          0  MISS:          0
cpu0_L1D WRITEBACK ACCESS:          0  HIT:          0  MISS:          0
cpu0_L2C TOTAL     ACCESS:      43912  HIT:      21482  MISS:      22430
cpu0_L2C LOAD      ACCESS:      27470  HIT:       8660  MISS:      18810
cpu0_L2C RFO       ACCESS:       6989  HIT:       3369  MISS:       3620
cpu0_L2C PREFETCH  ACCESS:          0  HIT:          0  MISS:          0
cpu0_L2C WRITEBACK ACCESS:       9378  HIT:       9378  MISS:          0
LLC TOTAL     ACCESS:      25921  HIT:       3658  MISS:      22263
LLC LOAD      ACCESS:      18810  HIT:        167  MISS:      18643
LLC RFO       ACCESS:       3620  HIT:          0  MISS:       3620
LLC PREFETCH  ACCESS:          0  HIT:          0  MISS:          0
LLC WRITEBACK ACCESS:       3491  HIT:       3491  MISS:          0
Heartbeat CPU 0 instructions: 56000001 cycles: 24034914 heartbeat IPC: 1.17905 cumulative IPC: 1.17817 (Simulation time: 0 hr 45 min 54 sec) 

Region of Interest Statistics
cpu0_DTLB TOTAL     ACCESS:    1537859  HIT:    1536463  MISS:       1396
cpu0_DTLB LOAD      ACCESS:    1394587  HIT:    1393507  MISS:       1080
cpu0_DTLB RFO       ACCESS:     143272  HIT:     142956  MISS:        316
cpu0_DTLB PREFETCH  ACCESS:          0  HIT:          0  MISS:          0
cpu0_DTLB WRITEBACK ACCESS:          0  HIT:          0  MISS:          0
cpu0_ITLB TOTAL     ACCESS:      61215  HIT:      61215  MISS:          0
cpu0_ITLB LOAD      ACCESS:      61215  HIT:      61215  MISS:          0
cpu0_ITLB RFO       ACCESS:          0  HIT:          0  MISS:          0
cpu0_ITLB PREFETCH  ACCESS:          0  HIT:          0  MISS:          0
cpu0_ITLB WRITEBACK ACCESS:          0  HIT:          0  MISS:          0
cpu0_L1I TOTAL     ACCESS:      21012  HIT:      21012  MISS:          0
cpu0_L1I LOAD      ACCESS:      21012  HIT:      21012  MISS:          0
cpu0_L1I RFO       ACCESS:          0  HIT:          0  MISS:          0
cpu0_L1I PREFETCH  ACCESS:          0  HIT:          0  MISS:          0
cpu0_L1I WRITEBACK ACCESS:          0  HIT:          0  MISS:          0
cpu0_STLB TOTAL     ACCESS:       1396  HIT:       1073  MISS:        323
cpu0_STLB LOAD      ACCESS:       1080  HIT:        842  MISS:        238
cpu0_STLB RFO       ACCESS:        316  HIT:        231  MISS:         85
cpu0_STLB PREFETCH  ACCESS:          0  HIT:          0  MISS:          0
cpu0_STLB WRITEBACK ACCESS:          0  HIT:          0  MISS:          0
cpu0_L1D TOTAL     ACCESS:    1652715  HIT:    1600901  MISS:      51814
cpu0_L1D LOAD      ACCESS:    1443146  HIT:    1402034  MISS:      41112
cpu0_L1D RFO       ACCESS:     209256  HIT:     198664  MISS:      10592
cpu0_L1D PREFETCH  ACCESS:          0  HIT:          0  MISS:          0
cpu0_L1D WRITEBACK ACCESS:          0  HIT:          0  MISS:          0
cpu0_L2C TOTAL     ACCESS:      65918  HIT:      32358  MISS:      33560
cpu0_L2C LOAD      ACCESS:      41110  HIT:      12981  MISS:      28129
cpu0_L2C RFO       ACCESS:      10592  HIT:       5161  MISS:       5431
cpu0_L2C PREFETCH  ACCESS:          0  HIT:          0  MISS:          0
cpu0_L2C WRITEBACK ACCESS:      14106  HIT:      14106  MISS:          0
LLC TOTAL     ACCESS:      38718  HIT:       5324  MISS:      33394
LLC LOAD      ACCESS:      28129  HIT:        167  MISS:      27962
LLC RFO       ACCESS:       5431  HIT:          1  MISS:       5430
LLC PREFETCH  ACCESS:          0  HIT:          0  MISS:          0
LLC WRITEBACK ACCESS:       5158  HIT:       5156  MISS:          2
Heartbeat CPU 0 instructions: 58000000 cycles: 25736255 heartbeat IPC: 1.17554 cumulative IPC: 1.17751 (Simulation time: 0 hr 48 min 18 sec) 

Region of Interest Statistics
cpu0_DTLB TOTAL     ACCESS:    2050460  HIT:    2048671  MISS:       1789
cpu0_DTLB LOAD      ACCESS:    1859462  HIT:    1858087  MISS:       1375
cpu0_DTLB RFO       ACCESS:     190998  HIT:     190584  MISS:        414
cpu0_DTLB PREFETCH  ACCESS:          0  HIT:          0  MISS:          0
cpu0_DTLB WRITEBACK ACCESS:          0  HIT:          0  MISS:          0
cpu0_ITLB TOTAL     ACCESS:      81882  HIT:      81882  MISS:          0
cpu0_ITLB LOAD      ACCESS:      81882  HIT:      81882  MISS:          0
cpu0_ITLB RFO       ACCESS:          0  HIT:          0  MISS:          0
cpu0_ITLB PREFETCH  ACCESS:          0  HIT:          0  MISS:          0
cpu0_ITLB WRITEBACK ACCESS:          0  HIT:          0  MISS:          0
cpu0_L1I TOTAL     ACCESS:      28119  HIT:      28119  MISS:          0
cpu0_L1I LOAD      ACCESS:      28119  HIT:      28119  MISS:          0
cpu0_L1I RFO       ACCESS:          0  HIT:          0  MISS:          0
cpu0_L1I PREFETCH  ACCESS:          0  HIT:          0  MISS:          0
cpu0_L1I WRITEBACK ACCESS:          0  HIT:          0  MISS:          0
cpu0_STLB TOTAL     ACCESS:       1789  HIT:       1357  MISS:        432
cpu0_STLB LOAD      ACCESS:       1375  HIT:       1057  MISS:        318
cpu0_STLB RFO       ACCESS:        414  HIT:        300  MISS:        114
cpu0_STLB PREFETCH  ACCESS:          0  HIT:          0  MISS:          0
cpu0_STLB WRITEBACK ACCESS:          0  HIT:          0  MISS:          0
cpu0_L1D TOTAL     ACCESS:    2203112  HIT:    2134032  MISS:      69080
cpu0_L1D LOAD      ACCESS:    1923593  HIT:    1868746  MISS:      54847
cpu0_L1D RFO       ACCESS:     279100  HIT:     265017  MISS:      14083
cpu0_L1D PREFETCH  ACCESS:          0  HIT:          0  MISS:          0
cpu0_L1D WRITEBACK ACCESS:          0  HIT:          0  MISS:          0
cpu0_L2C TOTAL     ACCESS:      87882  HIT:      43150  MISS:      44732
cpu0_L2C LOAD      ACCESS:      54845  HIT:      17363  MISS:      37482
cpu0_L2C RFO       ACCESS:      14083  HIT:       6834  MISS:       7249
cpu0_L2C PREFETCH  ACCESS:          0  HIT:          0  MISS:          0
cpu0_L2C WRITEBACK ACCESS:      18804  HIT:      18803  MISS:          1
LLC TOTAL     ACCESS:      51867  HIT:       7303  MISS:      44564
LLC LOAD      ACCESS:      37482  HIT:        176  MISS:      37306
LLC RFO       ACCESS:       7249  HIT:          4  MISS:       7245
LLC PREFETCH  ACCESS:          0  HIT:          0  MISS:          0
LLC WRITEBACK ACCESS:       7136  HIT:       7123  MISS:         13
Heartbeat CPU 0 instructions: 60000002 cycles: 27452578 heartbeat IPC: 1.16528 cumulative IPC: 1.17505 (Simulation time: 0 hr 50 min 37 sec) 

Region of Interest Statistics
cpu0_DTLB TOTAL     ACCESS:    2563197  HIT:    2560851  MISS:       2346
cpu0_DTLB LOAD      ACCESS:    2324419  HIT:    2322603  MISS:       1816
cpu0_DTLB RFO       ACCESS:     238778  HIT:     238248  MISS:        530
cpu0_DTLB PREFETCH  ACCESS:          0  HIT:          0  MISS:          0
cpu0_DTLB WRITEBACK ACCESS:          0  HIT:          0  MISS:          0
cpu0_ITLB TOTAL     ACCESS:     102708  HIT:     102708  MISS:          0
cpu0_ITLB LOAD      ACCESS:     102708  HIT:     102708  MISS:          0
cpu0_ITLB RFO       ACCESS:          0  HIT:          0  MISS:          0
cpu0_ITLB PREFETCH  ACCESS:          0  HIT:          0  MISS:          0
cpu0_ITLB WRITEBACK ACCESS:          0  HIT:          0  MISS:          0
cpu0_L1I TOTAL     ACCESS:      35226  HIT:      35226  MISS:          0
cpu0_L1I LOAD      ACCESS:      35226  HIT:      35226  MISS:          0
cpu0_L1I RFO       ACCESS:          0  HIT:          0  MISS:          0
cpu0_L1I PREFETCH  ACCESS:          0  HIT:          0  MISS:          0
cpu0_L1I WRITEBACK ACCESS:          0  HIT:          0  MISS:          0
cpu0_STLB TOTAL     ACCESS:       2346  HIT:       1784  MISS:        562
cpu0_STLB LOAD      ACCESS:       1816  HIT:       1400  MISS:        416
cpu0_STLB RFO       ACCESS:        530  HIT:        384  MISS:        146
cpu0_STLB PREFETCH  ACCESS:          0  HIT:          0  MISS:          0
cpu0_STLB WRITEBACK ACCESS:          0  HIT:          0  MISS:          0
cpu0_L1D TOTAL     ACCESS:    2753259  HIT:    2666799  MISS:      86460
cpu0_L1D LOAD      ACCESS:    2403733  HIT:    2335082  MISS:      68651
cpu0_L1D RFO       ACCESS:     348980  HIT:     331356  MISS:      17624
cpu0_L1D PREFETCH  ACCESS:          0  HIT:          0  MISS:          0
cpu0_L1D WRITEBACK ACCESS:          0  HIT:          0  MISS:          0
cpu0_L2C TOTAL     ACCESS:     109937  HIT:      53798  MISS:      56139
cpu0_L2C LOAD      ACCESS:      68649  HIT:      21577  MISS:      47072
cpu0_L2C RFO       ACCESS:      17624  HIT:       8565  MISS:       9059
cpu0_L2C PREFETCH  ACCESS:          0  HIT:          0  MISS:          0
cpu0_L2C WRITEBACK ACCESS:      23479  HIT:      23471  MISS:          8
LLC TOTAL     ACCESS:      64964  HIT:       8993  MISS:      55971
LLC LOAD      ACCESS:      47072  HIT:        176  MISS:      46896
LLC RFO       ACCESS:       9059  HIT:          4  MISS:       9055
LLC PREFETCH  ACCESS:          0  HIT:          0  MISS:          0
LLC WRITEBACK ACCESS:       8833  HIT:       8813  MISS:         20
Heartbeat CPU 0 instructions: 62000001 cycles: 29154157 heartbeat IPC: 1.17538 cumulative IPC: 1.1751 (Simulation time: 0 hr 53 min 2 sec) 

Region of Interest Statistics
cpu0_DTLB TOTAL     ACCESS:    3075787  HIT:    3073009  MISS:       2778
cpu0_DTLB LOAD      ACCESS:    2788995  HIT:    2786853  MISS:       2142
cpu0_DTLB RFO       ACCESS:     286792  HIT:     286156  MISS:        636
cpu0_DTLB PREFETCH  ACCESS:          0  HIT:          0  MISS:          0
cpu0_DTLB WRITEBACK ACCESS:          0  HIT:          0  MISS:          0
cpu0_ITLB TOTAL     ACCESS:     123479  HIT:     123479  MISS:          0
cpu0_ITLB LOAD      ACCESS:     123479  HIT:     123479  MISS:          0
cpu0_ITLB RFO       ACCESS:          0  HIT:          0  MISS:          0
cpu0_ITLB PREFETCH  ACCESS:          0  HIT:          0  MISS:          0
cpu0_ITLB WRITEBACK ACCESS:          0  HIT:          0  MISS:          0
cpu0_L1I TOTAL     ACCESS:      42339  HIT:      42339  MISS:          0
cpu0_L1I LOAD      ACCESS:      42339  HIT:      42339  MISS:          0
cpu0_L1I RFO       ACCESS:          0  HIT:          0  MISS:          0
cpu0_L1I PREFETCH  ACCESS:          0  HIT:          0  MISS:          0
cpu0_L1I WRITEBACK ACCESS:          0  HIT:          0  MISS:          0
cpu0_STLB TOTAL     ACCESS:       2778  HIT:       2114  MISS:        664
cpu0_STLB LOAD      ACCESS:       2142  HIT:       1652  MISS:        490
cpu0_STLB RFO       ACCESS:        636  HIT:        462  MISS:        174
cpu0_STLB PREFETCH  ACCESS:          0  HIT:          0  MISS:          0
cpu0_STLB WRITEBACK ACCESS:          0  HIT:          0  MISS:          0
cpu0_L1D TOTAL     ACCESS:    3303657  HIT:    3199856  MISS:     103801
cpu0_L1D LOAD      ACCESS:    2884391  HIT:    2802013  MISS:      82378
cpu0_L1D RFO       ACCESS:     418620  HIT:     397422  MISS:      21198
cpu0_L1D PREFETCH  ACCESS:          0  HIT:          0  MISS:          0
cpu0_L1D WRITEBACK ACCESS:          0  HIT:          0  MISS:          0
cpu0_L2C TOTAL     ACCESS:     132026  HIT:      64673  MISS:      67353
cpu0_L2C LOAD      ACCESS:      82376  HIT:      25906  MISS:      56470
cpu0_L2C RFO       ACCESS:      21198  HIT:      10324  MISS:      10874
cpu0_L2C PREFETCH  ACCESS:          0  HIT:          0  MISS:          0
cpu0_L2C WRITEBACK ACCESS:      28227  HIT:      28218  MISS:          9
LLC TOTAL     ACCESS:      78161  HIT:      10996  MISS:      67165
LLC LOAD      ACCESS:      56470  HIT:        196  MISS:      56274
LLC RFO       ACCESS:      10874  HIT:          4  MISS:      10870
LLC PREFETCH  ACCESS:          0  HIT:          0  MISS:          0
LLC WRITEBACK ACCESS:      10817  HIT:      10796  MISS:         21
Heartbeat CPU 0 instructions: 64000004 cycles: 30829153 heartbeat IPC: 1.19403 cumulative IPC: 1.17777 (Simulation time: 0 hr 55 min 22 sec) 

Region of Interest Statistics
cpu0_DTLB TOTAL     ACCESS:    3589561  HIT:    3586348  MISS:       3213
cpu0_DTLB LOAD      ACCESS:    3254768  HIT:    3252293  MISS:       2475
cpu0_DTLB RFO       ACCESS:     334793  HIT:     334055  MISS:        738
cpu0_DTLB PREFETCH  ACCESS:          0  HIT:          0  MISS:          0
cpu0_DTLB WRITEBACK ACCESS:          0  HIT:          0  MISS:          0
cpu0_ITLB TOTAL     ACCESS:     144463  HIT:     144463  MISS:          0
cpu0_ITLB LOAD      ACCESS:     144463  HIT:     144463  MISS:          0
cpu0_ITLB RFO       ACCESS:          0  HIT:          0  MISS:          0
cpu0_ITLB PREFETCH  ACCESS:          0  HIT:          0  MISS:          0
cpu0_ITLB WRITEBACK ACCESS:          0  HIT:          0  MISS:          0
cpu0_L1I TOTAL     ACCESS:      49446  HIT:      49446  MISS:          0
cpu0_L1I LOAD      ACCESS:      49446  HIT:      49446  MISS:          0
cpu0_L1I RFO       ACCESS:          0  HIT:          0  MISS:          0
cpu0_L1I PREFETCH  ACCESS:          0  HIT:          0  MISS:          0
cpu0_L1I WRITEBACK ACCESS:          0  HIT:          0  MISS:          0
cpu0_STLB TOTAL     ACCESS:       3213  HIT:       2439  MISS:        774
cpu0_STLB LOAD      ACCESS:       2475  HIT:       1903  MISS:        572
cpu0_STLB RFO       ACCESS:        738  HIT:        536  MISS:        202
cpu0_STLB PREFETCH  ACCESS:          0  HIT:          0  MISS:          0
cpu0_STLB WRITEBACK ACCESS:          0  HIT:          0  MISS:          0
cpu0_L1D TOTAL     ACCESS:    3855327  HIT:    3734201  MISS:     121126
cpu0_L1D LOAD      ACCESS:    3366136  HIT:    3269967  MISS:      96169
cpu0_L1D RFO       ACCESS:     488439  HIT:     463742  MISS:      24697
cpu0_L1D PREFETCH  ACCESS:          0  HIT:          0  MISS:          0
cpu0_L1D WRITEBACK ACCESS:          0  HIT:          0  MISS:          0
cpu0_L2C TOTAL     ACCESS:     154009  HIT:      75451  MISS:      78558
cpu0_L2C LOAD      ACCESS:      96167  HIT:      30302  MISS:      65865
cpu0_L2C RFO       ACCESS:      24697  HIT:      12013  MISS:      12684
cpu0_L2C PREFETCH  ACCESS:          0  HIT:          0  MISS:          0
cpu0_L2C WRITEBACK ACCESS:      32885  HIT:      32876  MISS:          9
LLC TOTAL     ACCESS:      90970  HIT:      12863  MISS:      78107
LLC LOAD      ACCESS:      65865  HIT:        459  MISS:      65406
LLC RFO       ACCESS:      12684  HIT:          4  MISS:      12680
LLC PREFETCH  ACCESS:          0  HIT:          0  MISS:          0
LLC WRITEBACK ACCESS:      12421  HIT:      12400  MISS:         21
Heartbeat CPU 0 instructions: 66000003 cycles: 32533985 heartbeat IPC: 1.17314 cumulative IPC: 1.17719 (Simulation time: 0 hr 57 min 45 sec) 

Region of Interest Statistics
cpu0_DTLB TOTAL     ACCESS:    4102106  HIT:    4098382  MISS:       3724
cpu0_DTLB LOAD      ACCESS:    3719466  HIT:    3716588  MISS:       2878
cpu0_DTLB RFO       ACCESS:     382640  HIT:     381794  MISS:        846
cpu0_DTLB PREFETCH  ACCESS:          0  HIT:          0  MISS:          0
cpu0_DTLB WRITEBACK ACCESS:          0  HIT:          0  MISS:          0
cpu0_ITLB TOTAL     ACCESS:     165229  HIT:     165229  MISS:          0
cpu0_ITLB LOAD      ACCESS:     165229  HIT:     165229  MISS:          0
cpu0_ITLB RFO       ACCESS:          0  HIT:          0  MISS:          0
cpu0_ITLB PREFETCH  ACCESS:          0  HIT:          0  MISS:          0
cpu0_ITLB WRITEBACK ACCESS:          0  HIT:          0  MISS:          0
cpu0_L1I TOTAL     ACCESS:      56553  HIT:      56553  MISS:          0
cpu0_L1I LOAD      ACCESS:      56553  HIT:      56553  MISS:          0
cpu0_L1I RFO       ACCESS:          0  HIT:          0  MISS:          0
cpu0_L1I PREFETCH  ACCESS:          0  HIT:          0  MISS:          0
cpu0_L1I WRITEBACK ACCESS:          0  HIT:          0  MISS:          0
cpu0_STLB TOTAL     ACCESS:       3724  HIT:       2846  MISS:        878
cpu0_STLB LOAD      ACCESS:       2878  HIT:       2231  MISS:        647
cpu0_STLB RFO       ACCESS:        846  HIT:        615  MISS:        231
cpu0_STLB PREFETCH  ACCESS:          0  HIT:          0  MISS:          0
cpu0_STLB WRITEBACK ACCESS:          0  HIT:          0  MISS:          0
cpu0_L1D TOTAL     ACCESS:    4406465  HIT:    4267989  MISS:     138476
cpu0_L1D LOAD      ACCESS:    3847463  HIT:    3737578  MISS:     109885
cpu0_L1D RFO       ACCESS:     558148  HIT:     529853  MISS:      28295
cpu0_L1D PREFETCH  ACCESS:          0  HIT:          0  MISS:          0
cpu0_L1D WRITEBACK ACCESS:          0  HIT:          0  MISS:          0
cpu0_L2C TOTAL     ACCESS:     176096  HIT:      86331  MISS:      89765
cpu0_L2C LOAD      ACCESS:     109883  HIT:      34621  MISS:      75262
cpu0_L2C RFO       ACCESS:      28295  HIT:      13801  MISS:      14494
cpu0_L2C PREFETCH  ACCESS:          0  HIT:          0  MISS:          0
cpu0_L2C WRITEBACK ACCESS:      37622  HIT:      37613  MISS:          9
LLC TOTAL     ACCESS:     104113  HIT:      14799  MISS:      89314
LLC LOAD      ACCESS:      75262  HIT:        459  MISS:      74803
LLC RFO       ACCESS:      14494  HIT:          4  MISS:      14490
LLC PREFETCH  ACCESS:          0  HIT:          0  MISS:          0
LLC WRITEBACK ACCESS:      14357  HIT:      14336  MISS:         21
Heartbeat CPU 0 instructions: 68000002 cycles: 34236779 heartbeat IPC: 1.17454 cumulative IPC: 1.17689 (Simulation time: 1 hr 0 min 10 sec) 

Region of Interest Statistics
cpu0_DTLB TOTAL     ACCESS:    4614637  HIT:    4610472  MISS:       4165
cpu0_DTLB LOAD      ACCESS:    4184005  HIT:    4180790  MISS:       3215
cpu0_DTLB RFO       ACCESS:     430632  HIT:     429682  MISS:        950
cpu0_DTLB PREFETCH  ACCESS:          0  HIT:          0  MISS:          0
cpu0_DTLB WRITEBACK ACCESS:          0  HIT:          0  MISS:          0
cpu0_ITLB TOTAL     ACCESS:     186000  HIT:     186000  MISS:          0
cpu0_ITLB LOAD      ACCESS:     186000  HIT:     186000  MISS:          0
cpu0_ITLB RFO       ACCESS:          0  HIT:          0  MISS:          0
cpu0_ITLB PREFETCH  ACCESS:          0  HIT:          0  MISS:          0
cpu0_ITLB WRITEBACK ACCESS:          0  HIT:          0  MISS:          0
cpu0_L1I TOTAL     ACCESS:      63660  HIT:      63660  MISS:          0
cpu0_L1I LOAD      ACCESS:      63660  HIT:      63660  MISS:          0
cpu0_L1I RFO       ACCESS:          0  HIT:          0  MISS:          0
cpu0_L1I PREFETCH  ACCESS:          0  HIT:          0  MISS:          0
cpu0_L1I WRITEBACK ACCESS:          0  HIT:          0  MISS:          0
cpu0_STLB TOTAL     ACCESS:       4165  HIT:       3178  MISS:        987
cpu0_STLB LOAD      ACCESS:       3215  HIT:       2487  MISS:        728
cpu0_STLB RFO       ACCESS:        950  HIT:        691  MISS:        259
cpu0_STLB PREFETCH  ACCESS:          0  HIT:          0  MISS:          0
cpu0_STLB WRITEBACK ACCESS:          0  HIT:          0  MISS:          0
cpu0_L1D TOTAL     ACCESS:    4957861  HIT:    4802007  MISS:     155854
cpu0_L1D LOAD      ACCESS:    4329145  HIT:    4205485  MISS:     123660
cpu0_L1D RFO       ACCESS:     627755  HIT:     595897  MISS:      31858
cpu0_L1D PREFETCH  ACCESS:          0  HIT:          0  MISS:          0
cpu0_L1D WRITEBACK ACCESS:          0  HIT:          0  MISS:          0
cpu0_L2C TOTAL     ACCESS:     198210  HIT:      97251  MISS:     100959
cpu0_L2C LOAD      ACCESS:     123658  HIT:      39013  MISS:      84645
cpu0_L2C RFO       ACCESS:      31858  HIT:      15554  MISS:      16304
cpu0_L2C PREFETCH  ACCESS:          0  HIT:          0  MISS:          0
cpu0_L2C WRITEBACK ACCESS:      42358  HIT:      42349  MISS:          9
LLC TOTAL     ACCESS:     116911  HIT:      16548  MISS:     100363
LLC LOAD      ACCESS:      84645  HIT:        604  MISS:      84041
LLC RFO       ACCESS:      16304  HIT:          4  MISS:      16300
LLC PREFETCH  ACCESS:          0  HIT:          0  MISS:          0
LLC WRITEBACK ACCESS:      15961  HIT:      15940  MISS:         21
Heartbeat CPU 0 instructions: 70000003 cycles: 35942246 heartbeat IPC: 1.1727 cumulative IPC: 1.17647 (Simulation time: 1 hr 2 min 36 sec) 

Region of Interest Statistics
cpu0_DTLB TOTAL     ACCESS:    5127276  HIT:    5122615  MISS:       4661
cpu0_DTLB LOAD      ACCESS:    4648686  HIT:    4645082  MISS:       3604
cpu0_DTLB RFO       ACCESS:     478590  HIT:     477533  MISS:       1057
cpu0_DTLB PREFETCH  ACCESS:          0  HIT:          0  MISS:          0
cpu0_DTLB WRITEBACK ACCESS:          0  HIT:          0  MISS:          0
cpu0_ITLB TOTAL     ACCESS:     206619  HIT:     206619  MISS:          0
cpu0_ITLB LOAD      ACCESS:     206619  HIT:     206619  MISS:          0
cpu0_ITLB RFO       ACCESS:          0  HIT:          0  MISS:          0
cpu0_ITLB PREFETCH  ACCESS:          0  HIT:          0  MISS:          0
cpu0_ITLB WRITEBACK ACCESS:          0  HIT:          0  MISS:          0
cpu0_L1I TOTAL     ACCESS:      70767  HIT:      70767  MISS:          0
cpu0_L1I LOAD      ACCESS:      70767  HIT:      70767  MISS:          0
cpu0_L1I RFO       ACCESS:          0  HIT:          0  MISS:          0
cpu0_L1I PREFETCH  ACCESS:          0  HIT:          0  MISS:          0
cpu0_L1I WRITEBACK ACCESS:          0  HIT:          0  MISS:          0
cpu0_STLB TOTAL     ACCESS:       4661  HIT:       3545  MISS:       1116
cpu0_STLB LOAD      ACCESS:       3604  HIT:       2780  MISS:        824
cpu0_STLB RFO       ACCESS:       1057  HIT:        765  MISS:        292
cpu0_STLB PREFETCH  ACCESS:          0  HIT:          0  MISS:          0
cpu0_STLB WRITEBACK ACCESS:          0  HIT:          0  MISS:          0
cpu0_L1D TOTAL     ACCESS:    5508768  HIT:    5335510  MISS:     173258
cpu0_L1D LOAD      ACCESS:    4810125  HIT:    4672608  MISS:     137517
cpu0_L1D RFO       ACCESS:     697559  HIT:     662191  MISS:      35368
cpu0_L1D PREFETCH  ACCESS:          0  HIT:          0  MISS:          0
cpu0_L1D WRITEBACK ACCESS:          0  HIT:          0  MISS:          0
cpu0_L2C TOTAL     ACCESS:     220269  HIT:     107909  MISS:     112360
cpu0_L2C LOAD      ACCESS:     137515  HIT:      43284  MISS:      94231
cpu0_L2C RFO       ACCESS:      35368  HIT:      17249  MISS:      18119
cpu0_L2C PREFETCH  ACCESS:          0  HIT:          0  MISS:          0
cpu0_L2C WRITEBACK ACCESS:      47013  HIT:      47004  MISS:          9
LLC TOTAL     ACCESS:     130337  HIT:      18659  MISS:     111678
LLC LOAD      ACCESS:      94231  HIT:        690  MISS:      93541
LLC RFO       ACCESS:      18119  HIT:          4  MISS:      18115
LLC PREFETCH  ACCESS:          0  HIT:          0  MISS:          0
LLC WRITEBACK ACCESS:      17986  HIT:      17965  MISS:         21
Heartbeat CPU 0 instructions: 72000001 cycles: 37635715 heartbeat IPC: 1.18101 cumulative IPC: 1.17688 (Simulation time: 1 hr 5 min 0 sec) 

Region of Interest Statistics
cpu0_DTLB TOTAL     ACCESS:    5640643  HIT:    5635487  MISS:       5156
cpu0_DTLB LOAD      ACCESS:    5114003  HIT:    5110017  MISS:       3986
cpu0_DTLB RFO       ACCESS:     526640  HIT:     525470  MISS:       1170
cpu0_DTLB PREFETCH  ACCESS:          0  HIT:          0  MISS:          0
cpu0_DTLB WRITEBACK ACCESS:          0  HIT:          0  MISS:          0
cpu0_ITLB TOTAL     ACCESS:     227251  HIT:     227251  MISS:          0
cpu0_ITLB LOAD      ACCESS:     227251  HIT:     227251  MISS:          0
cpu0_ITLB RFO       ACCESS:          0  HIT:          0  MISS:          0
cpu0_ITLB PREFETCH  ACCESS:          0  HIT:          0  MISS:          0
cpu0_ITLB WRITEBACK ACCESS:          0  HIT:          0  MISS:          0
cpu0_L1I TOTAL     ACCESS:      77874  HIT:      77874  MISS:          0
cpu0_L1I LOAD      ACCESS:      77874  HIT:      77874  MISS:          0
cpu0_L1I RFO       ACCESS:          0  HIT:          0  MISS:          0
cpu0_L1I PREFETCH  ACCESS:          0  HIT:          0  MISS:          0
cpu0_L1I WRITEBACK ACCESS:          0  HIT:          0  MISS:          0
cpu0_STLB TOTAL     ACCESS:       5156  HIT:       3932  MISS:       1224
cpu0_STLB LOAD      ACCESS:       3986  HIT:       3082  MISS:        904
cpu0_STLB RFO       ACCESS:       1170  HIT:        850  MISS:        320
cpu0_STLB PREFETCH  ACCESS:          0  HIT:          0  MISS:          0
cpu0_STLB WRITEBACK ACCESS:          0  HIT:          0  MISS:          0
cpu0_L1D TOTAL     ACCESS:    6059927  HIT:    5869279  MISS:     190648
cpu0_L1D LOAD      ACCESS:    5291628  HIT:    5140370  MISS:     151258
cpu0_L1D RFO       ACCESS:     767109  HIT:     728128  MISS:      38981
cpu0_L1D PREFETCH  ACCESS:          0  HIT:          0  MISS:          0
cpu0_L1D WRITEBACK ACCESS:          0  HIT:          0  MISS:          0
cpu0_L2C TOTAL     ACCESS:     242416  HIT:     118859  MISS:     123557
cpu0_L2C LOAD      ACCESS:     151256  HIT:      47634  MISS:     103622
cpu0_L2C RFO       ACCESS:      38981  HIT:      19056  MISS:      19925
cpu0_L2C PREFETCH  ACCESS:          0  HIT:          0  MISS:          0
cpu0_L2C WRITEBACK ACCESS:      51770  HIT:      51761  MISS:          9
LLC TOTAL     ACCESS:     143287  HIT:      20464  MISS:     122823
LLC LOAD      ACCESS:     103622  HIT:        750  MISS:     102872
LLC RFO       ACCESS:      19925  HIT:          4  MISS:      19921
LLC PREFETCH  ACCESS:          0  HIT:          0  MISS:          0
LLC WRITEBACK ACCESS:      19739  HIT:      19710  MISS:         29
Heartbeat CPU 0 instructions: 74000002 cycles: 39334210 heartbeat IPC: 1.17751 cumulative IPC: 1.17694 (Simulation time: 1 hr 7 min 26 sec) 

Region of Interest Statistics
cpu0_DTLB TOTAL     ACCESS:    6153371  HIT:    6147811  MISS:       5560
cpu0_DTLB LOAD      ACCESS:    5578721  HIT:    5574428  MISS:       4293
cpu0_DTLB RFO       ACCESS:     574650  HIT:     573383  MISS:       1267
cpu0_DTLB PREFETCH  ACCESS:          0  HIT:          0  MISS:          0
cpu0_DTLB WRITEBACK ACCESS:          0  HIT:          0  MISS:          0
cpu0_ITLB TOTAL     ACCESS:     247719  HIT:     247719  MISS:          0
cpu0_ITLB LOAD      ACCESS:     247719  HIT:     247719  MISS:          0
cpu0_ITLB RFO       ACCESS:          0  HIT:          0  MISS:          0
cpu0_ITLB PREFETCH  ACCESS:          0  HIT:          0  MISS:          0
cpu0_ITLB WRITEBACK ACCESS:          0  HIT:          0  MISS:          0
cpu0_L1I TOTAL     ACCESS:      84981  HIT:      84981  MISS:          0
cpu0_L1I LOAD      ACCESS:      84981  HIT:      84981  MISS:          0
cpu0_L1I RFO       ACCESS:          0  HIT:          0  MISS:          0
cpu0_L1I PREFETCH  ACCESS:          0  HIT:          0  MISS:          0
cpu0_L1I WRITEBACK ACCESS:          0  HIT:          0  MISS:          0
cpu0_STLB TOTAL     ACCESS:       5560  HIT:       4224  MISS:       1336
cpu0_STLB LOAD      ACCESS:       4293  HIT:       3306  MISS:        987
cpu0_STLB RFO       ACCESS:       1267  HIT:        918  MISS:        349
cpu0_STLB PREFETCH  ACCESS:          0  HIT:          0  MISS:          0
cpu0_STLB WRITEBACK ACCESS:          0  HIT:          0  MISS:          0
cpu0_L1D TOTAL     ACCESS:    6611887  HIT:    6403956  MISS:     207931
cpu0_L1D LOAD      ACCESS:    5773514  HIT:    5608469  MISS:     165045
cpu0_L1D RFO       ACCESS:     837074  HIT:     794635  MISS:      42439
cpu0_L1D PREFETCH  ACCESS:          0  HIT:          0  MISS:          0
cpu0_L1D WRITEBACK ACCESS:          0  HIT:          0  MISS:          0
cpu0_L2C TOTAL     ACCESS:     264389  HIT:     129625  MISS:     134764
cpu0_L2C LOAD      ACCESS:     165043  HIT:      51995  MISS:     113048
cpu0_L2C RFO       ACCESS:      42439  HIT:      20733  MISS:      21706
cpu0_L2C PREFETCH  ACCESS:          0  HIT:          0  MISS:          0
cpu0_L2C WRITEBACK ACCESS:      56460  HIT:      56451  MISS:          9
LLC TOTAL     ACCESS:     156237  HIT:      22323  MISS:     133914
LLC LOAD      ACCESS:     113048  HIT:        866  MISS:     112182
LLC RFO       ACCESS:      21706  HIT:          4  MISS:      21702
LLC PREFETCH  ACCESS:          0  HIT:          0  MISS:          0
LLC WRITEBACK ACCESS:      21482  HIT:      21453  MISS:         29
Heartbeat CPU 0 instructions: 76000001 cycles: 41028060 heartbeat IPC: 1.18074 cumulative IPC: 1.17723 (Simulation time: 1 hr 9 min 48 sec) 

Region of Interest Statistics
cpu0_DTLB TOTAL     ACCESS:    6666325  HIT:    6660244  MISS:       6081
cpu0_DTLB LOAD      ACCESS:    6043891  HIT:    6039189  MISS:       4702
cpu0_DTLB RFO       ACCESS:     622434  HIT:     621055  MISS:       1379
cpu0_DTLB PREFETCH  ACCESS:          0  HIT:          0  MISS:          0
cpu0_DTLB WRITEBACK ACCESS:          0  HIT:          0  MISS:          0
cpu0_ITLB TOTAL     ACCESS:     268237  HIT:     268237  MISS:          0
cpu0_ITLB LOAD      ACCESS:     268237  HIT:     268237  MISS:          0
cpu0_ITLB RFO       ACCESS:          0  HIT:          0  MISS:          0
cpu0_ITLB PREFETCH  ACCESS:          0  HIT:          0  MISS:          0
cpu0_ITLB WRITEBACK ACCESS:          0  HIT:          0  MISS:          0
cpu0_L1I TOTAL     ACCESS:      92088  HIT:      92088  MISS:          0
cpu0_L1I LOAD      ACCESS:      92088  HIT:      92088  MISS:          0
cpu0_L1I RFO       ACCESS:          0  HIT:          0  MISS:          0
cpu0_L1I PREFETCH  ACCESS:          0  HIT:          0  MISS:          0
cpu0_L1I WRITEBACK ACCESS:          0  HIT:          0  MISS:          0
cpu0_STLB TOTAL     ACCESS:       6081  HIT:       4646  MISS:       1435
cpu0_STLB LOAD      ACCESS:       4702  HIT:       3642  MISS:       1060
cpu0_STLB RFO       ACCESS:       1379  HIT:       1004  MISS:        375
cpu0_STLB PREFETCH  ACCESS:          0  HIT:          0  MISS:          0
cpu0_STLB WRITEBACK ACCESS:          0  HIT:          0  MISS:          0
cpu0_L1D TOTAL     ACCESS:    7163079  HIT:    6937867  MISS:     225212
cpu0_L1D LOAD      ACCESS:    6254596  HIT:    6075811  MISS:     178785
cpu0_L1D RFO       ACCESS:     907088  HIT:     861141  MISS:      45947
cpu0_L1D PREFETCH  ACCESS:          0  HIT:          0  MISS:          0
cpu0_L1D WRITEBACK ACCESS:          0  HIT:          0  MISS:          0
cpu0_L2C TOTAL     ACCESS:     286375  HIT:     140425  MISS:     145950
cpu0_L2C LOAD      ACCESS:     178783  HIT:      56323  MISS:     122460
cpu0_L2C RFO       ACCESS:      45947  HIT:      22467  MISS:      23480
cpu0_L2C PREFETCH  ACCESS:          0  HIT:          0  MISS:          0
cpu0_L2C WRITEBACK ACCESS:      61165  HIT:      61156  MISS:          9
LLC TOTAL     ACCESS:     169268  HIT:      24254  MISS:     145014
LLC LOAD      ACCESS:     122460  HIT:        952  MISS:     121508
LLC RFO       ACCESS:      23480  HIT:          4  MISS:      23476
LLC PREFETCH  ACCESS:          0  HIT:          0  MISS:          0
LLC WRITEBACK ACCESS:      23327  HIT:      23298  MISS:         29
Heartbeat CPU 0 instructions: 78000001 cycles: 42733339 heartbeat IPC: 1.17283 cumulative IPC: 1.17691 (Simulation time: 1 hr 12 min 7 sec) 

Region of Interest Statistics
cpu0_DTLB TOTAL     ACCESS:    7179044  HIT:    7172480  MISS:       6564
cpu0_DTLB LOAD      ACCESS:    6508984  HIT:    6503908  MISS:       5076
cpu0_DTLB RFO       ACCESS:     670060  HIT:     668572  MISS:       1488
cpu0_DTLB PREFETCH  ACCESS:          0  HIT:          0  MISS:          0
cpu0_DTLB WRITEBACK ACCESS:          0  HIT:          0  MISS:          0
cpu0_ITLB TOTAL     ACCESS:     288694  HIT:     288694  MISS:          0
cpu0_ITLB LOAD      ACCESS:     288694  HIT:     288694  MISS:          0
cpu0_ITLB RFO       ACCESS:          0  HIT:          0  MISS:          0
cpu0_ITLB PREFETCH  ACCESS:          0  HIT:          0  MISS:          0
cpu0_ITLB WRITEBACK ACCESS:          0  HIT:          0  MISS:          0
cpu0_L1I TOTAL     ACCESS:      99195  HIT:      99195  MISS:          0
cpu0_L1I LOAD      ACCESS:      99195  HIT:      99195  MISS:          0
cpu0_L1I RFO       ACCESS:          0  HIT:          0  MISS:          0
cpu0_L1I PREFETCH  ACCESS:          0  HIT:          0  MISS:          0
cpu0_L1I WRITEBACK ACCESS:          0  HIT:          0  MISS:          0
cpu0_STLB TOTAL     ACCESS:       6564  HIT:       5018  MISS:       1546
cpu0_STLB LOAD      ACCESS:       5076  HIT:       3934  MISS:       1142
cpu0_STLB RFO       ACCESS:       1488  HIT:       1084  MISS:        404
cpu0_STLB PREFETCH  ACCESS:          0  HIT:          0  MISS:          0
cpu0_STLB WRITEBACK ACCESS:          0  HIT:          0  MISS:          0
cpu0_L1D TOTAL     ACCESS:    7713275  HIT:    7470696  MISS:     242579
cpu0_L1D LOAD      ACCESS:    6734974  HIT:    6542437  MISS:     192537
cpu0_L1D RFO       ACCESS:     976798  HIT:     927274  MISS:      49524
cpu0_L1D PREFETCH  ACCESS:          0  HIT:          0  MISS:          0
cpu0_L1D WRITEBACK ACCESS:          0  HIT:          0  MISS:          0
cpu0_L2C TOTAL     ACCESS:     308501  HIT:     151330  MISS:     157171
cpu0_L2C LOAD      ACCESS:     192533  HIT:      60656  MISS:     131877
cpu0_L2C RFO       ACCESS:      49524  HIT:      24240  MISS:      25284
cpu0_L2C PREFETCH  ACCESS:          0  HIT:          0  MISS:          0
cpu0_L2C WRITEBACK ACCESS:      65926  HIT:      65917  MISS:          9
LLC TOTAL     ACCESS:     182352  HIT:      26130  MISS:     156222
LLC LOAD      ACCESS:     131877  HIT:        965  MISS:     130912
LLC RFO       ACCESS:      25284  HIT:          4  MISS:      25280
LLC PREFETCH  ACCESS:          0  HIT:          0  MISS:          0
LLC WRITEBACK ACCESS:      25190  HIT:      25161  MISS:         29
Heartbeat CPU 0 instructions: 80000001 cycles: 44451530 heartbeat IPC: 1.16401 cumulative IPC: 1.17604 (Simulation time: 1 hr 14 min 25 sec) 

Region of Interest Statistics
cpu0_DTLB TOTAL     ACCESS:    7691581  HIT:    7684547  MISS:       7034
cpu0_DTLB LOAD      ACCESS:    6973771  HIT:    6968328  MISS:       5443
cpu0_DTLB RFO       ACCESS:     717810  HIT:     716219  MISS:       1591
cpu0_DTLB PREFETCH  ACCESS:          0  HIT:          0  MISS:          0
cpu0_DTLB WRITEBACK ACCESS:          0  HIT:          0  MISS:          0
cpu0_ITLB TOTAL     ACCESS:     309404  HIT:     309404  MISS:          0
cpu0_ITLB LOAD      ACCESS:     309404  HIT:     309404  MISS:          0
cpu0_ITLB RFO       ACCESS:          0  HIT:          0  MISS:          0
cpu0_ITLB PREFETCH  ACCESS:          0  HIT:          0  MISS:          0
cpu0_ITLB WRITEBACK ACCESS:          0  HIT:          0  MISS:          0
cpu0_L1I TOTAL     ACCESS:     106302  HIT:     106302  MISS:          0
cpu0_L1I LOAD      ACCESS:     106302  HIT:     106302  MISS:          0
cpu0_L1I RFO       ACCESS:          0  HIT:          0  MISS:          0
cpu0_L1I PREFETCH  ACCESS:          0  HIT:          0  MISS:          0
cpu0_L1I WRITEBACK ACCESS:          0  HIT:          0  MISS:          0
cpu0_STLB TOTAL     ACCESS:       7034  HIT:       5360  MISS:       1674
cpu0_STLB LOAD      ACCESS:       5443  HIT:       4205  MISS:       1238
cpu0_STLB RFO       ACCESS:       1591  HIT:       1155  MISS:        436
cpu0_STLB PREFETCH  ACCESS:          0  HIT:          0  MISS:          0
cpu0_STLB WRITEBACK ACCESS:          0  HIT:          0  MISS:          0
cpu0_L1D TOTAL     ACCESS:    8263085  HIT:    8003095  MISS:     259990
cpu0_L1D LOAD      ACCESS:    7214708  HIT:    7008290  MISS:     206418
cpu0_L1D RFO       ACCESS:    1046750  HIT:     993734  MISS:      53016
cpu0_L1D PREFETCH  ACCESS:          0  HIT:          0  MISS:          0
cpu0_L1D WRITEBACK ACCESS:          0  HIT:          0  MISS:          0
cpu0_L2C TOTAL     ACCESS:     330606  HIT:     161933  MISS:     168673
cpu0_L2C LOAD      ACCESS:     206414  HIT:      64887  MISS:     141527
cpu0_L2C RFO       ACCESS:      53016  HIT:      25901  MISS:      27115
cpu0_L2C PREFETCH  ACCESS:          0  HIT:          0  MISS:          0
cpu0_L2C WRITEBACK ACCESS:      70620  HIT:      70590  MISS:         30
LLC TOTAL     ACCESS:     195575  HIT:      27927  MISS:     167648
LLC LOAD      ACCESS:     141527  HIT:       1073  MISS:     140454
LLC RFO       ACCESS:      27115  HIT:         20  MISS:      27095
LLC PREFETCH  ACCESS:          0  HIT:          0  MISS:          0
LLC WRITEBACK ACCESS:      26932  HIT:      26834  MISS:         98
Heartbeat CPU 0 instructions: 82000001 cycles: 46154032 heartbeat IPC: 1.17474 cumulative IPC: 1.17596 (Simulation time: 1 hr 16 min 47 sec) 

Region of Interest Statistics
cpu0_DTLB TOTAL     ACCESS:    8204213  HIT:    8196647  MISS:       7566
cpu0_DTLB LOAD      ACCESS:    7438478  HIT:    7432616  MISS:       5862
cpu0_DTLB RFO       ACCESS:     765735  HIT:     764031  MISS:       1704
cpu0_DTLB PREFETCH  ACCESS:          0  HIT:          0  MISS:          0
cpu0_DTLB WRITEBACK ACCESS:          0  HIT:          0  MISS:          0
cpu0_ITLB TOTAL     ACCESS:     329899  HIT:     329899  MISS:          0
cpu0_ITLB LOAD      ACCESS:     329899  HIT:     329899  MISS:          0
cpu0_ITLB RFO       ACCESS:          0  HIT:          0  MISS:          0
cpu0_ITLB PREFETCH  ACCESS:          0  HIT:          0  MISS:          0
cpu0_ITLB WRITEBACK ACCESS:          0  HIT:          0  MISS:          0
cpu0_L1I TOTAL     ACCESS:     113409  HIT:     113409  MISS:          0
cpu0_L1I LOAD      ACCESS:     113409  HIT:     113409  MISS:          0
cpu0_L1I RFO       ACCESS:          0  HIT:          0  MISS:          0
cpu0_L1I PREFETCH  ACCESS:          0  HIT:          0  MISS:          0
cpu0_L1I WRITEBACK ACCESS:          0  HIT:          0  MISS:          0
cpu0_STLB TOTAL     ACCESS:       7566  HIT:       5781  MISS:       1785
cpu0_STLB LOAD      ACCESS:       5862  HIT:       4542  MISS:       1320
cpu0_STLB RFO       ACCESS:       1704  HIT:       1239  MISS:        465
cpu0_STLB PREFETCH  ACCESS:          0  HIT:          0  MISS:          0
cpu0_STLB WRITEBACK ACCESS:          0  HIT:          0  MISS:          0
cpu0_L1D TOTAL     ACCESS:    8813658  HIT:    8536362  MISS:     277296
cpu0_L1D LOAD      ACCESS:    7695582  HIT:    7475471  MISS:     220111
cpu0_L1D RFO       ACCESS:    1116341  HIT:    1059749  MISS:      56592
cpu0_L1D PREFETCH  ACCESS:          0  HIT:          0  MISS:          0
cpu0_L1D WRITEBACK ACCESS:          0  HIT:          0  MISS:          0
cpu0_L2C TOTAL     ACCESS:     352646  HIT:     172689  MISS:     179957
cpu0_L2C LOAD      ACCESS:     220107  HIT:      69122  MISS:     150985
cpu0_L2C RFO       ACCESS:      56592  HIT:      27666  MISS:      28926
cpu0_L2C PREFETCH  ACCESS:          0  HIT:          0  MISS:          0
cpu0_L2C WRITEBACK ACCESS:      75354  HIT:      75309  MISS:         45
LLC TOTAL     ACCESS:     208827  HIT:      30001  MISS:     178826
LLC LOAD      ACCESS:     150985  HIT:       1189  MISS:     149796
LLC RFO       ACCESS:      28926  HIT:         21  MISS:      28905
LLC PREFETCH  ACCESS:          0  HIT:          0  MISS:          0
LLC WRITEBACK ACCESS:      28915  HIT:      28791  MISS:        124
Heartbeat CPU 0 instructions: 84000002 cycles: 47856056 heartbeat IPC: 1.17507 cumulative IPC: 1.17591 (Simulation time: 1 hr 19 min 11 sec) 

Region of Interest Statistics
cpu0_DTLB TOTAL     ACCESS:    8717021  HIT:    8709036  MISS:       7985
cpu0_DTLB LOAD      ACCESS:    7903320  HIT:    7897142  MISS:       6178
cpu0_DTLB RFO       ACCESS:     813701  HIT:     811894  MISS:       1807
cpu0_DTLB PREFETCH  ACCESS:          0  HIT:          0  MISS:          0
cpu0_DTLB WRITEBACK ACCESS:          0  HIT:          0  MISS:          0
cpu0_ITLB TOTAL     ACCESS:     350624  HIT:     350624  MISS:          0
cpu0_ITLB LOAD      ACCESS:     350624  HIT:     350624  MISS:          0
cpu0_ITLB RFO       ACCESS:          0  HIT:          0  MISS:          0
cpu0_ITLB PREFETCH  ACCESS:          0  HIT:          0  MISS:          0
cpu0_ITLB WRITEBACK ACCESS:          0  HIT:          0  MISS:          0
cpu0_L1I TOTAL     ACCESS:     120207  HIT:     120207  MISS:          0
cpu0_L1I LOAD      ACCESS:     120207  HIT:     120207  MISS:          0
cpu0_L1I RFO       ACCESS:          0  HIT:          0  MISS:          0
cpu0_L1I PREFETCH  ACCESS:          0  HIT:          0  MISS:          0
cpu0_L1I WRITEBACK ACCESS:          0  HIT:          0  MISS:          0
cpu0_STLB TOTAL     ACCESS:       7985  HIT:       6098  MISS:       1887
cpu0_STLB LOAD      ACCESS:       6178  HIT:       4784  MISS:       1394
cpu0_STLB RFO       ACCESS:       1807  HIT:       1314  MISS:        493
cpu0_STLB PREFETCH  ACCESS:          0  HIT:          0  MISS:          0
cpu0_STLB WRITEBACK ACCESS:          0  HIT:          0  MISS:          0
cpu0_L1D TOTAL     ACCESS:    9364254  HIT:    9069635  MISS:     294619
cpu0_L1D LOAD      ACCESS:    8176399  HIT:    7942547  MISS:     233852
cpu0_L1D RFO       ACCESS:    1186022  HIT:    1125888  MISS:      60134
cpu0_L1D PREFETCH  ACCESS:          0  HIT:          0  MISS:          0
cpu0_L1D WRITEBACK ACCESS:          0  HIT:          0  MISS:          0
cpu0_L2C TOTAL     ACCESS:     374695  HIT:     183532  MISS:     191163
cpu0_L2C LOAD      ACCESS:     233848  HIT:      73472  MISS:     160376
cpu0_L2C RFO       ACCESS:      60134  HIT:      29393  MISS:      30741
cpu0_L2C PREFETCH  ACCESS:          0  HIT:          0  MISS:          0
cpu0_L2C WRITEBACK ACCESS:      80080  HIT:      80035  MISS:         45
LLC TOTAL     ACCESS:     221623  HIT:      31791  MISS:     189832
LLC LOAD      ACCESS:     160376  HIT:       1390  MISS:     158986
LLC RFO       ACCESS:      30741  HIT:         21  MISS:      30720
LLC PREFETCH  ACCESS:          0  HIT:          0  MISS:          0
LLC WRITEBACK ACCESS:      30505  HIT:      30380  MISS:        125
Heartbeat CPU 0 instructions: 86000002 cycles: 49541861 heartbeat IPC: 1.18638 cumulative IPC: 1.17649 (Simulation time: 1 hr 21 min 35 sec) 

Region of Interest Statistics
cpu0_DTLB TOTAL     ACCESS:    9229960  HIT:    9221505  MISS:       8455
cpu0_DTLB LOAD      ACCESS:    8368251  HIT:    8361708  MISS:       6543
cpu0_DTLB RFO       ACCESS:     861709  HIT:     859797  MISS:       1912
cpu0_DTLB PREFETCH  ACCESS:          0  HIT:          0  MISS:          0
cpu0_DTLB WRITEBACK ACCESS:          0  HIT:          0  MISS:          0
cpu0_ITLB TOTAL     ACCESS:     371621  HIT:     371621  MISS:          0
cpu0_ITLB LOAD      ACCESS:     371621  HIT:     371621  MISS:          0
cpu0_ITLB RFO       ACCESS:          0  HIT:          0  MISS:          0
cpu0_ITLB PREFETCH  ACCESS:          0  HIT:          0  MISS:          0
cpu0_ITLB WRITEBACK ACCESS:          0  HIT:          0  MISS:          0
cpu0_L1I TOTAL     ACCESS:     127314  HIT:     127314  MISS:          0
cpu0_L1I LOAD      ACCESS:     127314  HIT:     127314  MISS:          0
cpu0_L1I RFO       ACCESS:          0  HIT:          0  MISS:          0
cpu0_L1I PREFETCH  ACCESS:          0  HIT:          0  MISS:          0
cpu0_L1I WRITEBACK ACCESS:          0  HIT:          0  MISS:          0
cpu0_STLB TOTAL     ACCESS:       8455  HIT:       6458  MISS:       1997
cpu0_STLB LOAD      ACCESS:       6543  HIT:       5067  MISS:       1476
cpu0_STLB RFO       ACCESS:       1912  HIT:       1391  MISS:        521
cpu0_STLB PREFETCH  ACCESS:          0  HIT:          0  MISS:          0
cpu0_STLB WRITEBACK ACCESS:          0  HIT:          0  MISS:          0
cpu0_L1D TOTAL     ACCESS:    9915295  HIT:    9603455  MISS:     311840
cpu0_L1D LOAD      ACCESS:    8657407  HIT:    8409859  MISS:     247548
cpu0_L1D RFO       ACCESS:    1255947  HIT:    1192322  MISS:      63625
cpu0_L1D PREFETCH  ACCESS:          0  HIT:          0  MISS:          0
cpu0_L1D WRITEBACK ACCESS:          0  HIT:          0  MISS:          0
cpu0_L2C TOTAL     ACCESS:     396544  HIT:     194248  MISS:     202296
cpu0_L2C LOAD      ACCESS:     247544  HIT:      77845  MISS:     169699
cpu0_L2C RFO       ACCESS:      63625  HIT:      31074  MISS:      32551
cpu0_L2C PREFETCH  ACCESS:          0  HIT:          0  MISS:          0
cpu0_L2C WRITEBACK ACCESS:      84708  HIT:      84663  MISS:         45
LLC TOTAL     ACCESS:     234896  HIT:      34111  MISS:     200785
LLC LOAD      ACCESS:     169699  HIT:       1570  MISS:     168129
LLC RFO       ACCESS:      32551  HIT:         21  MISS:      32530
LLC PREFETCH  ACCESS:          0  HIT:          0  MISS:          0
LLC WRITEBACK ACCESS:      32645  HIT:      32520  MISS:        125
Heartbeat CPU 0 instructions: 88000003 cycles: 51227496 heartbeat IPC: 1.1865 cumulative IPC: 1.17701 (Simulation time: 1 hr 24 min 0 sec) 

Region of Interest Statistics
cpu0_DTLB TOTAL     ACCESS:    9742213  HIT:    9733260  MISS:       8953
cpu0_DTLB LOAD      ACCESS:    8832756  HIT:    8825830  MISS:       6926
cpu0_DTLB RFO       ACCESS:     909457  HIT:     907430  MISS:       2027
cpu0_DTLB PREFETCH  ACCESS:          0  HIT:          0  MISS:          0
cpu0_DTLB WRITEBACK ACCESS:          0  HIT:          0  MISS:          0
cpu0_ITLB TOTAL     ACCESS:     392488  HIT:     392488  MISS:          0
cpu0_ITLB LOAD      ACCESS:     392488  HIT:     392488  MISS:          0
cpu0_ITLB RFO       ACCESS:          0  HIT:          0  MISS:          0
cpu0_ITLB PREFETCH  ACCESS:          0  HIT:          0  MISS:          0
cpu0_ITLB WRITEBACK ACCESS:          0  HIT:          0  MISS:          0
cpu0_L1I TOTAL     ACCESS:     134421  HIT:     134421  MISS:          0
cpu0_L1I LOAD      ACCESS:     134421  HIT:     134421  MISS:          0
cpu0_L1I RFO       ACCESS:          0  HIT:          0  MISS:          0
cpu0_L1I PREFETCH  ACCESS:          0  HIT:          0  MISS:          0
cpu0_L1I WRITEBACK ACCESS:          0  HIT:          0  MISS:          0
cpu0_STLB TOTAL     ACCESS:       8953  HIT:       6848  MISS:       2105
cpu0_STLB LOAD      ACCESS:       6926  HIT:       5371  MISS:       1555
cpu0_STLB RFO       ACCESS:       2027  HIT:       1477  MISS:        550
cpu0_STLB PREFETCH  ACCESS:          0  HIT:          0  MISS:          0
cpu0_STLB WRITEBACK ACCESS:          0  HIT:          0  MISS:          0
cpu0_L1D TOTAL     ACCESS:   10466132  HIT:   10136983  MISS:     329149
cpu0_L1D LOAD      ACCESS:    9138477  HIT:    8877258  MISS:     261219
cpu0_L1D RFO       ACCESS:    1325607  HIT:    1258387  MISS:      67220
cpu0_L1D PREFETCH  ACCESS:          0  HIT:          0  MISS:          0
cpu0_L1D WRITEBACK ACCESS:          0  HIT:          0  MISS:          0
cpu0_L2C TOTAL     ACCESS:     418570  HIT:     205119  MISS:     213451
cpu0_L2C LOAD      ACCESS:     261215  HIT:      82171  MISS:     179044
cpu0_L2C RFO       ACCESS:      67220  HIT:      32859  MISS:      34361
cpu0_L2C PREFETCH  ACCESS:          0  HIT:          0  MISS:          0
cpu0_L2C WRITEBACK ACCESS:      89425  HIT:      89380  MISS:         45
LLC TOTAL     ACCESS:     247723  HIT:      35885  MISS:     211838
LLC LOAD      ACCESS:     179044  HIT:       1672  MISS:     177372
LLC RFO       ACCESS:      34361  HIT:         21  MISS:      34340
LLC PREFETCH  ACCESS:          0  HIT:          0  MISS:          0
LLC WRITEBACK ACCESS:      34317  HIT:      34192  MISS:        125
Heartbeat CPU 0 instructions: 90000000 cycles: 52923998 heartbeat IPC: 1.17889 cumulative IPC: 1.1771 (Simulation time: 1 hr 26 min 28 sec) 

Region of Interest Statistics
cpu0_DTLB TOTAL     ACCESS:   10254893  HIT:   10245469  MISS:       9424
cpu0_DTLB LOAD      ACCESS:    9297483  HIT:    9290190  MISS:       7293
cpu0_DTLB RFO       ACCESS:     957410  HIT:     955279  MISS:       2131
cpu0_DTLB PREFETCH  ACCESS:          0  HIT:          0  MISS:          0
cpu0_DTLB WRITEBACK ACCESS:          0  HIT:          0  MISS:          0
cpu0_ITLB TOTAL     ACCESS:     413243  HIT:     413243  MISS:          0
cpu0_ITLB LOAD      ACCESS:     413243  HIT:     413243  MISS:          0
cpu0_ITLB RFO       ACCESS:          0  HIT:          0  MISS:          0
cpu0_ITLB PREFETCH  ACCESS:          0  HIT:          0  MISS:          0
cpu0_ITLB WRITEBACK ACCESS:          0  HIT:          0  MISS:          0
cpu0_L1I TOTAL     ACCESS:     141528  HIT:     141528  MISS:          0
cpu0_L1I LOAD      ACCESS:     141528  HIT:     141528  MISS:          0
cpu0_L1I RFO       ACCESS:          0  HIT:          0  MISS:          0
cpu0_L1I PREFETCH  ACCESS:          0  HIT:          0  MISS:          0
cpu0_L1I WRITEBACK ACCESS:          0  HIT:          0  MISS:          0
cpu0_STLB TOTAL     ACCESS:       9424  HIT:       7191  MISS:       2233
cpu0_STLB LOAD      ACCESS:       7293  HIT:       5642  MISS:       1651
cpu0_STLB RFO       ACCESS:       2131  HIT:       1549  MISS:        582
cpu0_STLB PREFETCH  ACCESS:          0  HIT:          0  MISS:          0
cpu0_STLB WRITEBACK ACCESS:          0  HIT:          0  MISS:          0
cpu0_L1D TOTAL     ACCESS:   11016425  HIT:   10669854  MISS:     346571
cpu0_L1D LOAD      ACCESS:    9618824  HIT:    9343759  MISS:     275065
cpu0_L1D RFO       ACCESS:    1395428  HIT:    1324677  MISS:      70751
cpu0_L1D PREFETCH  ACCESS:          0  HIT:          0  MISS:          0
cpu0_L1D WRITEBACK ACCESS:          0  HIT:          0  MISS:          0
cpu0_L2C TOTAL     ACCESS:     440666  HIT:     215828  MISS:     224838
cpu0_L2C LOAD      ACCESS:     275061  HIT:      86446  MISS:     188615
cpu0_L2C RFO       ACCESS:      70751  HIT:      34575  MISS:      36176
cpu0_L2C PREFETCH  ACCESS:          0  HIT:          0  MISS:          0
cpu0_L2C WRITEBACK ACCESS:      94099  HIT:      94053  MISS:         46
LLC TOTAL     ACCESS:     260883  HIT:      37796  MISS:     223087
LLC LOAD      ACCESS:     188615  HIT:       1810  MISS:     186805
LLC RFO       ACCESS:      36176  HIT:         21  MISS:      36155
LLC PREFETCH  ACCESS:          0  HIT:          0  MISS:          0
LLC WRITEBACK ACCESS:      36091  HIT:      35965  MISS:        126
Heartbeat CPU 0 instructions: 92000001 cycles: 54619408 heartbeat IPC: 1.17966 cumulative IPC: 1.17722 (Simulation time: 1 hr 28 min 50 sec) 

Region of Interest Statistics
cpu0_DTLB TOTAL     ACCESS:   10768045  HIT:   10758119  MISS:       9926
cpu0_DTLB LOAD      ACCESS:    9762647  HIT:    9754962  MISS:       7685
cpu0_DTLB RFO       ACCESS:    1005398  HIT:    1003157  MISS:       2241
cpu0_DTLB PREFETCH  ACCESS:          0  HIT:          0  MISS:          0
cpu0_DTLB WRITEBACK ACCESS:          0  HIT:          0  MISS:          0
cpu0_ITLB TOTAL     ACCESS:     433944  HIT:     433944  MISS:          0
cpu0_ITLB LOAD      ACCESS:     433944  HIT:     433944  MISS:          0
cpu0_ITLB RFO       ACCESS:          0  HIT:          0  MISS:          0
cpu0_ITLB PREFETCH  ACCESS:          0  HIT:          0  MISS:          0
cpu0_ITLB WRITEBACK ACCESS:          0  HIT:          0  MISS:          0
cpu0_L1I TOTAL     ACCESS:     148635  HIT:     148635  MISS:          0
cpu0_L1I LOAD      ACCESS:     148635  HIT:     148635  MISS:          0
cpu0_L1I RFO       ACCESS:          0  HIT:          0  MISS:          0
cpu0_L1I PREFETCH  ACCESS:          0  HIT:          0  MISS:          0
cpu0_L1I WRITEBACK ACCESS:          0  HIT:          0  MISS:          0
cpu0_STLB TOTAL     ACCESS:       9926  HIT:       7591  MISS:       2335
cpu0_STLB LOAD      ACCESS:       7685  HIT:       5960  MISS:       1725
cpu0_STLB RFO       ACCESS:       2241  HIT:       1631  MISS:        610
cpu0_STLB PREFETCH  ACCESS:          0  HIT:          0  MISS:          0
cpu0_STLB WRITEBACK ACCESS:          0  HIT:          0  MISS:          0
cpu0_L1D TOTAL     ACCESS:   11567876  HIT:   11203979  MISS:     363897
cpu0_L1D LOAD      ACCESS:   10100421  HIT:    9811643  MISS:     288778
cpu0_L1D RFO       ACCESS:    1465183  HIT:    1390856  MISS:      74327
cpu0_L1D PREFETCH  ACCESS:          0  HIT:          0  MISS:          0
cpu0_L1D WRITEBACK ACCESS:          0  HIT:          0  MISS:          0
cpu0_L2C TOTAL     ACCESS:     462712  HIT:     226533  MISS:     236179
cpu0_L2C LOAD      ACCESS:     288774  HIT:      90682  MISS:     198092
cpu0_L2C RFO       ACCESS:      74327  HIT:      36327  MISS:      38000
cpu0_L2C PREFETCH  ACCESS:          0  HIT:          0  MISS:          0
cpu0_L2C WRITEBACK ACCESS:      98819  HIT:      98733  MISS:         86
LLC TOTAL     ACCESS:     273950  HIT:      39679  MISS:     234271
LLC LOAD      ACCESS:     198092  HIT:       1947  MISS:     196145
LLC RFO       ACCESS:      38000  HIT:         35  MISS:      37965
LLC PREFETCH  ACCESS:          0  HIT:          0  MISS:          0
LLC WRITEBACK ACCESS:      37857  HIT:      37697  MISS:        160
Heartbeat CPU 0 instructions: 94000000 cycles: 56302395 heartbeat IPC: 1.18836 cumulative IPC: 1.17773 (Simulation time: 1 hr 31 min 12 sec) 

Region of Interest Statistics
cpu0_DTLB TOTAL     ACCESS:   11281399  HIT:   11270999  MISS:      10400
cpu0_DTLB LOAD      ACCESS:   10227980  HIT:   10219930  MISS:       8050
cpu0_DTLB RFO       ACCESS:    1053419  HIT:    1051069  MISS:       2350
cpu0_DTLB PREFETCH  ACCESS:          0  HIT:          0  MISS:          0
cpu0_DTLB WRITEBACK ACCESS:          0  HIT:          0  MISS:          0
cpu0_ITLB TOTAL     ACCESS:     454600  HIT:     454600  MISS:          0
cpu0_ITLB LOAD      ACCESS:     454600  HIT:     454600  MISS:          0
cpu0_ITLB RFO       ACCESS:          0  HIT:          0  MISS:          0
cpu0_ITLB PREFETCH  ACCESS:          0  HIT:          0  MISS:          0
cpu0_ITLB WRITEBACK ACCESS:          0  HIT:          0  MISS:          0
cpu0_L1I TOTAL     ACCESS:     155742  HIT:     155742  MISS:          0
cpu0_L1I LOAD      ACCESS:     155742  HIT:     155742  MISS:          0
cpu0_L1I RFO       ACCESS:          0  HIT:          0  MISS:          0
cpu0_L1I PREFETCH  ACCESS:          0  HIT:          0  MISS:          0
cpu0_L1I WRITEBACK ACCESS:          0  HIT:          0  MISS:          0
cpu0_STLB TOTAL     ACCESS:      10400  HIT:       7955  MISS:       2445
cpu0_STLB LOAD      ACCESS:       8050  HIT:       6243  MISS:       1807
cpu0_STLB RFO       ACCESS:       2350  HIT:       1712  MISS:        638
cpu0_STLB PREFETCH  ACCESS:          0  HIT:          0  MISS:          0
cpu0_STLB WRITEBACK ACCESS:          0  HIT:          0  MISS:          0
cpu0_L1D TOTAL     ACCESS:   12119682  HIT:   11738410  MISS:     381272
cpu0_L1D LOAD      ACCESS:   10582367  HIT:   10279832  MISS:     302535
cpu0_L1D RFO       ACCESS:    1534936  HIT:    1457036  MISS:      77900
cpu0_L1D PREFETCH  ACCESS:          0  HIT:          0  MISS:          0
cpu0_L1D WRITEBACK ACCESS:          0  HIT:          0  MISS:          0
cpu0_L2C TOTAL     ACCESS:     484796  HIT:     237387  MISS:     247409
cpu0_L2C LOAD      ACCESS:     302531  HIT:      95024  MISS:     207507
cpu0_L2C RFO       ACCESS:      77900  HIT:      38087  MISS:      39813
cpu0_L2C PREFETCH  ACCESS:          0  HIT:          0  MISS:          0
cpu0_L2C WRITEBACK ACCESS:     103528  HIT:     103440  MISS:         88
LLC TOTAL     ACCESS:     287070  HIT:      41716  MISS:     245354
LLC LOAD      ACCESS:     207507  HIT:       2095  MISS:     205412
LLC RFO       ACCESS:      39813  HIT:         38  MISS:      39775
LLC PREFETCH  ACCESS:          0  HIT:          0  MISS:          0
LLC WRITEBACK ACCESS:      39749  HIT:      39583  MISS:        166
Heartbeat CPU 0 instructions: 96000002 cycles: 57997361 heartbeat IPC: 1.17997 cumulative IPC: 1.17782 (Simulation time: 1 hr 33 min 30 sec) 

Region of Interest Statistics
cpu0_DTLB TOTAL     ACCESS:   11794273  HIT:   11783446  MISS:      10827
cpu0_DTLB LOAD      ACCESS:   10693049  HIT:   10684679  MISS:       8370
cpu0_DTLB RFO       ACCESS:    1101224  HIT:    1098767  MISS:       2457
cpu0_DTLB PREFETCH  ACCESS:          0  HIT:          0  MISS:          0
cpu0_DTLB WRITEBACK ACCESS:          0  HIT:          0  MISS:          0
cpu0_ITLB TOTAL     ACCESS:     475086  HIT:     475086  MISS:          0
cpu0_ITLB LOAD      ACCESS:     475086  HIT:     475086  MISS:          0
cpu0_ITLB RFO       ACCESS:          0  HIT:          0  MISS:          0
cpu0_ITLB PREFETCH  ACCESS:          0  HIT:          0  MISS:          0
cpu0_ITLB WRITEBACK ACCESS:          0  HIT:          0  MISS:          0
cpu0_L1I TOTAL     ACCESS:     162849  HIT:     162849  MISS:          0
cpu0_L1I LOAD      ACCESS:     162849  HIT:     162849  MISS:          0
cpu0_L1I RFO       ACCESS:          0  HIT:          0  MISS:          0
cpu0_L1I PREFETCH  ACCESS:          0  HIT:          0  MISS:          0
cpu0_L1I WRITEBACK ACCESS:          0  HIT:          0  MISS:          0
cpu0_STLB TOTAL     ACCESS:      10827  HIT:       8271  MISS:       2556
cpu0_STLB LOAD      ACCESS:       8370  HIT:       6481  MISS:       1889
cpu0_STLB RFO       ACCESS:       2457  HIT:       1790  MISS:        667
cpu0_STLB PREFETCH  ACCESS:          0  HIT:          0  MISS:          0
cpu0_STLB WRITEBACK ACCESS:          0  HIT:          0  MISS:          0
cpu0_L1D TOTAL     ACCESS:   12671244  HIT:   12272696  MISS:     398548
cpu0_L1D LOAD      ACCESS:   11063961  HIT:   10747665  MISS:     316296
cpu0_L1D RFO       ACCESS:    1604796  HIT:    1523418  MISS:      81378
cpu0_L1D PREFETCH  ACCESS:          0  HIT:          0  MISS:          0
cpu0_L1D WRITEBACK ACCESS:          0  HIT:          0  MISS:          0
cpu0_L2C TOTAL     ACCESS:     506751  HIT:     248128  MISS:     258623
cpu0_L2C LOAD      ACCESS:     316292  HIT:      99386  MISS:     216906
cpu0_L2C RFO       ACCESS:      81378  HIT:      39750  MISS:      41628
cpu0_L2C PREFETCH  ACCESS:          0  HIT:          0  MISS:          0
cpu0_L2C WRITEBACK ACCESS:     108207  HIT:     108119  MISS:         88
LLC TOTAL     ACCESS:     300193  HIT:      43626  MISS:     256567
LLC LOAD      ACCESS:     216906  HIT:       2096  MISS:     214810
LLC RFO       ACCESS:      41628  HIT:         38  MISS:      41590
LLC PREFETCH  ACCESS:          0  HIT:          0  MISS:          0
LLC WRITEBACK ACCESS:      41658  HIT:      41492  MISS:        166
Heartbeat CPU 0 instructions: 98000003 cycles: 59687519 heartbeat IPC: 1.18332 cumulative IPC: 1.17805 (Simulation time: 1 hr 35 min 49 sec) 

Region of Interest Statistics
cpu0_DTLB TOTAL     ACCESS:   12308146  HIT:   12296814  MISS:      11332
cpu0_DTLB LOAD      ACCESS:   11159212  HIT:   11150443  MISS:       8769
cpu0_DTLB RFO       ACCESS:    1148934  HIT:    1146371  MISS:       2563
cpu0_DTLB PREFETCH  ACCESS:          0  HIT:          0  MISS:          0
cpu0_DTLB WRITEBACK ACCESS:          0  HIT:          0  MISS:          0
cpu0_ITLB TOTAL     ACCESS:     495705  HIT:     495705  MISS:          0
cpu0_ITLB LOAD      ACCESS:     495705  HIT:     495705  MISS:          0
cpu0_ITLB RFO       ACCESS:          0  HIT:          0  MISS:          0
cpu0_ITLB PREFETCH  ACCESS:          0  HIT:          0  MISS:          0
cpu0_ITLB WRITEBACK ACCESS:          0  HIT:          0  MISS:          0
cpu0_L1I TOTAL     ACCESS:     169956  HIT:     169956  MISS:          0
cpu0_L1I LOAD      ACCESS:     169956  HIT:     169956  MISS:          0
cpu0_L1I RFO       ACCESS:          0  HIT:          0  MISS:          0
cpu0_L1I PREFETCH  ACCESS:          0  HIT:          0  MISS:          0
cpu0_L1I WRITEBACK ACCESS:          0  HIT:          0  MISS:          0
cpu0_STLB TOTAL     ACCESS:      11332  HIT:       8674  MISS:       2658
cpu0_STLB LOAD      ACCESS:       8769  HIT:       6806  MISS:       1963
cpu0_STLB RFO       ACCESS:       2563  HIT:       1868  MISS:        695
cpu0_STLB PREFETCH  ACCESS:          0  HIT:          0  MISS:          0
cpu0_STLB WRITEBACK ACCESS:          0  HIT:          0  MISS:          0
cpu0_L1D TOTAL     ACCESS:   13222912  HIT:   12807060  MISS:     415852
cpu0_L1D LOAD      ACCESS:   11545961  HIT:   11215988  MISS:     329973
cpu0_L1D RFO       ACCESS:    1674364  HIT:    1589398  MISS:      84966
cpu0_L1D PREFETCH  ACCESS:          0  HIT:          0  MISS:          0
cpu0_L1D WRITEBACK ACCESS:          0  HIT:          0  MISS:          0
cpu0_L2C TOTAL     ACCESS:     528799  HIT:     258984  MISS:     269815
cpu0_L2C LOAD      ACCESS:     329967  HIT:     103679  MISS:     226288
cpu0_L2C RFO       ACCESS:      84966  HIT:      41528  MISS:      43438
cpu0_L2C PREFETCH  ACCESS:          0  HIT:          0  MISS:          0
cpu0_L2C WRITEBACK ACCESS:     112953  HIT:     112865  MISS:         88
LLC TOTAL     ACCESS:     313237  HIT:      45605  MISS:     267632
LLC LOAD      ACCESS:     226288  HIT:       2223  MISS:     224065
LLC RFO       ACCESS:      43438  HIT:         38  MISS:      43400
LLC PREFETCH  ACCESS:          0  HIT:          0  MISS:          0
LLC WRITEBACK ACCESS:      43510  HIT:      43344  MISS:        166
Heartbeat CPU 0 instructions: 100000002 cycles: 61379697 heartbeat IPC: 1.18191 cumulative IPC: 1.17821 (Simulation time: 1 hr 38 min 10 sec) 

Region of Interest Statistics
cpu0_DTLB TOTAL     ACCESS:   12821534  HIT:   12809733  MISS:      11801
cpu0_DTLB LOAD      ACCESS:   11624886  HIT:   11615757  MISS:       9129
cpu0_DTLB RFO       ACCESS:    1196648  HIT:    1193976  MISS:       2672
cpu0_DTLB PREFETCH  ACCESS:          0  HIT:          0  MISS:          0
cpu0_DTLB WRITEBACK ACCESS:          0  HIT:          0  MISS:          0
cpu0_ITLB TOTAL     ACCESS:     516201  HIT:     516201  MISS:          0
cpu0_ITLB LOAD      ACCESS:     516201  HIT:     516201  MISS:          0
cpu0_ITLB RFO       ACCESS:          0  HIT:          0  MISS:          0
cpu0_ITLB PREFETCH  ACCESS:          0  HIT:          0  MISS:          0
cpu0_ITLB WRITEBACK ACCESS:          0  HIT:          0  MISS:          0
cpu0_L1I TOTAL     ACCESS:     177063  HIT:     177063  MISS:          0
cpu0_L1I LOAD      ACCESS:     177063  HIT:     177063  MISS:          0
cpu0_L1I RFO       ACCESS:          0  HIT:          0  MISS:          0
cpu0_L1I PREFETCH  ACCESS:          0  HIT:          0  MISS:          0
cpu0_L1I WRITEBACK ACCESS:          0  HIT:          0  MISS:          0
cpu0_STLB TOTAL     ACCESS:      11801  HIT:       9034  MISS:       2767
cpu0_STLB LOAD      ACCESS:       9129  HIT:       7085  MISS:       2044
cpu0_STLB RFO       ACCESS:       2672  HIT:       1949  MISS:        723
cpu0_STLB PREFETCH  ACCESS:          0  HIT:          0  MISS:          0
cpu0_STLB WRITEBACK ACCESS:          0  HIT:          0  MISS:          0
cpu0_L1D TOTAL     ACCESS:   13774107  HIT:   13340872  MISS:     433235
cpu0_L1D LOAD      ACCESS:   12027377  HIT:   11683616  MISS:     343761
cpu0_L1D RFO       ACCESS:    1744037  HIT:    1655520  MISS:      88517
cpu0_L1D PREFETCH  ACCESS:          0  HIT:          0  MISS:          0
cpu0_L1D WRITEBACK ACCESS:          0  HIT:          0  MISS:          0
cpu0_L2C TOTAL     ACCESS:     550930  HIT:     269901  MISS:     281029
cpu0_L2C LOAD      ACCESS:     343755  HIT:     108068  MISS:     235687
cpu0_L2C RFO       ACCESS:      88517  HIT:      43266  MISS:      45251
cpu0_L2C PREFETCH  ACCESS:          0  HIT:          0  MISS:          0
cpu0_L2C WRITEBACK ACCESS:     117701  HIT:     117611  MISS:         90
LLC TOTAL     ACCESS:     326262  HIT:      47518  MISS:     278744
LLC LOAD      ACCESS:     235687  HIT:       2322  MISS:     233365
LLC RFO       ACCESS:      45251  HIT:         41  MISS:      45210
LLC PREFETCH  ACCESS:          0  HIT:          0  MISS:          0
LLC WRITEBACK ACCESS:      45323  HIT:      45155  MISS:        168
Heartbeat CPU 0 instructions: 102000000 cycles: 63100751 heartbeat IPC: 1.16208 cumulative IPC: 1.17758 (Simulation time: 1 hr 40 min 35 sec) 

Region of Interest Statistics
cpu0_DTLB TOTAL     ACCESS:   13334428  HIT:   13322128  MISS:      12300
cpu0_DTLB LOAD      ACCESS:   12089982  HIT:   12080460  MISS:       9522
cpu0_DTLB RFO       ACCESS:    1244446  HIT:    1241668  MISS:       2778
cpu0_DTLB PREFETCH  ACCESS:          0  HIT:          0  MISS:          0
cpu0_DTLB WRITEBACK ACCESS:          0  HIT:          0  MISS:          0
cpu0_ITLB TOTAL     ACCESS:     537027  HIT:     537027  MISS:          0
cpu0_ITLB LOAD      ACCESS:     537027  HIT:     537027  MISS:          0
cpu0_ITLB RFO       ACCESS:          0  HIT:          0  MISS:          0
cpu0_ITLB PREFETCH  ACCESS:          0  HIT:          0  MISS:          0
cpu0_ITLB WRITEBACK ACCESS:          0  HIT:          0  MISS:          0
cpu0_L1I TOTAL     ACCESS:     184170  HIT:     184170  MISS:          0
cpu0_L1I LOAD      ACCESS:     184170  HIT:     184170  MISS:          0
cpu0_L1I RFO       ACCESS:          0  HIT:          0  MISS:          0
cpu0_L1I PREFETCH  ACCESS:          0  HIT:          0  MISS:          0
cpu0_L1I WRITEBACK ACCESS:          0  HIT:          0  MISS:          0
cpu0_STLB TOTAL     ACCESS:      12300  HIT:       9409  MISS:       2891
cpu0_STLB LOAD      ACCESS:       9522  HIT:       7385  MISS:       2137
cpu0_STLB RFO       ACCESS:       2778  HIT:       2024  MISS:        754
cpu0_STLB PREFETCH  ACCESS:          0  HIT:          0  MISS:          0
cpu0_STLB WRITEBACK ACCESS:          0  HIT:          0  MISS:          0
cpu0_L1D TOTAL     ACCESS:   14324702  HIT:   13874062  MISS:     450640
cpu0_L1D LOAD      ACCESS:   12507926  HIT:   12150312  MISS:     357614
cpu0_L1D RFO       ACCESS:    1813961  HIT:    1721929  MISS:      92032
cpu0_L1D PREFETCH  ACCESS:          0  HIT:          0  MISS:          0
cpu0_L1D WRITEBACK ACCESS:          0  HIT:          0  MISS:          0
cpu0_L2C TOTAL     ACCESS:     573035  HIT:     280576  MISS:     292459
cpu0_L2C LOAD      ACCESS:     357608  HIT:     112306  MISS:     245302
cpu0_L2C RFO       ACCESS:      92032  HIT:      44970  MISS:      47062
cpu0_L2C PREFETCH  ACCESS:          0  HIT:          0  MISS:          0
cpu0_L2C WRITEBACK ACCESS:     122401  HIT:     122307  MISS:         94
LLC TOTAL     ACCESS:     339399  HIT:      49296  MISS:     290103
LLC LOAD      ACCESS:     245302  HIT:       2418  MISS:     242884
LLC RFO       ACCESS:      47062  HIT:         43  MISS:      47019
LLC PREFETCH  ACCESS:          0  HIT:          0  MISS:          0
LLC WRITEBACK ACCESS:      47034  HIT:      46835  MISS:        199
Heartbeat CPU 0 instructions: 104000001 cycles: 64805742 heartbeat IPC: 1.17303 cumulative IPC: 1.17741 (Simulation time: 1 hr 42 min 50 sec) 

Region of Interest Statistics
cpu0_DTLB TOTAL     ACCESS:   13847857  HIT:   13835048  MISS:      12809
cpu0_DTLB LOAD      ACCESS:   12555407  HIT:   12545486  MISS:       9921
cpu0_DTLB RFO       ACCESS:    1292450  HIT:    1289562  MISS:       2888
cpu0_DTLB PREFETCH  ACCESS:          0  HIT:          0  MISS:          0
cpu0_DTLB WRITEBACK ACCESS:          0  HIT:          0  MISS:          0
cpu0_ITLB TOTAL     ACCESS:     557661  HIT:     557661  MISS:          0
cpu0_ITLB LOAD      ACCESS:     557661  HIT:     557661  MISS:          0
cpu0_ITLB RFO       ACCESS:          0  HIT:          0  MISS:          0
cpu0_ITLB PREFETCH  ACCESS:          0  HIT:          0  MISS:          0
cpu0_ITLB WRITEBACK ACCESS:          0  HIT:          0  MISS:          0
cpu0_L1I TOTAL     ACCESS:     191277  HIT:     191277  MISS:          0
cpu0_L1I LOAD      ACCESS:     191277  HIT:     191277  MISS:          0
cpu0_L1I RFO       ACCESS:          0  HIT:          0  MISS:          0
cpu0_L1I PREFETCH  ACCESS:          0  HIT:          0  MISS:          0
cpu0_L1I WRITEBACK ACCESS:          0  HIT:          0  MISS:          0
cpu0_STLB TOTAL     ACCESS:      12809  HIT:       9806  MISS:       3003
cpu0_STLB LOAD      ACCESS:       9921  HIT:       7701  MISS:       2220
cpu0_STLB RFO       ACCESS:       2888  HIT:       2105  MISS:        783
cpu0_STLB PREFETCH  ACCESS:          0  HIT:          0  MISS:          0
cpu0_STLB WRITEBACK ACCESS:          0  HIT:          0  MISS:          0
cpu0_L1D TOTAL     ACCESS:   14876039  HIT:   14408062  MISS:     467977
cpu0_L1D LOAD      ACCESS:   12989510  HIT:   12618147  MISS:     371363
cpu0_L1D RFO       ACCESS:    1883605  HIT:    1788029  MISS:      95576
cpu0_L1D PREFETCH  ACCESS:          0  HIT:          0  MISS:          0
cpu0_L1D WRITEBACK ACCESS:          0  HIT:          0  MISS:          0
cpu0_L2C TOTAL     ACCESS:     595091  HIT:     291434  MISS:     303657
cpu0_L2C LOAD      ACCESS:     371357  HIT:     116634  MISS:     254723
cpu0_L2C RFO       ACCESS:      95576  HIT:      46739  MISS:      48837
cpu0_L2C PREFETCH  ACCESS:          0  HIT:          0  MISS:          0
cpu0_L2C WRITEBACK ACCESS:     127120  HIT:     127024  MISS:         96
LLC TOTAL     ACCESS:     352522  HIT:      51287  MISS:     301235
LLC LOAD      ACCESS:     254723  HIT:       2482  MISS:     252241
LLC RFO       ACCESS:      48837  HIT:         43  MISS:      48794
LLC PREFETCH  ACCESS:          0  HIT:          0  MISS:          0
LLC WRITEBACK ACCESS:      48961  HIT:      48762  MISS:        199
Heartbeat CPU 0 instructions: 106000003 cycles: 66501908 heartbeat IPC: 1.17913 cumulative IPC: 1.17747 (Simulation time: 1 hr 45 min 11 sec) 

Region of Interest Statistics
cpu0_DTLB TOTAL     ACCESS:   14360323  HIT:   14347107  MISS:      13216
cpu0_DTLB LOAD      ACCESS:   13019805  HIT:   13009576  MISS:      10229
cpu0_DTLB RFO       ACCESS:    1340518  HIT:    1337531  MISS:       2987
cpu0_DTLB PREFETCH  ACCESS:          0  HIT:          0  MISS:          0
cpu0_DTLB WRITEBACK ACCESS:          0  HIT:          0  MISS:          0
cpu0_ITLB TOTAL     ACCESS:     578510  HIT:     578510  MISS:          0
cpu0_ITLB LOAD      ACCESS:     578510  HIT:     578510  MISS:          0
cpu0_ITLB RFO       ACCESS:          0  HIT:          0  MISS:          0
cpu0_ITLB PREFETCH  ACCESS:          0  HIT:          0  MISS:          0
cpu0_ITLB WRITEBACK ACCESS:          0  HIT:          0  MISS:          0
cpu0_L1I TOTAL     ACCESS:     198384  HIT:     198384  MISS:          0
cpu0_L1I LOAD      ACCESS:     198384  HIT:     198384  MISS:          0
cpu0_L1I RFO       ACCESS:          0  HIT:          0  MISS:          0
cpu0_L1I PREFETCH  ACCESS:          0  HIT:          0  MISS:          0
cpu0_L1I WRITEBACK ACCESS:          0  HIT:          0  MISS:          0
cpu0_STLB TOTAL     ACCESS:      13216  HIT:      10113  MISS:       3103
cpu0_STLB LOAD      ACCESS:      10229  HIT:       7936  MISS:       2293
cpu0_STLB RFO       ACCESS:       2987  HIT:       2177  MISS:        810
cpu0_STLB PREFETCH  ACCESS:          0  HIT:          0  MISS:          0
cpu0_STLB WRITEBACK ACCESS:          0  HIT:          0  MISS:          0
cpu0_L1D TOTAL     ACCESS:   15427423  HIT:   14942099  MISS:     485324
cpu0_L1D LOAD      ACCESS:   13470891  HIT:   13085710  MISS:     385181
cpu0_L1D RFO       ACCESS:    1953509  HIT:    1854445  MISS:      99064
cpu0_L1D PREFETCH  ACCESS:          0  HIT:          0  MISS:          0
cpu0_L1D WRITEBACK ACCESS:          0  HIT:          0  MISS:          0
cpu0_L2C TOTAL     ACCESS:     617145  HIT:     302290  MISS:     314855
cpu0_L2C LOAD      ACCESS:     385175  HIT:     121035  MISS:     264140
cpu0_L2C RFO       ACCESS:      99064  HIT:      48447  MISS:      50617
cpu0_L2C PREFETCH  ACCESS:          0  HIT:          0  MISS:          0
cpu0_L2C WRITEBACK ACCESS:     131827  HIT:     131730  MISS:         97
[...]
cpu0_DTLB PREFETCH  ACCESS:          0  HIT:          0  MISS:          0
cpu0_DTLB WRITEBACK ACCESS:          0  HIT:          0  MISS:          0
cpu0_DTLB TRANSLATION ACCESS:          0  HIT:          0  MISS:          0
cpu0_DTLB PREFETCH  REQUESTED:          0  ISSUED:          0  USEFUL:          0  USELESS:          0
cpu0_DTLB AVERAGE MISS LATENCY: 22.9913 cycles
cpu0_ITLB TOTAL     ACCESS:   16989593  HIT:   16989520  MISS:         73
cpu0_ITLB LOAD      ACCESS:   16989593  HIT:   16989520  MISS:         73
cpu0_ITLB RFO       ACCESS:          0  HIT:          0  MISS:          0
cpu0_ITLB PREFETCH  ACCESS:          0  HIT:          0  MISS:          0
cpu0_ITLB WRITEBACK ACCESS:          0  HIT:          0  MISS:          0
cpu0_ITLB TRANSLATION ACCESS:          0  HIT:          0  MISS:          0
cpu0_ITLB PREFETCH  REQUESTED:          0  ISSUED:          0  USEFUL:          0  USELESS:          0
cpu0_ITLB AVERAGE MISS LATENCY: 193.904 cycles
cpu0_L1I TOTAL     ACCESS:   32566610  HIT:   32565254  MISS:       1356
cpu0_L1I LOAD      ACCESS:   32566610  HIT:   32565254  MISS:       1356
cpu0_L1I RFO       ACCESS:          0  HIT:          0  MISS:          0
cpu0_L1I PREFETCH  ACCESS:          0  HIT:          0  MISS:          0
cpu0_L1I WRITEBACK ACCESS:          0  HIT:          0  MISS:          0
cpu0_L1I TRANSLATION ACCESS:          0  HIT:          0  MISS:          0
cpu0_L1I PREFETCH  REQUESTED:          0  ISSUED:          0  USEFUL:          0  USELESS:          0
cpu0_L1I AVERAGE MISS LATENCY: 260.108 cycles
cpu0_STLB TOTAL     ACCESS:     351158  HIT:     203648  MISS:     147510
cpu0_STLB LOAD      ACCESS:     286635  HIT:     177720  MISS:     108915
cpu0_STLB RFO       ACCESS:      64523  HIT:      25928  MISS:      38595
cpu0_STLB PREFETCH  ACCESS:          0  HIT:          0  MISS:          0
cpu0_STLB WRITEBACK ACCESS:          0  HIT:          0  MISS:          0
cpu0_STLB TRANSLATION ACCESS:          0  HIT:          0  MISS:          0
cpu0_STLB PREFETCH  REQUESTED:          0  ISSUED:          0  USEFUL:          0  USELESS:          0
cpu0_STLB AVERAGE MISS LATENCY: 33.3443 cycles
cpu0_L1D TOTAL     ACCESS:  399830262  HIT:  385117187  MISS:   14713075
cpu0_L1D LOAD      ACCESS:  362927045  HIT:  351585088  MISS:   11341957
cpu0_L1D RFO       ACCESS:   36762623  HIT:   33409410  MISS:    3353213
cpu0_L1D PREFETCH  ACCESS:          0  HIT:          0  MISS:          0
cpu0_L1D WRITEBACK ACCESS:          0  HIT:          0  MISS:          0
cpu0_L1D TRANSLATION ACCESS:     140594  HIT:     122689  MISS:      17905
cpu0_L1D PREFETCH  REQUESTED:          0  ISSUED:          0  USEFUL:          0  USELESS:          0
cpu0_L1D AVERAGE MISS LATENCY: 219.666 cycles
cpu0_L2C TOTAL     ACCESS:   19144514  HIT:    8039305  MISS:   11105209
cpu0_L2C LOAD      ACCESS:   11343140  HIT:    2692014  MISS:    8651126
cpu0_L2C RFO       ACCESS:    3353162  HIT:     907898  MISS:    2445264
cpu0_L2C PREFETCH  ACCESS:          0  HIT:          0  MISS:          0
cpu0_L2C WRITEBACK ACCESS:    4430307  HIT:    4422065  MISS:       8242
cpu0_L2C TRANSLATION ACCESS:      17905  HIT:      17328  MISS:        577
cpu0_L2C PREFETCH  REQUESTED:          0  ISSUED:          0  USEFUL:          0  USELESS:          0
cpu0_L2C AVERAGE MISS LATENCY: 276.473 cycles
LLC TOTAL     ACCESS:   14300985  HIT:    4427126  MISS:    9873859
LLC LOAD      ACCESS:    8651126  HIT:     958484  MISS:    7692642
LLC RFO       ACCESS:    2445261  HIT:     278930  MISS:    2166331
LLC PREFETCH  ACCESS:          0  HIT:          0  MISS:          0
LLC WRITEBACK ACCESS:    3204021  HIT:    3189386  MISS:      14635
LLC TRANSLATION ACCESS:        577  HIT:        326  MISS:        251
LLC PREFETCH  REQUESTED:          0  ISSUED:          0  USEFUL:          0  USELESS:          0
LLC AVERAGE MISS LATENCY: 287.35 cycles
~~~~~~~~~~Reuse Distance Profiler output~~~~~~~~~~
0	11459808	7582304
1	14271344	10708768
2	22657840	18290816
3	25867824	24026304
4	26794128	25983952
5	25569552	24882288
6	26234368	25535136
7	23304880	22558960
8	16537216	15889824
9	13744000	13197888
10	13937840	13347536
11	11012000	10482992
12	8949168	8062416
13	7861136	6829072
14	7198672	6375904
15	8176048	7070736
16	6161776	5300912
17	6627200	5957376
18	5620384	4896752
19	5858992	5381184
20	5681008	5151616
21	4588896	4222784
22	5066496	4698768
23	4292000	3983200
24	5085072	4770800
25	3722784	3513744
26	4009856	3765232
27	3330368	3115936
28	2948192	2777440
29	3399040	3080832
30	3110112	2885456
31	2907728	2670960
32	2169536	1938288
33	2840944	2679728
34	2948304	2747904
35	2536304	2345408
36	2889568	2766880
37	3469840	3162208
38	2478544	2366016
39	1766736	1645728
40	1952784	1748240
41	1644880	1484064
42	1541648	1414608
43	1688160	1577136
44	1432656	1309840
45	1754304	1651296
46	1704096	1623440
47	1456000	1363280
48	1091904	1037568
49	1444512	1353184
50	1036736	983664
51	1048512	947120
52	1015488	882096
53	1150192	1047968
54	675952	550832
55	974480	844704
56	624032	520784
57	587408	473840
58	381568	327360
59	492176	368384
60	510416	474080
61	548208	498016
62	554480	508512
63	313792	241472
64	823136	757840
66	1030928	908672
68	881760	784096
70	742160	673632
72	776416	743408
74	751264	660048
76	697664	559728
78	377648	357392
80	301232	282400
82	458368	426080
84	302128	260800
86	456736	450944
88	278160	272976
90	318432	313440
92	359440	356208
94	202864	198832
96	117744	115488
98	172576	104464
100	216496	213424
102	98656	97024
104	88752	87232
106	79728	78256
108	85760	84720
110	235024	233616
112	124608	123504
114	92512	91440
116	101536	100320
118	43040	42016
120	27424	26176
122	21408	20512
124	26384	25328
126	54480	53440
128	48768	47840
132	26352	25632
136	34736	32096
140	25696	25152
144	16368	16080
148	15136	14992
152	14112	14048
156	29104	29104
160	28016	28016
164	20176	20176
168	25408	25408
172	12528	12528
176	7376	7376
180	3184	3136
184	4064	2784
188	6192	1840
192	9968	4944
196	9312	5520
200	4848	1984
204	6448	3600
208	2592	1472
212	2144	2080
216	1168	1168
220	768	768
224	544	528
228	1024	1024
232	992	992
236	1024	1024
240	1184	1184
244	464	464
248	720	720
252	672	672
256	1552	1552
264	3680	3680
272	3344	3344
280	3712	3712
288	5712	5712
296	9648	9632
304	10464	10464
312	13984	13952
320	19680	19648
328	20656	20640
336	18720	18592
344	19760	18496
352	21680	18880
360	19632	17664
368	16064	15792
376	17008	16464
384	16432	14672
392	18160	16128
400	16144	15168
408	15904	15776
416	19792	19792
424	23088	23088
432	27920	27920
440	32016	32016
448	34752	34752
456	37344	37344
464	39792	39792
472	44992	44992
480	47632	47632
488	54880	54880
496	59632	59632
504	58816	58816
512	119568	119520
528	113248	113120
544	105984	103280
560	89648	88560
576	77024	76800
592	84400	83488
608	76576	74800
624	90560	89616
640	107680	107664
656	91088	91088
672	75808	75792
688	40832	40816
704	18096	18096
720	22480	22448
736	31872	31072
752	41472	40544
768	44992	44544
784	66976	66480
800	44576	43728
816	41584	41232
832	43600	43584
848	37680	37680
864	30736	30736
880	26080	26064
896	20688	20672
912	19136	19056
928	11600	11328
944	9952	9680
960	10464	10048
976	10192	9632
992	9424	8624
1008	9296	8480
1024	25136	23344
1056	20592	18256
1088	14048	13120
1120	8496	8496
1152	5280	5264
1184	9248	9232
1216	4352	4320
1248	144144	143984
1280	525840	524528
1312	17408	16720
1344	56880	55328
1376	26912	26400
1408	17424	16272
1440	16144	14576
1472	15200	14320
1504	13104	11984
1536	8080	7264
1568	6592	5584
1600	7360	6016
1632	7968	5680
1664	7328	7040
1696	7520	6608
1728	5792	4832
1760	4384	4368
1792	3088	3088
1824	4832	4832
1856	2624	2464
1888	5328	3760
1920	10864	9808
1952	12096	11152
1984	16256	15136
2016	17552	15632
2048	20944	20096
2112	8976	7264
2176	7984	4704
2240	8960	8336
2304	12896	11184
2368	16880	16064
2432	11984	9168
2496	9600	8816
2560	11680	8544
2624	19344	17824
2688	28400	24880
2752	20368	19536
2816	10304	9664
2880	14864	10592
2944	11968	9872
3008	15376	13312
3072	27248	20496
3136	28528	8832
3200	41104	11360
3264	46976	16640
3328	59120	32064
3392	56624	28800
3456	42720	11520
3520	44544	13280
3584	21936	11872
3648	17536	16896
3712	33920	32448
3776	31792	29280
3840	14288	14288
3904	12528	12528
3968	18880	18736
4032	30496	27200
4096	48816	48608
4224	57392	56192
4352	91056	87888
4480	97328	93536
4608	72384	68304
4736	76000	75984
4864	77744	72752
4992	83072	77696
5120	105664	98368
5248	92080	86304
5376	112720	107776
5504	70784	64848
5632	79056	74208
5760	68128	62832
5888	52144	48816
6016	35216	35184
6144	33568	33504
6272	22944	20400
6400	31136	23456
6528	48848	33968
6656	39088	29616
6784	45456	32336
6912	42976	27408
7040	40000	25312
7168	17184	6208
7296	12864	3536
7424	13632	3488
7552	17856	7776
7680	58192	49056
7808	90240	80544
7936	67856	58544
8064	62448	51984
8192	125984	106336
8448	126320	107024
8704	129776	111136
8960	127328	112992
9216	81664	75744
9472	33216	32592
9728	19696	17984
9984	59408	37040
10240	124624	45664
10496	116256	51744
10752	113824	53408
11008	159888	99184
11264	151824	90368
11520	159328	103168
11776	102544	68672
12032	102288	73632
12288	84592	70288
12544	90704	87168
12800	81840	81392
13056	57216	56736
13312	55984	50592
13568	70896	46160
13824	122000	77520
14080	126736	73696
14336	127920	72528
14592	137040	77088
14848	130736	69776
15104	122480	58144
15360	98304	49728
15616	68368	45376
15872	60304	43152
16128	49376	34800
16384	198352	69632
16896	116448	73504
17408	97120	52832
17920	90320	40704
18432	67360	20304
18944	64176	23856
19456	442208	314336
19968	417360	306848
20480	68976	24672
20992	22816	9888
21504	9120	960
22016	8976	336
22528	9184	3392
23040	14464	7184
23552	331344	249488
24064	10592	4064
24576	21280	8000
25088	4224	1136
25600	1488	32
26112	5728	4448
26624	3952	2256
27136	2832	1216
27648	2016	48
28160	3904	2784
28672	3760	1920
29184	2304	480
29696	6096	2752
30208	70512	53280
30720	3232	2800
31232	10528	7776
31744	8304	8304
32256	7968	7968
32768	15392	15392
33792	3168	3168
34816	16	0
35840	0	0
36864	208	208
37888	2592	1248
38912	3408	1392
39936	5552	2224
40960	4416	4416
41984	4464	4448
43008	2320	2320
44032	0	0
45056	0	0
46080	240	208
47104	83856	81136
48128	7568	4544
49152	3648	1744
50176	4960	1568
51200	2352	1968
52224	688	688
53248	368	0
54272	2736	0
55296	3200	16
56320	2192	400
57344	7376	1968
58368	6016	1568
59392	6480	1648
60416	21456	18784
61440	10864	2560
62464	6336	512
63488	4800	208
64512	2752	640
65536	9840	2048
67584	15088	6704
69632	6672	3344
71680	624	608
73728	0	0
75776	2976	960
77824	7808	2528
79872	2976	2848
81920	384	384
83968	96	48
86016	8736	5056
88064	7664	3536
90112	6016	2160
92160	32	32
94208	336	240
96256	6416	2064
98304	6432	2688
100352	2032	2032
102400	32	32
104448	2896	672
106496	10816	5744
108544	6624	2800
110592	1184	1152
112640	144	96
114688	992	736
116736	7376	3088
118784	6192	3088
120832	1024	1024
122880	144	80
124928	6960	3360
126976	7744	4016
129024	5984	2544
131072	624	544
135168	11904	4544
139264	2816	2720
143360	10848	6016
147456	10576	4544
151552	1424	800
155648	16080	8672
159744	16784	16640
163840	30384	22736
167936	512000	508576
172032	3296	1520
176128	11696	6320
180224	768	512
184320	16016	8288
188416	6128	2688
192512	6352	2240
196608	8800	5232
200704	2752	1024
204800	17616	9088
208896	2624	1632
212992	8640	3600
217088	6368	3840
221184	6720	3552
225280	12768	6288
229376	1744	1008
233472	12128	5296
237568	3344	2928
241664	11392	6304
245760	10960	4688
249856	2128	1344
253952	19008	7520
258048	14096	5888
262144	42416	18224
270336	14848	7456
278528	16224	8768
286720	12848	5648
294912	14336	8000
303104	19488	12576
311296	7968	3872
319488	10336	5632
327680	3728	2608
335872	43456	42816
344064	427904	425936
352256	222224	221712
360448	3296	1328
368640	1600	640
376832	2320	704
385024	4176	2112
393216	3648	656
401408	4784	2368
409600	384	224
417792	2912	1376
425984	1280	880
434176	976	336
442368	3392	2080
450560	448	192
458752	4064	2096
466944	528	400
475136	2592	1472
483328	1536	752
491520	784	336
499712	3456	1936
507904	560	272
516096	3408	1856
524288	3424	1664
540672	3072	1824
557056	3856	2176
573440	4640	2464
589824	4576	2560
606208	4208	2496
622592	3760	2144
638976	2544	1392
655360	3968	2176
671744	4592	2592
688128	4640	2592
704512	4864	2656
720896	4112	2400
737280	3232	1824
753664	2864	1920
770048	4064	2208
786432	4016	2144
802816	4304	2480
819200	3840	1968
835584	3616	1792
851968	2512	1424
868352	4128	2496
884736	4208	2544
901120	4064	2336
917504	4224	2336
933888	4224	2144
950272	3520	1824
966656	2864	1680
983040	3568	1840
999424	4496	2400
1015808	4368	2368
1032192	4416	2464
1048576	6448	3536
1081344	8032	4496
1114112	8768	4688
1146880	7136	3728
1179648	7040	4064
1212416	9232	5120
1245184	8336	4752
1277952	7008	4128
1310720	9632	5392
1343488	8384	4608
1376256	6288	3360
1409024	17632	13840
1441792	45712	41520
1474560	32144	28896
1507328	13760	10256
1540096	14352	10624
1572864	13664	10336
1605632	12768	9984
1638400	15184	11200
1671168	15232	11632
1703936	109840	106912
1736704	42432	38832
1769472	21104	16896
1802240	6800	3920
1835008	77312	73968
1867776	9952	5472
1900544	7968	4816
1933312	8368	5392
1966080	10128	6192
1998848	8656	5072
2031616	7504	4608
2064384	9552	5744
2097152	16912	10416
2162688	17840	10896
2228224	16224	10416
2293760	19168	11712
2359296	17456	10784
2424832	14416	9504
2490368	12768	8112
2555904	8512	6160
2621440	7760	5728
2686976	9664	8752
2752512	588768	588336
2818048	445200	444752
2883584	8048	7584
2949120	5792	5216
3014656	6752	6112
3080192	5888	5328
3145728	5776	5328
3211264	6176	5376
3276800	5824	5232
3342336	6032	5408
3407872	5440	4768
3473408	6288	5680
3538944	7264	6272
3604480	48080	47712
3670016	47488	47024
3735552	4832	4432
3801088	4272	3968
3866624	3952	3520
3932160	3664	3488
3997696	4608	4432
4063232	4208	3424
4128768	3920	3712
4194304	40240	39280
4325376	9248	8640
4456448	7920	7008
4587520	7872	7136
4718592	9760	8800
4849664	8336	7456
4980736	10048	9376
5111808	9424	8848
5242880	9824	9232
5373952	10672	10144
5505024	10128	9456
5636096	11312	10176
5767168	11312	10336
5898240	10736	9552
6029312	12880	11536
6160384	11104	10112
6291456	12368	11280
6422528	13296	12096
6553600	11712	10544
6684672	12704	11680
6815744	12320	11216
6946816	11168	9856
7077888	13408	12192
7208960	19472	18288
7340032	19424	18304
7471104	20752	19712
7602176	18848	17888
7733248	20032	19056
7864320	19104	18336
7995392	20160	19344
8126464	26256	25200
8257536	28016	26960
8388608	60464	57328
8650752	66800	63312
8912896	68416	64896
9175040	70176	66992
9437184	71520	68048
9699328	73488	70240
9961472	66304	62896
10223616	53680	51072
10485760	54752	52336
10747904	54880	51216
11010048	54640	50848
11272192	56688	52352
11534336	59328	54768
11796480	61792	57328
12058624	61664	57216
12320768	54912	50752
12582912	41856	38176
12845056	64736	61584
13107200	31552	28400
13369344	36896	32368
13631488	42640	37920
13893632	46656	42016
14155776	49744	45184
14417920	47920	42960
14680064	41664	35024
14942208	34192	27968
15204352	26336	20896
15466496	20352	15904
15728640	21120	15840
15990784	24656	18512
16252928	23840	15264
16515072	23296	13120
16777216	46176	29456
17301504	47472	29520
17825792	48464	28528
18350080	45776	26352
18874368	43904	24160
19398656	39504	21696
19922944	40336	20896
20447232	42304	23456
20971520	39376	23536
21495808	42544	23584
22020096	39264	21296
22544384	40560	24624
23068672	36720	22784
23592960	35232	22240
24117248	36480	20976
24641536	38624	23936
25165824	34624	19680
25690112	36080	22192
26214400	32688	18384
26738688	39408	24832
27262976	35168	19952
27787264	39808	22496
28311552	32896	17696
28835840	38768	23536
29360128	36208	19088
29884416	38224	21312
30408704	35952	19056
30932992	39632	24320
31457280	36512	19552
31981568	39568	22512
32505856	40336	18000
33030144	46640	24032
33554432	83520	42848
34603008	83152	43648
35651584	79856	44368
36700160	80928	44416
37748736	83760	47216
38797312	79120	43808
39845888	73312	38176
40894464	66720	32864
41943040	60096	28592
42991616	59936	26384
44040192	54336	26400
45088768	53776	24496
46137344	49216	23968
47185920	49504	23456
48234496	46176	22784
49283072	42336	22224
50331648	45680	22176
51380224	43408	19952
52428800	40576	17824
53477376	37264	16784
54525952	35200	15424
55574528	35664	15008
56623104	29568	13872
57671680	28608	13776
58720256	31008	14720
59768832	38512	20464
60817408	39376	21280
61865984	37856	22384
62914560	42240	23488
63963136	43552	23872
65011712	42752	27216
66060288	37424	28144
67108864	310160	232736
69206016	383264	366688
71303168	501904	462544
73400320	441184	408048
75497472	76960	64128
77594624	43776	33424
79691776	22816	20896
81788928	19744	18480
83886080	17760	16736
85983232	16160	15504
88080384	14928	14640
90177536	130528	99760
92274688	11248	11104
94371840	10512	10368
96468992	8880	8688
98566144	7120	6992
100663296	5488	5264
102760448	5488	4352
104857600	6416	2464
106954752	5008	800
109051904	2960	992
111149056	816	640
113246208	1040	960
115343360	800	512
117440512	704	496
119537664	528	416
121634816	576	464
123731968	496	432
125829120	240	192
127926272	3888	224
130023424	176	112
132120576	304	48
134217728	2256	144
138412032	8128	1136
142606336	4512	1696
146800640	18336	16
150994944	48	32
155189248	9072	5424
159383552	26752	11584
163577856	32	16
167772160	0	0
171966464	144	144
176160768	1904	1904
180355072	2480	2480
184549376	2080	2080
188743680	2176	2176
192937984	2512	2512
197132288	2304	2304
201326592	2288	2288
205520896	2176	2160
209715200	2448	2448
213909504	2080	2064
218103808	4352	384
222298112	96	16
226492416	0	0
230686720	49408	42944
234881024	208	208
239075328	0	0
243269632	0	0
247463936	0	0
251658240	0	0
255852544	0	0
260046848	0	0
264241152	0	0
268435456	0	0
276824064	0	0
285212672	0	0
293601280	0	0
301989888	0	0
310378496	0	0
318767104	0	0
327155712	0	0
335544320	0	0
343932928	0	0
352321536	0	0
360710144	0	0
369098752	0	0
377487360	0	0
385875968	0	0
394264576	0	0
402653184	0	0
411041792	0	0
419430400	0	0
427819008	0	0
436207616	0	0
444596224	0	0
452984832	0	0
461373440	0	0
469762048	0	0
478150656	0	0
486539264	0	0
494927872	0	0
503316480	0	0
511705088	0	0
520093696	0	0
528482304	0	0
536870912	0	0
553648128	0	0
570425344	0	0
587202560	0	0
603979776	0	0
620756992	0	0
637534208	0	0
654311424	0	0
671088640	0	0
687865856	0	0
704643072	0	0
721420288	0	0
738197504	0	0
754974720	0	0
771751936	0	0
788529152	0	0
805306368	0	0
822083584	0	0
838860800	0	0
855638016	0	0
872415232	0	0
889192448	0	0
905969664	0	0
922746880	0	0
939524096	0	0
956301312	0	0
973078528	0	0
989855744	0	0
1006632960	0	0
1023410176	0	0
1040187392	0	0
1056964608	0	0
1073741824	0	0
1107296256	0	0
1140850688	0	0
1174405120	0	0
1207959552	0	0
1241513984	0	0
1275068416	0	0
1308622848	0	0
1342177280	0	0
1375731712	0	0
1409286144	0	0
1442840576	0	0
1476395008	0	0
1509949440	0	0
1543503872	0	0
1577058304	0	0
1610612736	0	0
1644167168	0	0
1677721600	0	0
1711276032	0	0
1744830464	0	0
1778384896	0	0
1811939328	0	0
1845493760	0	0
1879048192	0	0
1912602624	0	0
1946157056	0	0
1979711488	0	0
2013265920	0	0
2046820352	0	0
2080374784	0	0
2113929216	0	0
2147483648	0	0
2214592512	0	0
2281701376	0	0
2348810240	0	0
2415919104	0	0
2483027968	0	0
2550136832	0	0
2617245696	0	0
2684354560	0	0
2751463424	0	0
2818572288	0	0
2885681152	0	0
2952790016	0	0
3019898880	0	0
3087007744	0	0
3154116608	0	0
3221225472	0	0
3288334336	0	0
3355443200	0	0
3422552064	0	0
3489660928	0	0
3556769792	0	0
3623878656	0	0
3690987520	0	0
3758096384	0	0
3825205248	0	0
3892314112	0	0
3959422976	0	0
4026531840	0	0
4093640704	0	0
4160749568	0	0
4227858432	0	0
~~~~~~~~~~Reuse Distance Profiler output end~~~~~~~~~~

Sampler size:77054

DRAM Statistics
 CHANNEL 0
 RQ ROW_BUFFER_HIT:     579028  ROW_BUFFER_MISS:    9279273
 DBUS AVG_CONGESTED_CYCLE:    3.95681
 WQ ROW_BUFFER_HIT:     409114  ROW_BUFFER_MISS:    2455266  FULL:          0


CPU 0 Branch Prediction Accuracy: 98.2818% MPKI: 0.430807 Average ROB Occupancy at Mispredict: 313.35
Branch type MPKI
BRANCH_DIRECT_JUMP: 8.8e-05
BRANCH_INDIRECT: 1.66667e-05
BRANCH_CONDITIONAL: 0.430431
BRANCH_DIRECT_CALL: 0.000136667
BRANCH_INDIRECT_CALL: 5.33333e-06
BRANCH_RETURN: 0.000128667

