
*** ChampSim Multicore Out-of-Order Simulator ***

Warmup Instructions: 50000000
Simulation Instructions: 1500000000
Number of CPUs: 1
Off-chip DRAM Size: 4 GiB Channels: 1 Width: 64-bit Data Rate: 3200 MT/s

VirtualMemory physical capacity: 8588881920 num_ppages: 2096895
VirtualMemory page size: 4096 log2_page_size: 12

CPU 0 runs /s/traces/champsim_traces/447.dealII-3B.champsimtrace.xz
CPU 0 Bimodal branch predictor
Basic BTB sets: 1024 ways: 8 indirect buffer size: 4096 RAS size: 64
Initializing LRU.
Initializing LRU.
Initializing LRU.
Initializing LRU.
Initializing rdLRU.
Initializing LRU.
Heartbeat CPU 0 instructions: 2000002 cycles: 596084 heartbeat IPC: 3.35524 cumulative IPC: 3.35524 (Simulation time: 0 hr 1 min 27 sec) 
Heartbeat CPU 0 instructions: 4000001 cycles: 1188171 heartbeat IPC: 3.37788 cumulative IPC: 3.36652 (Simulation time: 0 hr 2 min 55 sec) 
Heartbeat CPU 0 instructions: 6000002 cycles: 1757214 heartbeat IPC: 3.51467 cumulative IPC: 3.4145 (Simulation time: 0 hr 4 min 19 sec) 
Heartbeat CPU 0 instructions: 8000000 cycles: 2372325 heartbeat IPC: 3.25144 cumulative IPC: 3.37222 (Simulation time: 0 hr 5 min 48 sec) 
Heartbeat CPU 0 instructions: 10000004 cycles: 2956879 heartbeat IPC: 3.42142 cumulative IPC: 3.38195 (Simulation time: 0 hr 7 min 12 sec) 
Heartbeat CPU 0 instructions: 12000002 cycles: 3559328 heartbeat IPC: 3.31978 cumulative IPC: 3.37142 (Simulation time: 0 hr 8 min 37 sec) 
Heartbeat CPU 0 instructions: 14000002 cycles: 4140842 heartbeat IPC: 3.4393 cumulative IPC: 3.38096 (Simulation time: 0 hr 9 min 58 sec) 
Heartbeat CPU 0 instructions: 16000001 cycles: 4732793 heartbeat IPC: 3.37866 cumulative IPC: 3.38067 (Simulation time: 0 hr 11 min 21 sec) 
Heartbeat CPU 0 instructions: 18000002 cycles: 5314075 heartbeat IPC: 3.44067 cumulative IPC: 3.38723 (Simulation time: 0 hr 12 min 41 sec) 
Heartbeat CPU 0 instructions: 20000000 cycles: 5909220 heartbeat IPC: 3.36052 cumulative IPC: 3.38454 (Simulation time: 0 hr 14 min 4 sec) 
Heartbeat CPU 0 instructions: 22000000 cycles: 6501199 heartbeat IPC: 3.3785 cumulative IPC: 3.38399 (Simulation time: 0 hr 15 min 27 sec) 
Heartbeat CPU 0 instructions: 24000001 cycles: 7070102 heartbeat IPC: 3.51554 cumulative IPC: 3.39458 (Simulation time: 0 hr 16 min 50 sec) 
Heartbeat CPU 0 instructions: 26000003 cycles: 7673731 heartbeat IPC: 3.3133 cumulative IPC: 3.38818 (Simulation time: 0 hr 18 min 13 sec) 
Heartbeat CPU 0 instructions: 28000002 cycles: 8330487 heartbeat IPC: 3.04527 cumulative IPC: 3.36115 (Simulation time: 0 hr 19 min 39 sec) 
Heartbeat CPU 0 instructions: 30000002 cycles: 8982696 heartbeat IPC: 3.0665 cumulative IPC: 3.33975 (Simulation time: 0 hr 21 min 9 sec) 
Heartbeat CPU 0 instructions: 32000003 cycles: 9635429 heartbeat IPC: 3.06404 cumulative IPC: 3.32108 (Simulation time: 0 hr 22 min 36 sec) 
Heartbeat CPU 0 instructions: 34000001 cycles: 10293166 heartbeat IPC: 3.04073 cumulative IPC: 3.30316 (Simulation time: 0 hr 24 min 4 sec) 
Heartbeat CPU 0 instructions: 36000002 cycles: 10950073 heartbeat IPC: 3.04457 cumulative IPC: 3.28765 (Simulation time: 0 hr 25 min 28 sec) 
Heartbeat CPU 0 instructions: 38000000 cycles: 11602348 heartbeat IPC: 3.06619 cumulative IPC: 3.2752 (Simulation time: 0 hr 26 min 52 sec) 
Heartbeat CPU 0 instructions: 40000001 cycles: 12254675 heartbeat IPC: 3.06595 cumulative IPC: 3.26406 (Simulation time: 0 hr 28 min 13 sec) 
Heartbeat CPU 0 instructions: 42000004 cycles: 12857281 heartbeat IPC: 3.31892 cumulative IPC: 3.26663 (Simulation time: 0 hr 29 min 34 sec) 
Heartbeat CPU 0 instructions: 44000000 cycles: 13454161 heartbeat IPC: 3.35075 cumulative IPC: 3.27036 (Simulation time: 0 hr 30 min 58 sec) 
Heartbeat CPU 0 instructions: 46000000 cycles: 14023149 heartbeat IPC: 3.51501 cumulative IPC: 3.28029 (Simulation time: 0 hr 32 min 17 sec) 
Heartbeat CPU 0 instructions: 48000004 cycles: 14615259 heartbeat IPC: 3.37776 cumulative IPC: 3.28424 (Simulation time: 0 hr 33 min 38 sec) 
Heartbeat CPU 0 instructions: 50000004 cycles: 15199755 heartbeat IPC: 3.42175 cumulative IPC: 3.28953 (Simulation time: 0 hr 34 min 57 sec) 

Warmup complete CPU 0 instructions: 50000004 cycles: 15199755 (Simulation time: 0 hr 34 min 57 sec) 

Heartbeat CPU 0 instructions: 52000000 cycles: 17550711 heartbeat IPC: 0.850716 cumulative IPC: 0.850716 (Simulation time: 0 hr 36 min 8 sec) 

Region of Interest Statistics
cpu0_DTLB TOTAL     ACCESS:     658200  HIT:     658092  MISS:        108
cpu0_DTLB LOAD      ACCESS:     499259  HIT:     499157  MISS:        102
cpu0_DTLB RFO       ACCESS:     158941  HIT:     158935  MISS:          6
cpu0_DTLB PREFETCH  ACCESS:          0  HIT:          0  MISS:          0
cpu0_DTLB WRITEBACK ACCESS:          0  HIT:          0  MISS:          0
cpu0_ITLB TOTAL     ACCESS:     257937  HIT:     257925  MISS:         12
cpu0_ITLB LOAD      ACCESS:     257937  HIT:     257925  MISS:         12
cpu0_ITLB RFO       ACCESS:          0  HIT:          0  MISS:          0
cpu0_ITLB PREFETCH  ACCESS:          0  HIT:          0  MISS:          0
cpu0_ITLB WRITEBACK ACCESS:          0  HIT:          0  MISS:          0
cpu0_L1I TOTAL     ACCESS:      26547  HIT:      26516  MISS:         31
cpu0_L1I LOAD      ACCESS:      26547  HIT:      26516  MISS:         31
cpu0_L1I RFO       ACCESS:          0  HIT:          0  MISS:          0
cpu0_L1I PREFETCH  ACCESS:          0  HIT:          0  MISS:          0
cpu0_L1I WRITEBACK ACCESS:          0  HIT:          0  MISS:          0
cpu0_STLB TOTAL     ACCESS:        120  HIT:        120  MISS:          0
cpu0_STLB LOAD      ACCESS:        114  HIT:        114  MISS:          0
cpu0_STLB RFO       ACCESS:          6  HIT:          6  MISS:          0
cpu0_STLB PREFETCH  ACCESS:          0  HIT:          0  MISS:          0
cpu0_STLB WRITEBACK ACCESS:          0  HIT:          0  MISS:          0
cpu0_L1D TOTAL     ACCESS:     881893  HIT:     878391  MISS:       3502
cpu0_L1D LOAD      ACCESS:     603880  HIT:     600577  MISS:       3303
cpu0_L1D RFO       ACCESS:     278013  HIT:     277814  MISS:        199
cpu0_L1D PREFETCH  ACCESS:          0  HIT:          0  MISS:          0
cpu0_L1D WRITEBACK ACCESS:          0  HIT:          0  MISS:          0
cpu0_L2C TOTAL     ACCESS:       3866  HIT:       3854  MISS:         12
cpu0_L2C LOAD      ACCESS:       3334  HIT:       3322  MISS:         12
cpu0_L2C RFO       ACCESS:        199  HIT:        199  MISS:          0
cpu0_L2C PREFETCH  ACCESS:          0  HIT:          0  MISS:          0
cpu0_L2C WRITEBACK ACCESS:        333  HIT:        333  MISS:          0
LLC TOTAL     ACCESS:         12  HIT:          0  MISS:         12
LLC LOAD      ACCESS:         12  HIT:          0  MISS:         12
LLC RFO       ACCESS:          0  HIT:          0  MISS:          0
LLC PREFETCH  ACCESS:          0  HIT:          0  MISS:          0
LLC WRITEBACK ACCESS:          0  HIT:          0  MISS:          0
Heartbeat CPU 0 instructions: 54000002 cycles: 19453280 heartbeat IPC: 1.05121 cumulative IPC: 0.940396 (Simulation time: 0 hr 37 min 24 sec) 

Region of Interest Statistics
cpu0_DTLB TOTAL     ACCESS:    1244066  HIT:    1243763  MISS:        303
cpu0_DTLB LOAD      ACCESS:     947186  HIT:     946903  MISS:        283
cpu0_DTLB RFO       ACCESS:     296880  HIT:     296860  MISS:         20
cpu0_DTLB PREFETCH  ACCESS:          0  HIT:          0  MISS:          0
cpu0_DTLB WRITEBACK ACCESS:          0  HIT:          0  MISS:          0
cpu0_ITLB TOTAL     ACCESS:     471130  HIT:     471074  MISS:         56
cpu0_ITLB LOAD      ACCESS:     471130  HIT:     471074  MISS:         56
cpu0_ITLB RFO       ACCESS:          0  HIT:          0  MISS:          0
cpu0_ITLB PREFETCH  ACCESS:          0  HIT:          0  MISS:          0
cpu0_ITLB WRITEBACK ACCESS:          0  HIT:          0  MISS:          0
cpu0_L1I TOTAL     ACCESS:     106155  HIT:     106090  MISS:         65
cpu0_L1I LOAD      ACCESS:     106155  HIT:     106090  MISS:         65
cpu0_L1I RFO       ACCESS:          0  HIT:          0  MISS:          0
cpu0_L1I PREFETCH  ACCESS:          0  HIT:          0  MISS:          0
cpu0_L1I WRITEBACK ACCESS:          0  HIT:          0  MISS:          0
cpu0_STLB TOTAL     ACCESS:        359  HIT:        359  MISS:          0
cpu0_STLB LOAD      ACCESS:        339  HIT:        339  MISS:          0
cpu0_STLB RFO       ACCESS:         20  HIT:         20  MISS:          0
cpu0_STLB PREFETCH  ACCESS:          0  HIT:          0  MISS:          0
cpu0_STLB WRITEBACK ACCESS:          0  HIT:          0  MISS:          0
cpu0_L1D TOTAL     ACCESS:    1670094  HIT:    1663747  MISS:       6347
cpu0_L1D LOAD      ACCESS:    1159136  HIT:    1153294  MISS:       5842
cpu0_L1D RFO       ACCESS:     510958  HIT:     510453  MISS:        505
cpu0_L1D PREFETCH  ACCESS:          0  HIT:          0  MISS:          0
cpu0_L1D WRITEBACK ACCESS:          0  HIT:          0  MISS:          0
cpu0_L2C TOTAL     ACCESS:       7209  HIT:       7154  MISS:         55
cpu0_L2C LOAD      ACCESS:       5907  HIT:       5852  MISS:         55
cpu0_L2C RFO       ACCESS:        505  HIT:        505  MISS:          0
cpu0_L2C PREFETCH  ACCESS:          0  HIT:          0  MISS:          0
cpu0_L2C WRITEBACK ACCESS:        797  HIT:        797  MISS:          0
LLC TOTAL     ACCESS:         56  HIT:          1  MISS:         55
LLC LOAD      ACCESS:         55  HIT:          0  MISS:         55
LLC RFO       ACCESS:          0  HIT:          0  MISS:          0
LLC PREFETCH  ACCESS:          0  HIT:          0  MISS:          0
LLC WRITEBACK ACCESS:          1  HIT:          1  MISS:          0
Heartbeat CPU 0 instructions: 56000002 cycles: 21650679 heartbeat IPC: 0.910167 cumulative IPC: 0.930099 (Simulation time: 0 hr 38 min 42 sec) 

Region of Interest Statistics
cpu0_DTLB TOTAL     ACCESS:    1864323  HIT:    1863831  MISS:        492
cpu0_DTLB LOAD      ACCESS:    1417491  HIT:    1417032  MISS:        459
cpu0_DTLB RFO       ACCESS:     446832  HIT:     446799  MISS:         33
cpu0_DTLB PREFETCH  ACCESS:          0  HIT:          0  MISS:          0
cpu0_DTLB WRITEBACK ACCESS:          0  HIT:          0  MISS:          0
cpu0_ITLB TOTAL     ACCESS:     704058  HIT:     703976  MISS:         82
cpu0_ITLB LOAD      ACCESS:     704058  HIT:     703976  MISS:         82
cpu0_ITLB RFO       ACCESS:          0  HIT:          0  MISS:          0
cpu0_ITLB PREFETCH  ACCESS:          0  HIT:          0  MISS:          0
cpu0_ITLB WRITEBACK ACCESS:          0  HIT:          0  MISS:          0
cpu0_L1I TOTAL     ACCESS:     158179  HIT:     157907  MISS:        272
cpu0_L1I LOAD      ACCESS:     158179  HIT:     157907  MISS:        272
cpu0_L1I RFO       ACCESS:          0  HIT:          0  MISS:          0
cpu0_L1I PREFETCH  ACCESS:          0  HIT:          0  MISS:          0
cpu0_L1I WRITEBACK ACCESS:          0  HIT:          0  MISS:          0
cpu0_STLB TOTAL     ACCESS:        574  HIT:        572  MISS:          2
cpu0_STLB LOAD      ACCESS:        541  HIT:        539  MISS:          2
cpu0_STLB RFO       ACCESS:         33  HIT:         33  MISS:          0
cpu0_STLB PREFETCH  ACCESS:          0  HIT:          0  MISS:          0
cpu0_STLB WRITEBACK ACCESS:          0  HIT:          0  MISS:          0
cpu0_L1D TOTAL     ACCESS:    2506473  HIT:    2495723  MISS:      10750
cpu0_L1D LOAD      ACCESS:    1730480  HIT:    1720627  MISS:       9853
cpu0_L1D RFO       ACCESS:     775991  HIT:     775096  MISS:        895
cpu0_L1D PREFETCH  ACCESS:          0  HIT:          0  MISS:          0
cpu0_L1D WRITEBACK ACCESS:          0  HIT:          0  MISS:          0
cpu0_L2C TOTAL     ACCESS:      12417  HIT:      12282  MISS:        135
cpu0_L2C LOAD      ACCESS:      10125  HIT:       9990  MISS:        135
cpu0_L2C RFO       ACCESS:        895  HIT:        895  MISS:          0
cpu0_L2C PREFETCH  ACCESS:          0  HIT:          0  MISS:          0
cpu0_L2C WRITEBACK ACCESS:       1395  HIT:       1395  MISS:          0
LLC TOTAL     ACCESS:        136  HIT:          4  MISS:        132
LLC LOAD      ACCESS:        135  HIT:          3  MISS:        132
LLC RFO       ACCESS:          0  HIT:          0  MISS:          0
LLC PREFETCH  ACCESS:          0  HIT:          0  MISS:          0
LLC WRITEBACK ACCESS:          1  HIT:          1  MISS:          0
Heartbeat CPU 0 instructions: 58000001 cycles: 24003040 heartbeat IPC: 0.850209 cumulative IPC: 0.908751 (Simulation time: 0 hr 39 min 51 sec) 

Region of Interest Statistics
cpu0_DTLB TOTAL     ACCESS:    2521502  HIT:    2520903  MISS:        599
cpu0_DTLB LOAD      ACCESS:    1915941  HIT:    1915381  MISS:        560
cpu0_DTLB RFO       ACCESS:     605561  HIT:     605522  MISS:         39
cpu0_DTLB PREFETCH  ACCESS:          0  HIT:          0  MISS:          0
cpu0_DTLB WRITEBACK ACCESS:          0  HIT:          0  MISS:          0
cpu0_ITLB TOTAL     ACCESS:     961227  HIT:     961133  MISS:         94
cpu0_ITLB LOAD      ACCESS:     961227  HIT:     961133  MISS:         94
cpu0_ITLB RFO       ACCESS:          0  HIT:          0  MISS:          0
cpu0_ITLB PREFETCH  ACCESS:          0  HIT:          0  MISS:          0
cpu0_ITLB WRITEBACK ACCESS:          0  HIT:          0  MISS:          0
cpu0_L1I TOTAL     ACCESS:     186026  HIT:     185721  MISS:        305
cpu0_L1I LOAD      ACCESS:     186026  HIT:     185721  MISS:        305
cpu0_L1I RFO       ACCESS:          0  HIT:          0  MISS:          0
cpu0_L1I PREFETCH  ACCESS:          0  HIT:          0  MISS:          0
cpu0_L1I WRITEBACK ACCESS:          0  HIT:          0  MISS:          0
cpu0_STLB TOTAL     ACCESS:        693  HIT:        691  MISS:          2
cpu0_STLB LOAD      ACCESS:        654  HIT:        652  MISS:          2
cpu0_STLB RFO       ACCESS:         39  HIT:         39  MISS:          0
cpu0_STLB PREFETCH  ACCESS:          0  HIT:          0  MISS:          0
cpu0_STLB WRITEBACK ACCESS:          0  HIT:          0  MISS:          0
cpu0_L1D TOTAL     ACCESS:    3387952  HIT:    3373658  MISS:      14294
cpu0_L1D LOAD      ACCESS:    2333768  HIT:    2320566  MISS:      13202
cpu0_L1D RFO       ACCESS:    1054182  HIT:    1053092  MISS:       1090
cpu0_L1D PREFETCH  ACCESS:          0  HIT:          0  MISS:          0
cpu0_L1D WRITEBACK ACCESS:          0  HIT:          0  MISS:          0
cpu0_L2C TOTAL     ACCESS:      16323  HIT:      16179  MISS:        144
cpu0_L2C LOAD      ACCESS:      13507  HIT:      13363  MISS:        144
cpu0_L2C RFO       ACCESS:       1090  HIT:       1090  MISS:          0
cpu0_L2C PREFETCH  ACCESS:          0  HIT:          0  MISS:          0
cpu0_L2C WRITEBACK ACCESS:       1724  HIT:       1724  MISS:          0
LLC TOTAL     ACCESS:        145  HIT:          4  MISS:        141
LLC LOAD      ACCESS:        144  HIT:          3  MISS:        141
LLC RFO       ACCESS:          0  HIT:          0  MISS:          0
LLC PREFETCH  ACCESS:          0  HIT:          0  MISS:          0
LLC WRITEBACK ACCESS:          1  HIT:          1  MISS:          0
Heartbeat CPU 0 instructions: 60000004 cycles: 25897563 heartbeat IPC: 1.05568 cumulative IPC: 0.934771 (Simulation time: 0 hr 41 min 1 sec) 

Region of Interest Statistics
cpu0_DTLB TOTAL     ACCESS:    3107322  HIT:    3106510  MISS:        812
cpu0_DTLB LOAD      ACCESS:    2363872  HIT:    2363113  MISS:        759
cpu0_DTLB RFO       ACCESS:     743450  HIT:     743397  MISS:         53
cpu0_DTLB PREFETCH  ACCESS:          0  HIT:          0  MISS:          0
cpu0_DTLB WRITEBACK ACCESS:          0  HIT:          0  MISS:          0
cpu0_ITLB TOTAL     ACCESS:    1174172  HIT:    1174033  MISS:        139
cpu0_ITLB LOAD      ACCESS:    1174172  HIT:    1174033  MISS:        139
cpu0_ITLB RFO       ACCESS:          0  HIT:          0  MISS:          0
cpu0_ITLB PREFETCH  ACCESS:          0  HIT:          0  MISS:          0
cpu0_ITLB WRITEBACK ACCESS:          0  HIT:          0  MISS:          0
cpu0_L1I TOTAL     ACCESS:     265951  HIT:     265569  MISS:        382
cpu0_L1I LOAD      ACCESS:     265951  HIT:     265569  MISS:        382
cpu0_L1I RFO       ACCESS:          0  HIT:          0  MISS:          0
cpu0_L1I PREFETCH  ACCESS:          0  HIT:          0  MISS:          0
cpu0_L1I WRITEBACK ACCESS:          0  HIT:          0  MISS:          0
cpu0_STLB TOTAL     ACCESS:        951  HIT:        949  MISS:          2
cpu0_STLB LOAD      ACCESS:        898  HIT:        896  MISS:          2
cpu0_STLB RFO       ACCESS:         53  HIT:         53  MISS:          0
cpu0_STLB PREFETCH  ACCESS:          0  HIT:          0  MISS:          0
cpu0_STLB WRITEBACK ACCESS:          0  HIT:          0  MISS:          0
cpu0_L1D TOTAL     ACCESS:    4176164  HIT:    4159024  MISS:      17140
cpu0_L1D LOAD      ACCESS:    2889018  HIT:    2873271  MISS:      15747
cpu0_L1D RFO       ACCESS:    1287144  HIT:    1285753  MISS:       1391
cpu0_L1D PREFETCH  ACCESS:          0  HIT:          0  MISS:          0
cpu0_L1D WRITEBACK ACCESS:          0  HIT:          0  MISS:          0
cpu0_L2C TOTAL     ACCESS:      19703  HIT:      19535  MISS:        168
cpu0_L2C LOAD      ACCESS:      16129  HIT:      15961  MISS:        168
cpu0_L2C RFO       ACCESS:       1391  HIT:       1391  MISS:          0
cpu0_L2C PREFETCH  ACCESS:          0  HIT:          0  MISS:          0
cpu0_L2C WRITEBACK ACCESS:       2181  HIT:       2181  MISS:          0
LLC TOTAL     ACCESS:        169  HIT:          5  MISS:        164
LLC LOAD      ACCESS:        168  HIT:          4  MISS:        164
LLC RFO       ACCESS:          0  HIT:          0  MISS:          0
LLC PREFETCH  ACCESS:          0  HIT:          0  MISS:          0
LLC WRITEBACK ACCESS:          1  HIT:          1  MISS:          0
Heartbeat CPU 0 instructions: 62000003 cycles: 28221823 heartbeat IPC: 0.860488 cumulative IPC: 0.921513 (Simulation time: 0 hr 42 min 15 sec) 

Region of Interest Statistics
cpu0_DTLB TOTAL     ACCESS:    3759192  HIT:    3758258  MISS:        934
cpu0_DTLB LOAD      ACCESS:    2858060  HIT:    2857189  MISS:        871
cpu0_DTLB RFO       ACCESS:     901132  HIT:     901069  MISS:         63
cpu0_DTLB PREFETCH  ACCESS:          0  HIT:          0  MISS:          0
cpu0_DTLB WRITEBACK ACCESS:          0  HIT:          0  MISS:          0
cpu0_ITLB TOTAL     ACCESS:    1429153  HIT:    1428997  MISS:        156
cpu0_ITLB LOAD      ACCESS:    1429153  HIT:    1428997  MISS:        156
cpu0_ITLB RFO       ACCESS:          0  HIT:          0  MISS:          0
cpu0_ITLB PREFETCH  ACCESS:          0  HIT:          0  MISS:          0
cpu0_ITLB WRITEBACK ACCESS:          0  HIT:          0  MISS:          0
cpu0_L1I TOTAL     ACCESS:     295806  HIT:     295351  MISS:        455
cpu0_L1I LOAD      ACCESS:     295806  HIT:     295351  MISS:        455
cpu0_L1I RFO       ACCESS:          0  HIT:          0  MISS:          0
cpu0_L1I PREFETCH  ACCESS:          0  HIT:          0  MISS:          0
cpu0_L1I WRITEBACK ACCESS:          0  HIT:          0  MISS:          0
cpu0_STLB TOTAL     ACCESS:       1090  HIT:       1087  MISS:          3
cpu0_STLB LOAD      ACCESS:       1027  HIT:       1024  MISS:          3
cpu0_STLB RFO       ACCESS:         63  HIT:         63  MISS:          0
cpu0_STLB PREFETCH  ACCESS:          0  HIT:          0  MISS:          0
cpu0_STLB WRITEBACK ACCESS:          0  HIT:          0  MISS:          0
cpu0_L1D TOTAL     ACCESS:    5048634  HIT:    5027700  MISS:      20934
cpu0_L1D LOAD      ACCESS:    3486582  HIT:    3467371  MISS:      19211
cpu0_L1D RFO       ACCESS:    1562049  HIT:    1560329  MISS:       1720
cpu0_L1D PREFETCH  ACCESS:          0  HIT:          0  MISS:          0
cpu0_L1D WRITEBACK ACCESS:          0  HIT:          0  MISS:          0
cpu0_L2C TOTAL     ACCESS:      23905  HIT:      23700  MISS:        205
cpu0_L2C LOAD      ACCESS:      19666  HIT:      19461  MISS:        205
cpu0_L2C RFO       ACCESS:       1720  HIT:       1720  MISS:          0
cpu0_L2C PREFETCH  ACCESS:          0  HIT:          0  MISS:          0
cpu0_L2C WRITEBACK ACCESS:       2516  HIT:       2516  MISS:          0
LLC TOTAL     ACCESS:        206  HIT:          5  MISS:        201
LLC LOAD      ACCESS:        205  HIT:          4  MISS:        201
LLC RFO       ACCESS:          0  HIT:          0  MISS:          0
LLC PREFETCH  ACCESS:          0  HIT:          0  MISS:          0
LLC WRITEBACK ACCESS:          1  HIT:          1  MISS:          0
Heartbeat CPU 0 instructions: 64000004 cycles: 30447501 heartbeat IPC: 0.898603 cumulative IPC: 0.918168 (Simulation time: 0 hr 43 min 31 sec) 

Region of Interest Statistics
cpu0_DTLB TOTAL     ACCESS:    4385192  HIT:    4384095  MISS:       1097
cpu0_DTLB LOAD      ACCESS:    3332959  HIT:    3331936  MISS:       1023
cpu0_DTLB RFO       ACCESS:    1052233  HIT:    1052159  MISS:         74
cpu0_DTLB PREFETCH  ACCESS:          0  HIT:          0  MISS:          0
cpu0_DTLB WRITEBACK ACCESS:          0  HIT:          0  MISS:          0
cpu0_ITLB TOTAL     ACCESS:    1664409  HIT:    1664234  MISS:        175
cpu0_ITLB LOAD      ACCESS:    1664409  HIT:    1664234  MISS:        175
cpu0_ITLB RFO       ACCESS:          0  HIT:          0  MISS:          0
cpu0_ITLB PREFETCH  ACCESS:          0  HIT:          0  MISS:          0
cpu0_ITLB WRITEBACK ACCESS:          0  HIT:          0  MISS:          0
cpu0_L1I TOTAL     ACCESS:     345689  HIT:     345168  MISS:        521
cpu0_L1I LOAD      ACCESS:     345689  HIT:     345168  MISS:        521
cpu0_L1I RFO       ACCESS:          0  HIT:          0  MISS:          0
cpu0_L1I PREFETCH  ACCESS:          0  HIT:          0  MISS:          0
cpu0_L1I WRITEBACK ACCESS:          0  HIT:          0  MISS:          0
cpu0_STLB TOTAL     ACCESS:       1272  HIT:       1269  MISS:          3
cpu0_STLB LOAD      ACCESS:       1198  HIT:       1195  MISS:          3
cpu0_STLB RFO       ACCESS:         74  HIT:         74  MISS:          0
cpu0_STLB PREFETCH  ACCESS:          0  HIT:          0  MISS:          0
cpu0_STLB WRITEBACK ACCESS:          0  HIT:          0  MISS:          0
cpu0_L1D TOTAL     ACCESS:    5894609  HIT:    5869535  MISS:      25074
cpu0_L1D LOAD      ACCESS:    4064050  HIT:    4040965  MISS:      23085
cpu0_L1D RFO       ACCESS:    1830556  HIT:    1828570  MISS:       1986
cpu0_L1D PREFETCH  ACCESS:          0  HIT:          0  MISS:          0
cpu0_L1D WRITEBACK ACCESS:          0  HIT:          0  MISS:          0
cpu0_L2C TOTAL     ACCESS:      28712  HIT:      28479  MISS:        233
cpu0_L2C LOAD      ACCESS:      23606  HIT:      23373  MISS:        233
cpu0_L2C RFO       ACCESS:       1986  HIT:       1986  MISS:          0
cpu0_L2C PREFETCH  ACCESS:          0  HIT:          0  MISS:          0
cpu0_L2C WRITEBACK ACCESS:       3117  HIT:       3117  MISS:          0
LLC TOTAL     ACCESS:        234  HIT:          5  MISS:        229
LLC LOAD      ACCESS:        233  HIT:          4  MISS:        229
LLC RFO       ACCESS:          0  HIT:          0  MISS:          0
LLC PREFETCH  ACCESS:          0  HIT:          0  MISS:          0
LLC WRITEBACK ACCESS:          1  HIT:          1  MISS:          0
Heartbeat CPU 0 instructions: 66000000 cycles: 32282465 heartbeat IPC: 1.08994 cumulative IPC: 0.936619 (Simulation time: 0 hr 44 min 43 sec) 

Region of Interest Statistics
cpu0_DTLB TOTAL     ACCESS:    4973014  HIT:    4971736  MISS:       1278
cpu0_DTLB LOAD      ACCESS:    3784398  HIT:    3783206  MISS:       1192
cpu0_DTLB RFO       ACCESS:    1188616  HIT:    1188530  MISS:         86
cpu0_DTLB PREFETCH  ACCESS:          0  HIT:          0  MISS:          0
cpu0_DTLB WRITEBACK ACCESS:          0  HIT:          0  MISS:          0
cpu0_ITLB TOTAL     ACCESS:    1880702  HIT:    1880477  MISS:        225
cpu0_ITLB LOAD      ACCESS:    1880702  HIT:    1880477  MISS:        225
cpu0_ITLB RFO       ACCESS:          0  HIT:          0  MISS:          0
cpu0_ITLB PREFETCH  ACCESS:          0  HIT:          0  MISS:          0
cpu0_ITLB WRITEBACK ACCESS:          0  HIT:          0  MISS:          0
cpu0_L1I TOTAL     ACCESS:     425614  HIT:     425079  MISS:        535
cpu0_L1I LOAD      ACCESS:     425614  HIT:     425079  MISS:        535
cpu0_L1I RFO       ACCESS:          0  HIT:          0  MISS:          0
cpu0_L1I PREFETCH  ACCESS:          0  HIT:          0  MISS:          0
cpu0_L1I WRITEBACK ACCESS:          0  HIT:          0  MISS:          0
cpu0_STLB TOTAL     ACCESS:       1503  HIT:       1499  MISS:          4
cpu0_STLB LOAD      ACCESS:       1417  HIT:       1413  MISS:          4
cpu0_STLB RFO       ACCESS:         86  HIT:         86  MISS:          0
cpu0_STLB PREFETCH  ACCESS:          0  HIT:          0  MISS:          0
cpu0_STLB WRITEBACK ACCESS:          0  HIT:          0  MISS:          0
cpu0_L1D TOTAL     ACCESS:    6680735  HIT:    6653933  MISS:      26802
cpu0_L1D LOAD      ACCESS:    4627310  HIT:    4602702  MISS:      24608
cpu0_L1D RFO       ACCESS:    2053421  HIT:    2051231  MISS:       2190
cpu0_L1D PREFETCH  ACCESS:          0  HIT:          0  MISS:          0
cpu0_L1D WRITEBACK ACCESS:          0  HIT:          0  MISS:          0
cpu0_L2C TOTAL     ACCESS:      30562  HIT:      30261  MISS:        301
cpu0_L2C LOAD      ACCESS:      25143  HIT:      24842  MISS:        301
cpu0_L2C RFO       ACCESS:       2190  HIT:       2190  MISS:          0
cpu0_L2C PREFETCH  ACCESS:          0  HIT:          0  MISS:          0
cpu0_L2C WRITEBACK ACCESS:       3225  HIT:       3225  MISS:          0
LLC TOTAL     ACCESS:        302  HIT:          5  MISS:        297
LLC LOAD      ACCESS:        301  HIT:          4  MISS:        297
LLC RFO       ACCESS:          0  HIT:          0  MISS:          0
LLC PREFETCH  ACCESS:          0  HIT:          0  MISS:          0
LLC WRITEBACK ACCESS:          1  HIT:          1  MISS:          0
Heartbeat CPU 0 instructions: 68000001 cycles: 33766621 heartbeat IPC: 1.34757 cumulative IPC: 0.969469 (Simulation time: 0 hr 46 min 2 sec) 

Region of Interest Statistics
cpu0_DTLB TOTAL     ACCESS:    5509059  HIT:    5507564  MISS:       1495
cpu0_DTLB LOAD      ACCESS:    4199210  HIT:    4197814  MISS:       1396
cpu0_DTLB RFO       ACCESS:    1309849  HIT:    1309750  MISS:         99
cpu0_DTLB PREFETCH  ACCESS:          0  HIT:          0  MISS:          0
cpu0_DTLB WRITEBACK ACCESS:          0  HIT:          0  MISS:          0
cpu0_ITLB TOTAL     ACCESS:    2063835  HIT:    2063542  MISS:        293
cpu0_ITLB LOAD      ACCESS:    2063835  HIT:    2063542  MISS:        293
cpu0_ITLB RFO       ACCESS:          0  HIT:          0  MISS:          0
cpu0_ITLB PREFETCH  ACCESS:          0  HIT:          0  MISS:          0
cpu0_ITLB WRITEBACK ACCESS:          0  HIT:          0  MISS:          0
cpu0_L1I TOTAL     ACCESS:     543849  HIT:     543314  MISS:        535
cpu0_L1I LOAD      ACCESS:     543849  HIT:     543314  MISS:        535
cpu0_L1I RFO       ACCESS:          0  HIT:          0  MISS:          0
cpu0_L1I PREFETCH  ACCESS:          0  HIT:          0  MISS:          0
cpu0_L1I WRITEBACK ACCESS:          0  HIT:          0  MISS:          0
cpu0_STLB TOTAL     ACCESS:       1788  HIT:       1784  MISS:          4
cpu0_STLB LOAD      ACCESS:       1689  HIT:       1685  MISS:          4
cpu0_STLB RFO       ACCESS:         99  HIT:         99  MISS:          0
cpu0_STLB PREFETCH  ACCESS:          0  HIT:          0  MISS:          0
cpu0_STLB WRITEBACK ACCESS:          0  HIT:          0  MISS:          0
cpu0_L1D TOTAL     ACCESS:    7400780  HIT:    7373593  MISS:      27187
cpu0_L1D LOAD      ACCESS:    5156851  HIT:    5131862  MISS:      24989
cpu0_L1D RFO       ACCESS:    2243925  HIT:    2241731  MISS:       2194
cpu0_L1D PREFETCH  ACCESS:          0  HIT:          0  MISS:          0
cpu0_L1D WRITEBACK ACCESS:          0  HIT:          0  MISS:          0
cpu0_L2C TOTAL     ACCESS:      31045  HIT:      30672  MISS:        373
cpu0_L2C LOAD      ACCESS:      25524  HIT:      25151  MISS:        373
cpu0_L2C RFO       ACCESS:       2194  HIT:       2194  MISS:          0
cpu0_L2C PREFETCH  ACCESS:          0  HIT:          0  MISS:          0
cpu0_L2C WRITEBACK ACCESS:       3323  HIT:       3323  MISS:          0
LLC TOTAL     ACCESS:        374  HIT:          5  MISS:        369
LLC LOAD      ACCESS:        373  HIT:          4  MISS:        369
LLC RFO       ACCESS:          0  HIT:          0  MISS:          0
LLC PREFETCH  ACCESS:          0  HIT:          0  MISS:          0
LLC WRITEBACK ACCESS:          1  HIT:          1  MISS:          0
Heartbeat CPU 0 instructions: 70000002 cycles: 35545736 heartbeat IPC: 1.12416 cumulative IPC: 0.982995 (Simulation time: 0 hr 47 min 20 sec) 

Region of Interest Statistics
cpu0_DTLB TOTAL     ACCESS:    6075615  HIT:    6073920  MISS:       1695
cpu0_DTLB LOAD      ACCESS:    4633467  HIT:    4631883  MISS:       1584
cpu0_DTLB RFO       ACCESS:    1442148  HIT:    1442037  MISS:        111
cpu0_DTLB PREFETCH  ACCESS:          0  HIT:          0  MISS:          0
cpu0_DTLB WRITEBACK ACCESS:          0  HIT:          0  MISS:          0
cpu0_ITLB TOTAL     ACCESS:    2265390  HIT:    2265043  MISS:        347
cpu0_ITLB LOAD      ACCESS:    2265390  HIT:    2265043  MISS:        347
cpu0_ITLB RFO       ACCESS:          0  HIT:          0  MISS:          0
cpu0_ITLB PREFETCH  ACCESS:          0  HIT:          0  MISS:          0
cpu0_ITLB WRITEBACK ACCESS:          0  HIT:          0  MISS:          0
cpu0_L1I TOTAL     ACCESS:     637302  HIT:     636750  MISS:        552
cpu0_L1I LOAD      ACCESS:     637302  HIT:     636750  MISS:        552
cpu0_L1I RFO       ACCESS:          0  HIT:          0  MISS:          0
cpu0_L1I PREFETCH  ACCESS:          0  HIT:          0  MISS:          0
cpu0_L1I WRITEBACK ACCESS:          0  HIT:          0  MISS:          0
cpu0_STLB TOTAL     ACCESS:       2042  HIT:       2038  MISS:          4
cpu0_STLB LOAD      ACCESS:       1931  HIT:       1927  MISS:          4
cpu0_STLB RFO       ACCESS:        111  HIT:        111  MISS:          0
cpu0_STLB PREFETCH  ACCESS:          0  HIT:          0  MISS:          0
cpu0_STLB WRITEBACK ACCESS:          0  HIT:          0  MISS:          0
cpu0_L1D TOTAL     ACCESS:    8165347  HIT:    8136183  MISS:      29164
cpu0_L1D LOAD      ACCESS:    5699202  HIT:    5672369  MISS:      26833
cpu0_L1D RFO       ACCESS:    2466141  HIT:    2463814  MISS:       2327
cpu0_L1D PREFETCH  ACCESS:          0  HIT:          0  MISS:          0
cpu0_L1D WRITEBACK ACCESS:          0  HIT:          0  MISS:          0
cpu0_L2C TOTAL     ACCESS:      33505  HIT:      33098  MISS:        407
cpu0_L2C LOAD      ACCESS:      27385  HIT:      26978  MISS:        407
cpu0_L2C RFO       ACCESS:       2327  HIT:       2327  MISS:          0
cpu0_L2C PREFETCH  ACCESS:          0  HIT:          0  MISS:          0
cpu0_L2C WRITEBACK ACCESS:       3789  HIT:       3789  MISS:          0
LLC TOTAL     ACCESS:        408  HIT:          5  MISS:        403
LLC LOAD      ACCESS:        407  HIT:          4  MISS:        403
LLC RFO       ACCESS:          0  HIT:          0  MISS:          0
LLC PREFETCH  ACCESS:          0  HIT:          0  MISS:          0
LLC WRITEBACK ACCESS:          1  HIT:          1  MISS:          0
Heartbeat CPU 0 instructions: 72000000 cycles: 37674114 heartbeat IPC: 0.939682 cumulative IPC: 0.978893 (Simulation time: 0 hr 48 min 32 sec) 

Region of Interest Statistics
cpu0_DTLB TOTAL     ACCESS:    6697361  HIT:    6695507  MISS:       1854
cpu0_DTLB LOAD      ACCESS:    5106980  HIT:    5105249  MISS:       1731
cpu0_DTLB RFO       ACCESS:    1590381  HIT:    1590258  MISS:        123
cpu0_DTLB PREFETCH  ACCESS:          0  HIT:          0  MISS:          0
cpu0_DTLB WRITEBACK ACCESS:          0  HIT:          0  MISS:          0
cpu0_ITLB TOTAL     ACCESS:    2500754  HIT:    2500377  MISS:        377
cpu0_ITLB LOAD      ACCESS:    2500754  HIT:    2500377  MISS:        377
cpu0_ITLB RFO       ACCESS:          0  HIT:          0  MISS:          0
cpu0_ITLB PREFETCH  ACCESS:          0  HIT:          0  MISS:          0
cpu0_ITLB WRITEBACK ACCESS:          0  HIT:          0  MISS:          0
cpu0_L1I TOTAL     ACCESS:     691010  HIT:     690406  MISS:        604
cpu0_L1I LOAD      ACCESS:     691010  HIT:     690406  MISS:        604
cpu0_L1I RFO       ACCESS:          0  HIT:          0  MISS:          0
cpu0_L1I PREFETCH  ACCESS:          0  HIT:          0  MISS:          0
cpu0_L1I WRITEBACK ACCESS:          0  HIT:          0  MISS:          0
cpu0_STLB TOTAL     ACCESS:       2231  HIT:       2226  MISS:          5
cpu0_STLB LOAD      ACCESS:       2108  HIT:       2103  MISS:          5
cpu0_STLB RFO       ACCESS:        123  HIT:        123  MISS:          0
cpu0_STLB PREFETCH  ACCESS:          0  HIT:          0  MISS:          0
cpu0_STLB WRITEBACK ACCESS:          0  HIT:          0  MISS:          0
cpu0_L1D TOTAL     ACCESS:    8999752  HIT:    8967276  MISS:      32476
cpu0_L1D LOAD      ACCESS:    6278503  HIT:    6248654  MISS:      29849
cpu0_L1D RFO       ACCESS:    2721244  HIT:    2718622  MISS:       2622
cpu0_L1D PREFETCH  ACCESS:          0  HIT:          0  MISS:          0
cpu0_L1D WRITEBACK ACCESS:          0  HIT:          0  MISS:          0
cpu0_L2C TOTAL     ACCESS:      37320  HIT:      36881  MISS:        439
cpu0_L2C LOAD      ACCESS:      30453  HIT:      30014  MISS:        439
cpu0_L2C RFO       ACCESS:       2622  HIT:       2622  MISS:          0
cpu0_L2C PREFETCH  ACCESS:          0  HIT:          0  MISS:          0
cpu0_L2C WRITEBACK ACCESS:       4240  HIT:       4240  MISS:          0
LLC TOTAL     ACCESS:        440  HIT:          5  MISS:        435
LLC LOAD      ACCESS:        439  HIT:          4  MISS:        435
LLC RFO       ACCESS:          0  HIT:          0  MISS:          0
LLC PREFETCH  ACCESS:          0  HIT:          0  MISS:          0
LLC WRITEBACK ACCESS:          1  HIT:          1  MISS:          0
Heartbeat CPU 0 instructions: 74000001 cycles: 39871806 heartbeat IPC: 0.910046 cumulative IPC: 0.97276 (Simulation time: 0 hr 49 min 48 sec) 

Region of Interest Statistics
cpu0_DTLB TOTAL     ACCESS:    7330051  HIT:    7328038  MISS:       2013
cpu0_DTLB LOAD      ACCESS:    5587675  HIT:    5585797  MISS:       1878
cpu0_DTLB RFO       ACCESS:    1742376  HIT:    1742241  MISS:        135
cpu0_DTLB PREFETCH  ACCESS:          0  HIT:          0  MISS:          0
cpu0_DTLB WRITEBACK ACCESS:          0  HIT:          0  MISS:          0
cpu0_ITLB TOTAL     ACCESS:    2743664  HIT:    2743260  MISS:        404
cpu0_ITLB LOAD      ACCESS:    2743664  HIT:    2743260  MISS:        404
cpu0_ITLB RFO       ACCESS:          0  HIT:          0  MISS:          0
cpu0_ITLB PREFETCH  ACCESS:          0  HIT:          0  MISS:          0
cpu0_ITLB WRITEBACK ACCESS:          0  HIT:          0  MISS:          0
cpu0_L1I TOTAL     ACCESS:     735468  HIT:     734779  MISS:        689
cpu0_L1I LOAD      ACCESS:     735468  HIT:     734779  MISS:        689
cpu0_L1I RFO       ACCESS:          0  HIT:          0  MISS:          0
cpu0_L1I PREFETCH  ACCESS:          0  HIT:          0  MISS:          0
cpu0_L1I WRITEBACK ACCESS:          0  HIT:          0  MISS:          0
cpu0_STLB TOTAL     ACCESS:       2417  HIT:       2412  MISS:          5
cpu0_STLB LOAD      ACCESS:       2282  HIT:       2277  MISS:          5
cpu0_STLB RFO       ACCESS:        135  HIT:        135  MISS:          0
cpu0_STLB PREFETCH  ACCESS:          0  HIT:          0  MISS:          0
cpu0_STLB WRITEBACK ACCESS:          0  HIT:          0  MISS:          0
cpu0_L1D TOTAL     ACCESS:    9847306  HIT:    9811053  MISS:      36253
cpu0_L1D LOAD      ACCESS:    6863440  HIT:    6830212  MISS:      33228
cpu0_L1D RFO       ACCESS:    2983861  HIT:    2980841  MISS:       3020
cpu0_L1D PREFETCH  ACCESS:          0  HIT:          0  MISS:          0
cpu0_L1D WRITEBACK ACCESS:          0  HIT:          0  MISS:          0
cpu0_L2C TOTAL     ACCESS:      41536  HIT:      41086  MISS:        450
cpu0_L2C LOAD      ACCESS:      33917  HIT:      33467  MISS:        450
cpu0_L2C RFO       ACCESS:       3020  HIT:       3020  MISS:          0
cpu0_L2C PREFETCH  ACCESS:          0  HIT:          0  MISS:          0
cpu0_L2C WRITEBACK ACCESS:       4594  HIT:       4594  MISS:          0
LLC TOTAL     ACCESS:        451  HIT:          6  MISS:        445
LLC LOAD      ACCESS:        450  HIT:          5  MISS:        445
LLC RFO       ACCESS:          0  HIT:          0  MISS:          0
LLC PREFETCH  ACCESS:          0  HIT:          0  MISS:          0
LLC WRITEBACK ACCESS:          1  HIT:          1  MISS:          0
Heartbeat CPU 0 instructions: 76000000 cycles: 41990758 heartbeat IPC: 0.943862 cumulative IPC: 0.970475 (Simulation time: 0 hr 51 min 6 sec) 

Region of Interest Statistics
cpu0_DTLB TOTAL     ACCESS:    7939043  HIT:    7936849  MISS:       2194
cpu0_DTLB LOAD      ACCESS:    6050464  HIT:    6048417  MISS:       2047
cpu0_DTLB RFO       ACCESS:    1888579  HIT:    1888432  MISS:        147
cpu0_DTLB PREFETCH  ACCESS:          0  HIT:          0  MISS:          0
cpu0_DTLB WRITEBACK ACCESS:          0  HIT:          0  MISS:          0
cpu0_ITLB TOTAL     ACCESS:    2968682  HIT:    2968250  MISS:        432
cpu0_ITLB LOAD      ACCESS:    2968682  HIT:    2968250  MISS:        432
cpu0_ITLB RFO       ACCESS:          0  HIT:          0  MISS:          0
cpu0_ITLB PREFETCH  ACCESS:          0  HIT:          0  MISS:          0
cpu0_ITLB WRITEBACK ACCESS:          0  HIT:          0  MISS:          0
cpu0_L1I TOTAL     ACCESS:     797653  HIT:     796915  MISS:        738
cpu0_L1I LOAD      ACCESS:     797653  HIT:     796915  MISS:        738
cpu0_L1I RFO       ACCESS:          0  HIT:          0  MISS:          0
cpu0_L1I PREFETCH  ACCESS:          0  HIT:          0  MISS:          0
cpu0_L1I WRITEBACK ACCESS:          0  HIT:          0  MISS:          0
cpu0_STLB TOTAL     ACCESS:       2626  HIT:       2621  MISS:          5
cpu0_STLB LOAD      ACCESS:       2479  HIT:       2474  MISS:          5
cpu0_STLB RFO       ACCESS:        147  HIT:        147  MISS:          0
cpu0_STLB PREFETCH  ACCESS:          0  HIT:          0  MISS:          0
cpu0_STLB WRITEBACK ACCESS:          0  HIT:          0  MISS:          0
cpu0_L1D TOTAL     ACCESS:   10671173  HIT:   10630974  MISS:      40199
cpu0_L1D LOAD      ACCESS:    7429154  HIT:    7392272  MISS:      36882
cpu0_L1D RFO       ACCESS:    3242014  HIT:    3238702  MISS:       3312
cpu0_L1D PREFETCH  ACCESS:          0  HIT:          0  MISS:          0
cpu0_L1D WRITEBACK ACCESS:          0  HIT:          0  MISS:          0
cpu0_L2C TOTAL     ACCESS:      46232  HIT:      45770  MISS:        462
cpu0_L2C LOAD      ACCESS:      37620  HIT:      37158  MISS:        462
cpu0_L2C RFO       ACCESS:       3312  HIT:       3312  MISS:          0
cpu0_L2C PREFETCH  ACCESS:          0  HIT:          0  MISS:          0
cpu0_L2C WRITEBACK ACCESS:       5295  HIT:       5295  MISS:          0
LLC TOTAL     ACCESS:        463  HIT:          6  MISS:        457
LLC LOAD      ACCESS:        462  HIT:          5  MISS:        457
LLC RFO       ACCESS:          0  HIT:          0  MISS:          0
LLC PREFETCH  ACCESS:          0  HIT:          0  MISS:          0
LLC WRITEBACK ACCESS:          1  HIT:          1  MISS:          0
Heartbeat CPU 0 instructions: 78000000 cycles: 44343072 heartbeat IPC: 0.850227 cumulative IPC: 0.960769 (Simulation time: 0 hr 52 min 20 sec) 

Region of Interest Statistics
cpu0_DTLB TOTAL     ACCESS:    8597007  HIT:    8594691  MISS:       2316
cpu0_DTLB LOAD      ACCESS:    6549534  HIT:    6547373  MISS:       2161
cpu0_DTLB RFO       ACCESS:    2047473  HIT:    2047318  MISS:        155
cpu0_DTLB PREFETCH  ACCESS:          0  HIT:          0  MISS:          0
cpu0_DTLB WRITEBACK ACCESS:          0  HIT:          0  MISS:          0
cpu0_ITLB TOTAL     ACCESS:    3226606  HIT:    3226161  MISS:        445
cpu0_ITLB LOAD      ACCESS:    3226606  HIT:    3226161  MISS:        445
cpu0_ITLB RFO       ACCESS:          0  HIT:          0  MISS:          0
cpu0_ITLB PREFETCH  ACCESS:          0  HIT:          0  MISS:          0
cpu0_ITLB WRITEBACK ACCESS:          0  HIT:          0  MISS:          0
cpu0_L1I TOTAL     ACCESS:     824474  HIT:     823669  MISS:        805
cpu0_L1I LOAD      ACCESS:     824474  HIT:     823669  MISS:        805
cpu0_L1I RFO       ACCESS:          0  HIT:          0  MISS:          0
cpu0_L1I PREFETCH  ACCESS:          0  HIT:          0  MISS:          0
cpu0_L1I WRITEBACK ACCESS:          0  HIT:          0  MISS:          0
cpu0_STLB TOTAL     ACCESS:       2761  HIT:       2756  MISS:          5
cpu0_STLB LOAD      ACCESS:       2606  HIT:       2601  MISS:          5
cpu0_STLB RFO       ACCESS:        155  HIT:        155  MISS:          0
cpu0_STLB PREFETCH  ACCESS:          0  HIT:          0  MISS:          0
cpu0_STLB WRITEBACK ACCESS:          0  HIT:          0  MISS:          0
cpu0_L1D TOTAL     ACCESS:   11552651  HIT:   11508928  MISS:      43723
cpu0_L1D LOAD      ACCESS:    8032797  HIT:    7992591  MISS:      40206
cpu0_L1D RFO       ACCESS:    3519849  HIT:    3516337  MISS:       3512
cpu0_L1D PREFETCH  ACCESS:          0  HIT:          0  MISS:          0
cpu0_L1D WRITEBACK ACCESS:          0  HIT:          0  MISS:          0
cpu0_L2C TOTAL     ACCESS:      50161  HIT:      49684  MISS:        477
cpu0_L2C LOAD      ACCESS:      41011  HIT:      40534  MISS:        477
cpu0_L2C RFO       ACCESS:       3512  HIT:       3512  MISS:          0
cpu0_L2C PREFETCH  ACCESS:          0  HIT:          0  MISS:          0
cpu0_L2C WRITEBACK ACCESS:       5633  HIT:       5633  MISS:          0
LLC TOTAL     ACCESS:        478  HIT:          6  MISS:        472
LLC LOAD      ACCESS:        477  HIT:          5  MISS:        472
LLC RFO       ACCESS:          0  HIT:          0  MISS:          0
LLC PREFETCH  ACCESS:          0  HIT:          0  MISS:          0
LLC WRITEBACK ACCESS:          1  HIT:          1  MISS:          0
Heartbeat CPU 0 instructions: 80000001 cycles: 46536983 heartbeat IPC: 0.911614 cumulative IPC: 0.957328 (Simulation time: 0 hr 53 min 37 sec) 

Region of Interest Statistics
cpu0_DTLB TOTAL     ACCESS:    9216508  HIT:    9214013  MISS:       2495
cpu0_DTLB LOAD      ACCESS:    7019225  HIT:    7016897  MISS:       2328
cpu0_DTLB RFO       ACCESS:    2197283  HIT:    2197116  MISS:        167
cpu0_DTLB PREFETCH  ACCESS:          0  HIT:          0  MISS:          0
cpu0_DTLB WRITEBACK ACCESS:          0  HIT:          0  MISS:          0
cpu0_ITLB TOTAL     ACCESS:    3458865  HIT:    3458396  MISS:        469
cpu0_ITLB LOAD      ACCESS:    3458865  HIT:    3458396  MISS:        469
cpu0_ITLB RFO       ACCESS:          0  HIT:          0  MISS:          0
cpu0_ITLB PREFETCH  ACCESS:          0  HIT:          0  MISS:          0
cpu0_ITLB WRITEBACK ACCESS:          0  HIT:          0  MISS:          0
cpu0_L1I TOTAL     ACCESS:     877808  HIT:     876857  MISS:        951
cpu0_L1I LOAD      ACCESS:     877808  HIT:     876857  MISS:        951
cpu0_L1I RFO       ACCESS:          0  HIT:          0  MISS:          0
cpu0_L1I PREFETCH  ACCESS:          0  HIT:          0  MISS:          0
cpu0_L1I WRITEBACK ACCESS:          0  HIT:          0  MISS:          0
cpu0_STLB TOTAL     ACCESS:       2964  HIT:       2959  MISS:          5
cpu0_STLB LOAD      ACCESS:       2797  HIT:       2792  MISS:          5
cpu0_STLB RFO       ACCESS:        167  HIT:        167  MISS:          0
cpu0_STLB PREFETCH  ACCESS:          0  HIT:          0  MISS:          0
cpu0_STLB WRITEBACK ACCESS:          0  HIT:          0  MISS:          0
cpu0_L1D TOTAL     ACCESS:   12388894  HIT:   12340719  MISS:      48175
cpu0_L1D LOAD      ACCESS:    8603710  HIT:    8559449  MISS:      44261
cpu0_L1D RFO       ACCESS:    3785179  HIT:    3781270  MISS:       3909
cpu0_L1D PREFETCH  ACCESS:          0  HIT:          0  MISS:          0
cpu0_L1D WRITEBACK ACCESS:          0  HIT:          0  MISS:          0
cpu0_L2C TOTAL     ACCESS:      55373  HIT:      54879  MISS:        494
cpu0_L2C LOAD      ACCESS:      45212  HIT:      44718  MISS:        494
cpu0_L2C RFO       ACCESS:       3909  HIT:       3909  MISS:          0
cpu0_L2C PREFETCH  ACCESS:          0  HIT:          0  MISS:          0
cpu0_L2C WRITEBACK ACCESS:       6247  HIT:       6247  MISS:          0
LLC TOTAL     ACCESS:        495  HIT:          8  MISS:        487
LLC LOAD      ACCESS:        494  HIT:          7  MISS:        487
LLC RFO       ACCESS:          0  HIT:          0  MISS:          0
LLC PREFETCH  ACCESS:          0  HIT:          0  MISS:          0
LLC WRITEBACK ACCESS:          1  HIT:          1  MISS:          0
Heartbeat CPU 0 instructions: 82000000 cycles: 48444581 heartbeat IPC: 1.04844 cumulative IPC: 0.962556 (Simulation time: 0 hr 54 min 45 sec) 

Region of Interest Statistics
cpu0_DTLB TOTAL     ACCESS:    9815732  HIT:    9813027  MISS:       2705
cpu0_DTLB LOAD      ACCESS:    7477802  HIT:    7475281  MISS:       2521
cpu0_DTLB RFO       ACCESS:    2337930  HIT:    2337746  MISS:        184
cpu0_DTLB PREFETCH  ACCESS:          0  HIT:          0  MISS:          0
cpu0_DTLB WRITEBACK ACCESS:          0  HIT:          0  MISS:          0
cpu0_ITLB TOTAL     ACCESS:    3682080  HIT:    3681567  MISS:        513
cpu0_ITLB LOAD      ACCESS:    3682080  HIT:    3681567  MISS:        513
cpu0_ITLB RFO       ACCESS:          0  HIT:          0  MISS:          0
cpu0_ITLB PREFETCH  ACCESS:          0  HIT:          0  MISS:          0
cpu0_ITLB WRITEBACK ACCESS:          0  HIT:          0  MISS:          0
cpu0_L1I TOTAL     ACCESS:     946204  HIT:     945210  MISS:        994
cpu0_L1I LOAD      ACCESS:     946204  HIT:     945210  MISS:        994
cpu0_L1I RFO       ACCESS:          0  HIT:          0  MISS:          0
cpu0_L1I PREFETCH  ACCESS:          0  HIT:          0  MISS:          0
cpu0_L1I WRITEBACK ACCESS:          0  HIT:          0  MISS:          0
cpu0_STLB TOTAL     ACCESS:       3218  HIT:       3213  MISS:          5
cpu0_STLB LOAD      ACCESS:       3034  HIT:       3029  MISS:          5
cpu0_STLB RFO       ACCESS:        184  HIT:        184  MISS:          0
cpu0_STLB PREFETCH  ACCESS:          0  HIT:          0  MISS:          0
cpu0_STLB WRITEBACK ACCESS:          0  HIT:          0  MISS:          0
cpu0_L1D TOTAL     ACCESS:   13187082  HIT:   13136484  MISS:      50598
cpu0_L1D LOAD      ACCESS:    9169413  HIT:    9123030  MISS:      46383
cpu0_L1D RFO       ACCESS:    4017664  HIT:    4013454  MISS:       4210
cpu0_L1D PREFETCH  ACCESS:          0  HIT:          0  MISS:          0
cpu0_L1D WRITEBACK ACCESS:          0  HIT:          0  MISS:          0
cpu0_L2C TOTAL     ACCESS:      58063  HIT:      57533  MISS:        530
cpu0_L2C LOAD      ACCESS:      47377  HIT:      46847  MISS:        530
cpu0_L2C RFO       ACCESS:       4210  HIT:       4210  MISS:          0
cpu0_L2C PREFETCH  ACCESS:          0  HIT:          0  MISS:          0
cpu0_L2C WRITEBACK ACCESS:       6471  HIT:       6471  MISS:          0
LLC TOTAL     ACCESS:        531  HIT:          9  MISS:        522
LLC LOAD      ACCESS:        530  HIT:          8  MISS:        522
LLC RFO       ACCESS:          0  HIT:          0  MISS:          0
LLC PREFETCH  ACCESS:          0  HIT:          0  MISS:          0
LLC WRITEBACK ACCESS:          1  HIT:          1  MISS:          0
Heartbeat CPU 0 instructions: 84000004 cycles: 50791084 heartbeat IPC: 0.852334 cumulative IPC: 0.955289 (Simulation time: 0 hr 56 min 2 sec) 

Region of Interest Statistics
cpu0_DTLB TOTAL     ACCESS:   10460666  HIT:   10457843  MISS:       2823
cpu0_DTLB LOAD      ACCESS:    7966533  HIT:    7963901  MISS:       2632
cpu0_DTLB RFO       ACCESS:    2494133  HIT:    2493942  MISS:        191
cpu0_DTLB PREFETCH  ACCESS:          0  HIT:          0  MISS:          0
cpu0_DTLB WRITEBACK ACCESS:          0  HIT:          0  MISS:          0
cpu0_ITLB TOTAL     ACCESS:    3929966  HIT:    3929441  MISS:        525
cpu0_ITLB LOAD      ACCESS:    3929966  HIT:    3929441  MISS:        525
cpu0_ITLB RFO       ACCESS:          0  HIT:          0  MISS:          0
cpu0_ITLB PREFETCH  ACCESS:          0  HIT:          0  MISS:          0
cpu0_ITLB WRITEBACK ACCESS:          0  HIT:          0  MISS:          0
cpu0_L1I TOTAL     ACCESS:     984594  HIT:     983564  MISS:       1030
cpu0_L1I LOAD      ACCESS:     984594  HIT:     983564  MISS:       1030
cpu0_L1I RFO       ACCESS:          0  HIT:          0  MISS:          0
cpu0_L1I PREFETCH  ACCESS:          0  HIT:          0  MISS:          0
cpu0_L1I WRITEBACK ACCESS:          0  HIT:          0  MISS:          0
cpu0_STLB TOTAL     ACCESS:       3348  HIT:       3343  MISS:          5
cpu0_STLB LOAD      ACCESS:       3157  HIT:       3152  MISS:          5
cpu0_STLB RFO       ACCESS:        191  HIT:        191  MISS:          0
cpu0_STLB PREFETCH  ACCESS:          0  HIT:          0  MISS:          0
cpu0_STLB WRITEBACK ACCESS:          0  HIT:          0  MISS:          0
cpu0_L1D TOTAL     ACCESS:   14059022  HIT:   14004478  MISS:      54544
cpu0_L1D LOAD      ACCESS:    9762907  HIT:    9712777  MISS:      50130
cpu0_L1D RFO       ACCESS:    4296110  HIT:    4291701  MISS:       4409
cpu0_L1D PREFETCH  ACCESS:          0  HIT:          0  MISS:          0
cpu0_L1D WRITEBACK ACCESS:          0  HIT:          0  MISS:          0
cpu0_L2C TOTAL     ACCESS:      62633  HIT:      62085  MISS:        548
cpu0_L2C LOAD      ACCESS:      51160  HIT:      50612  MISS:        548
cpu0_L2C RFO       ACCESS:       4409  HIT:       4409  MISS:          0
cpu0_L2C PREFETCH  ACCESS:          0  HIT:          0  MISS:          0
cpu0_L2C WRITEBACK ACCESS:       7059  HIT:       7059  MISS:          0
LLC TOTAL     ACCESS:        549  HIT:          9  MISS:        540
LLC LOAD      ACCESS:        548  HIT:          8  MISS:        540
LLC RFO       ACCESS:          0  HIT:          0  MISS:          0
LLC PREFETCH  ACCESS:          0  HIT:          0  MISS:          0
LLC WRITEBACK ACCESS:          1  HIT:          1  MISS:          0
Heartbeat CPU 0 instructions: 86000001 cycles: 53007043 heartbeat IPC: 0.902542 cumulative IPC: 0.952197 (Simulation time: 0 hr 57 min 17 sec) 

Region of Interest Statistics
cpu0_DTLB TOTAL     ACCESS:   11096222  HIT:   11093218  MISS:       3004
cpu0_DTLB LOAD      ACCESS:    8449080  HIT:    8446282  MISS:       2798
cpu0_DTLB RFO       ACCESS:    2647142  HIT:    2646936  MISS:        206
cpu0_DTLB PREFETCH  ACCESS:          0  HIT:          0  MISS:          0
cpu0_DTLB WRITEBACK ACCESS:          0  HIT:          0  MISS:          0
cpu0_ITLB TOTAL     ACCESS:    4174502  HIT:    4173952  MISS:        550
cpu0_ITLB LOAD      ACCESS:    4174502  HIT:    4173952  MISS:        550
cpu0_ITLB RFO       ACCESS:          0  HIT:          0  MISS:          0
cpu0_ITLB PREFETCH  ACCESS:          0  HIT:          0  MISS:          0
cpu0_ITLB WRITEBACK ACCESS:          0  HIT:          0  MISS:          0
cpu0_L1I TOTAL     ACCESS:    1026238  HIT:    1025090  MISS:       1148
cpu0_L1I LOAD      ACCESS:    1026238  HIT:    1025090  MISS:       1148
cpu0_L1I RFO       ACCESS:          0  HIT:          0  MISS:          0
cpu0_L1I PREFETCH  ACCESS:          0  HIT:          0  MISS:          0
cpu0_L1I WRITEBACK ACCESS:          0  HIT:          0  MISS:          0
cpu0_STLB TOTAL     ACCESS:       3554  HIT:       3549  MISS:          5
cpu0_STLB LOAD      ACCESS:       3348  HIT:       3343  MISS:          5
cpu0_STLB RFO       ACCESS:        206  HIT:        206  MISS:          0
cpu0_STLB PREFETCH  ACCESS:          0  HIT:          0  MISS:          0
cpu0_STLB WRITEBACK ACCESS:          0  HIT:          0  MISS:          0
cpu0_L1D TOTAL     ACCESS:   14910453  HIT:   14852012  MISS:      58441
cpu0_L1D LOAD      ACCESS:   10348517  HIT:   10294880  MISS:      53637
cpu0_L1D RFO       ACCESS:    4561931  HIT:    4557132  MISS:       4799
cpu0_L1D PREFETCH  ACCESS:          0  HIT:          0  MISS:          0
cpu0_L1D WRITEBACK ACCESS:          0  HIT:          0  MISS:          0
cpu0_L2C TOTAL     ACCESS:      66992  HIT:      66436  MISS:        556
cpu0_L2C LOAD      ACCESS:      54785  HIT:      54229  MISS:        556
cpu0_L2C RFO       ACCESS:       4799  HIT:       4799  MISS:          0
cpu0_L2C PREFETCH  ACCESS:          0  HIT:          0  MISS:          0
cpu0_L2C WRITEBACK ACCESS:       7403  HIT:       7403  MISS:          0
LLC TOTAL     ACCESS:        557  HIT:          9  MISS:        548
LLC LOAD      ACCESS:        556  HIT:          8  MISS:        548
LLC RFO       ACCESS:          0  HIT:          0  MISS:          0
LLC PREFETCH  ACCESS:          0  HIT:          0  MISS:          0
LLC WRITEBACK ACCESS:          1  HIT:          1  MISS:          0
Heartbeat CPU 0 instructions: 88000001 cycles: 55039301 heartbeat IPC: 0.984127 cumulative IPC: 0.953826 (Simulation time: 0 hr 58 min 32 sec) 

Region of Interest Statistics
cpu0_DTLB TOTAL     ACCESS:   11704896  HIT:   11701729  MISS:       3167
cpu0_DTLB LOAD      ACCESS:    8914012  HIT:    8911059  MISS:       2953
cpu0_DTLB RFO       ACCESS:    2790884  HIT:    2790670  MISS:        214
cpu0_DTLB PREFETCH  ACCESS:          0  HIT:          0  MISS:          0
cpu0_DTLB WRITEBACK ACCESS:          0  HIT:          0  MISS:          0
cpu0_ITLB TOTAL     ACCESS:    4400963  HIT:    4400379  MISS:        584
cpu0_ITLB LOAD      ACCESS:    4400963  HIT:    4400379  MISS:        584
cpu0_ITLB RFO       ACCESS:          0  HIT:          0  MISS:          0
cpu0_ITLB PREFETCH  ACCESS:          0  HIT:          0  MISS:          0
cpu0_ITLB WRITEBACK ACCESS:          0  HIT:          0  MISS:          0
cpu0_L1I TOTAL     ACCESS:    1091665  HIT:    1090472  MISS:       1193
cpu0_L1I LOAD      ACCESS:    1091665  HIT:    1090472  MISS:       1193
cpu0_L1I RFO       ACCESS:          0  HIT:          0  MISS:          0
cpu0_L1I PREFETCH  ACCESS:          0  HIT:          0  MISS:          0
cpu0_L1I WRITEBACK ACCESS:          0  HIT:          0  MISS:          0
cpu0_STLB TOTAL     ACCESS:       3751  HIT:       3746  MISS:          5
cpu0_STLB LOAD      ACCESS:       3537  HIT:       3532  MISS:          5
cpu0_STLB RFO       ACCESS:        214  HIT:        214  MISS:          0
cpu0_STLB PREFETCH  ACCESS:          0  HIT:          0  MISS:          0
cpu0_STLB WRITEBACK ACCESS:          0  HIT:          0  MISS:          0
cpu0_L1D TOTAL     ACCESS:   15728710  HIT:   15667378  MISS:      61332
cpu0_L1D LOAD      ACCESS:   10922025  HIT:   10865710  MISS:      56315
cpu0_L1D RFO       ACCESS:    4806680  HIT:    4801668  MISS:       5012
cpu0_L1D PREFETCH  ACCESS:          0  HIT:          0  MISS:          0
cpu0_L1D WRITEBACK ACCESS:          0  HIT:          0  MISS:          0
cpu0_L2C TOTAL     ACCESS:      70302  HIT:      69729  MISS:        573
cpu0_L2C LOAD      ACCESS:      57508  HIT:      56935  MISS:        573
cpu0_L2C RFO       ACCESS:       5012  HIT:       5012  MISS:          0
cpu0_L2C PREFETCH  ACCESS:          0  HIT:          0  MISS:          0
cpu0_L2C WRITEBACK ACCESS:       7777  HIT:       7777  MISS:          0
LLC TOTAL     ACCESS:        574  HIT:          9  MISS:        565
LLC LOAD      ACCESS:        573  HIT:          8  MISS:        565
LLC RFO       ACCESS:          0  HIT:          0  MISS:          0
LLC PREFETCH  ACCESS:          0  HIT:          0  MISS:          0
LLC WRITEBACK ACCESS:          1  HIT:          1  MISS:          0
Heartbeat CPU 0 instructions: 90000003 cycles: 56571494 heartbeat IPC: 1.30532 cumulative IPC: 0.966844 (Simulation time: 0 hr 59 min 49 sec) 

Region of Interest Statistics
cpu0_DTLB TOTAL     ACCESS:   12246427  HIT:   12243028  MISS:       3399
cpu0_DTLB LOAD      ACCESS:    9332257  HIT:    9329087  MISS:       3170
cpu0_DTLB RFO       ACCESS:    2914170  HIT:    2913941  MISS:        229
cpu0_DTLB PREFETCH  ACCESS:          0  HIT:          0  MISS:          0
cpu0_DTLB WRITEBACK ACCESS:          0  HIT:          0  MISS:          0
cpu0_ITLB TOTAL     ACCESS:    4588478  HIT:    4587826  MISS:        652
cpu0_ITLB LOAD      ACCESS:    4588478  HIT:    4587826  MISS:        652
cpu0_ITLB RFO       ACCESS:          0  HIT:          0  MISS:          0
cpu0_ITLB PREFETCH  ACCESS:          0  HIT:          0  MISS:          0
cpu0_ITLB WRITEBACK ACCESS:          0  HIT:          0  MISS:          0
cpu0_L1I TOTAL     ACCESS:    1205224  HIT:    1204031  MISS:       1193
cpu0_L1I LOAD      ACCESS:    1205224  HIT:    1204031  MISS:       1193
cpu0_L1I RFO       ACCESS:          0  HIT:          0  MISS:          0
cpu0_L1I PREFETCH  ACCESS:          0  HIT:          0  MISS:          0
cpu0_L1I WRITEBACK ACCESS:          0  HIT:          0  MISS:          0
cpu0_STLB TOTAL     ACCESS:       4051  HIT:       4046  MISS:          5
cpu0_STLB LOAD      ACCESS:       3822  HIT:       3817  MISS:          5
cpu0_STLB RFO       ACCESS:        229  HIT:        229  MISS:          0
cpu0_STLB PREFETCH  ACCESS:          0  HIT:          0  MISS:          0
cpu0_STLB WRITEBACK ACCESS:          0  HIT:          0  MISS:          0
cpu0_L1D TOTAL     ACCESS:   16455670  HIT:   16393856  MISS:      61814
cpu0_L1D LOAD      ACCESS:   11453733  HIT:   11396940  MISS:      56793
cpu0_L1D RFO       ACCESS:    5001932  HIT:    4996916  MISS:       5016
cpu0_L1D PREFETCH  ACCESS:          0  HIT:          0  MISS:          0
cpu0_L1D WRITEBACK ACCESS:          0  HIT:          0  MISS:          0
cpu0_L2C TOTAL     ACCESS:      70886  HIT:      70274  MISS:        612
cpu0_L2C LOAD      ACCESS:      57986  HIT:      57374  MISS:        612
cpu0_L2C RFO       ACCESS:       5016  HIT:       5016  MISS:          0
cpu0_L2C PREFETCH  ACCESS:          0  HIT:          0  MISS:          0
cpu0_L2C WRITEBACK ACCESS:       7879  HIT:       7879  MISS:          0
LLC TOTAL     ACCESS:        613  HIT:          9  MISS:        604
LLC LOAD      ACCESS:        612  HIT:          8  MISS:        604
LLC RFO       ACCESS:          0  HIT:          0  MISS:          0
LLC PREFETCH  ACCESS:          0  HIT:          0  MISS:          0
LLC WRITEBACK ACCESS:          1  HIT:          1  MISS:          0
Heartbeat CPU 0 instructions: 92000001 cycles: 58128723 heartbeat IPC: 1.28433 cumulative IPC: 0.97836 (Simulation time: 1 hr 1 min 6 sec) 

Region of Interest Statistics
cpu0_DTLB TOTAL     ACCESS:   12775028  HIT:   12771376  MISS:       3652
cpu0_DTLB LOAD      ACCESS:    9736292  HIT:    9732887  MISS:       3405
cpu0_DTLB RFO       ACCESS:    3038736  HIT:    3038489  MISS:        247
cpu0_DTLB PREFETCH  ACCESS:          0  HIT:          0  MISS:          0
cpu0_DTLB WRITEBACK ACCESS:          0  HIT:          0  MISS:          0
cpu0_ITLB TOTAL     ACCESS:    4770632  HIT:    4769881  MISS:        751
cpu0_ITLB LOAD      ACCESS:    4770632  HIT:    4769881  MISS:        751
cpu0_ITLB RFO       ACCESS:          0  HIT:          0  MISS:          0
cpu0_ITLB PREFETCH  ACCESS:          0  HIT:          0  MISS:          0
cpu0_ITLB WRITEBACK ACCESS:          0  HIT:          0  MISS:          0
cpu0_L1I TOTAL     ACCESS:    1329640  HIT:    1328185  MISS:       1455
cpu0_L1I LOAD      ACCESS:    1329640  HIT:    1328185  MISS:       1455
cpu0_L1I RFO       ACCESS:          0  HIT:          0  MISS:          0
cpu0_L1I PREFETCH  ACCESS:          0  HIT:          0  MISS:          0
cpu0_L1I WRITEBACK ACCESS:          0  HIT:          0  MISS:          0
cpu0_STLB TOTAL     ACCESS:       4403  HIT:       4361  MISS:         42
cpu0_STLB LOAD      ACCESS:       4156  HIT:       4115  MISS:         41
cpu0_STLB RFO       ACCESS:        247  HIT:        246  MISS:          1
cpu0_STLB PREFETCH  ACCESS:          0  HIT:          0  MISS:          0
cpu0_STLB WRITEBACK ACCESS:          0  HIT:          0  MISS:          0
cpu0_L1D TOTAL     ACCESS:   17169233  HIT:   17106595  MISS:      62638
cpu0_L1D LOAD      ACCESS:   11968139  HIT:   11910842  MISS:      57297
cpu0_L1D RFO       ACCESS:    5201052  HIT:    5195718  MISS:       5334
cpu0_L1D PREFETCH  ACCESS:          0  HIT:          0  MISS:          0
cpu0_L1D WRITEBACK ACCESS:          0  HIT:          0  MISS:          0
cpu0_L2C TOTAL     ACCESS:      72199  HIT:      71109  MISS:       1090
cpu0_L2C LOAD      ACCESS:      58752  HIT:      57761  MISS:        991
cpu0_L2C RFO       ACCESS:       5334  HIT:       5235  MISS:         99
cpu0_L2C PREFETCH  ACCESS:          0  HIT:          0  MISS:          0
cpu0_L2C WRITEBACK ACCESS:       8106  HIT:       8106  MISS:          0
LLC TOTAL     ACCESS:       1097  HIT:         16  MISS:       1081
LLC LOAD      ACCESS:        991  HIT:          9  MISS:        982
LLC RFO       ACCESS:         99  HIT:          0  MISS:         99
LLC PREFETCH  ACCESS:          0  HIT:          0  MISS:          0
LLC WRITEBACK ACCESS:          7  HIT:          7  MISS:          0
Heartbeat CPU 0 instructions: 94000004 cycles: 59684937 heartbeat IPC: 1.28517 cumulative IPC: 0.989093 (Simulation time: 1 hr 2 min 8 sec) 

Region of Interest Statistics
cpu0_DTLB TOTAL     ACCESS:   13143719  HIT:   13139736  MISS:       3983
cpu0_DTLB LOAD      ACCESS:    9990063  HIT:    9986647  MISS:       3416
cpu0_DTLB RFO       ACCESS:    3153656  HIT:    3153089  MISS:        567
cpu0_DTLB PREFETCH  ACCESS:          0  HIT:          0  MISS:          0
cpu0_DTLB WRITEBACK ACCESS:          0  HIT:          0  MISS:          0
cpu0_ITLB TOTAL     ACCESS:    4953566  HIT:    4952809  MISS:        757
cpu0_ITLB LOAD      ACCESS:    4953566  HIT:    4952809  MISS:        757
cpu0_ITLB RFO       ACCESS:          0  HIT:          0  MISS:          0
cpu0_ITLB PREFETCH  ACCESS:          0  HIT:          0  MISS:          0
cpu0_ITLB WRITEBACK ACCESS:          0  HIT:          0  MISS:          0
cpu0_L1I TOTAL     ACCESS:    1401451  HIT:    1399880  MISS:       1571
cpu0_L1I LOAD      ACCESS:    1401451  HIT:    1399880  MISS:       1571
cpu0_L1I RFO       ACCESS:          0  HIT:          0  MISS:          0
cpu0_L1I PREFETCH  ACCESS:          0  HIT:          0  MISS:          0
cpu0_L1I WRITEBACK ACCESS:          0  HIT:          0  MISS:          0
cpu0_STLB TOTAL     ACCESS:       4740  HIT:       4411  MISS:        329
cpu0_STLB LOAD      ACCESS:       4173  HIT:       4125  MISS:         48
cpu0_STLB RFO       ACCESS:        567  HIT:        286  MISS:        281
cpu0_STLB PREFETCH  ACCESS:          0  HIT:          0  MISS:          0
cpu0_STLB WRITEBACK ACCESS:          0  HIT:          0  MISS:          0
cpu0_L1D TOTAL     ACCESS:   17562991  HIT:   17479733  MISS:      83258
cpu0_L1D LOAD      ACCESS:   12226428  HIT:   12168974  MISS:      57454
cpu0_L1D RFO       ACCESS:    5336234  HIT:    5310439  MISS:      25795
cpu0_L1D PREFETCH  ACCESS:          0  HIT:          0  MISS:          0
cpu0_L1D WRITEBACK ACCESS:          0  HIT:          0  MISS:          0
cpu0_L2C TOTAL     ACCESS:     113319  HIT:      93372  MISS:      19947
cpu0_L2C LOAD      ACCESS:      59025  HIT:      57871  MISS:       1154
cpu0_L2C RFO       ACCESS:      25795  HIT:       7003  MISS:      18792
cpu0_L2C PREFETCH  ACCESS:          0  HIT:          0  MISS:          0
cpu0_L2C WRITEBACK ACCESS:      28490  HIT:      28490  MISS:          0
LLC TOTAL     ACCESS:      33844  HIT:      14691  MISS:      19153
LLC LOAD      ACCESS:       1154  HIT:         33  MISS:       1121
LLC RFO       ACCESS:      18792  HIT:        760  MISS:      18032
LLC PREFETCH  ACCESS:          0  HIT:          0  MISS:          0
LLC WRITEBACK ACCESS:      13897  HIT:      13897  MISS:          0
Heartbeat CPU 0 instructions: 96000003 cycles: 61620487 heartbeat IPC: 1.0333 cumulative IPC: 0.990937 (Simulation time: 1 hr 2 min 57 sec) 

Region of Interest Statistics
cpu0_DTLB TOTAL     ACCESS:   13600953  HIT:   13596952  MISS:       4001
cpu0_DTLB LOAD      ACCESS:   10368272  HIT:   10364856  MISS:       3416
cpu0_DTLB RFO       ACCESS:    3232681  HIT:    3232096  MISS:        585
cpu0_DTLB PREFETCH  ACCESS:          0  HIT:          0  MISS:          0
cpu0_DTLB WRITEBACK ACCESS:          0  HIT:          0  MISS:          0
cpu0_ITLB TOTAL     ACCESS:    5188615  HIT:    5187858  MISS:        757
cpu0_ITLB LOAD      ACCESS:    5188615  HIT:    5187858  MISS:        757
cpu0_ITLB RFO       ACCESS:          0  HIT:          0  MISS:          0
cpu0_ITLB PREFETCH  ACCESS:          0  HIT:          0  MISS:          0
cpu0_ITLB WRITEBACK ACCESS:          0  HIT:          0  MISS:          0
cpu0_L1I TOTAL     ACCESS:    1503679  HIT:    1502108  MISS:       1571
cpu0_L1I LOAD      ACCESS:    1503679  HIT:    1502108  MISS:       1571
cpu0_L1I RFO       ACCESS:          0  HIT:          0  MISS:          0
cpu0_L1I PREFETCH  ACCESS:          0  HIT:          0  MISS:          0
cpu0_L1I WRITEBACK ACCESS:          0  HIT:          0  MISS:          0
cpu0_STLB TOTAL     ACCESS:       4758  HIT:       4429  MISS:        329
cpu0_STLB LOAD      ACCESS:       4173  HIT:       4125  MISS:         48
cpu0_STLB RFO       ACCESS:        585  HIT:        304  MISS:        281
cpu0_STLB PREFETCH  ACCESS:          0  HIT:          0  MISS:          0
cpu0_STLB WRITEBACK ACCESS:          0  HIT:          0  MISS:          0
cpu0_L1D TOTAL     ACCESS:   18107628  HIT:   18023222  MISS:      84406
cpu0_L1D LOAD      ACCESS:   12609972  HIT:   12552518  MISS:      57454
cpu0_L1D RFO       ACCESS:    5497327  HIT:    5470384  MISS:      26943
cpu0_L1D PREFETCH  ACCESS:          0  HIT:          0  MISS:          0
cpu0_L1D WRITEBACK ACCESS:          0  HIT:          0  MISS:          0
cpu0_L2C TOTAL     ACCESS:     115615  HIT:      94520  MISS:      21095
cpu0_L2C LOAD      ACCESS:      59025  HIT:      57871  MISS:       1154
cpu0_L2C RFO       ACCESS:      26943  HIT:       7003  MISS:      19940
cpu0_L2C PREFETCH  ACCESS:          0  HIT:          0  MISS:          0
cpu0_L2C WRITEBACK ACCESS:      29638  HIT:      29638  MISS:          0
LLC TOTAL     ACCESS:      36140  HIT:      16987  MISS:      19153
LLC LOAD      ACCESS:       1154  HIT:         33  MISS:       1121
LLC RFO       ACCESS:      19940  HIT:       1908  MISS:      18032
LLC PREFETCH  ACCESS:          0  HIT:          0  MISS:          0
LLC WRITEBACK ACCESS:      15045  HIT:      15045  MISS:          0
Heartbeat CPU 0 instructions: 98000002 cycles: 63560065 heartbeat IPC: 1.03115 cumulative IPC: 0.992549 (Simulation time: 1 hr 3 min 48 sec) 

Region of Interest Statistics
cpu0_DTLB TOTAL     ACCESS:   14059054  HIT:   14055035  MISS:       4019
cpu0_DTLB LOAD      ACCESS:   10746829  HIT:   10743413  MISS:       3416
cpu0_DTLB RFO       ACCESS:    3312225  HIT:    3311622  MISS:        603
cpu0_DTLB PREFETCH  ACCESS:          0  HIT:          0  MISS:          0
cpu0_DTLB WRITEBACK ACCESS:          0  HIT:          0  MISS:          0
cpu0_ITLB TOTAL     ACCESS:    5423855  HIT:    5423098  MISS:        757
cpu0_ITLB LOAD      ACCESS:    5423855  HIT:    5423098  MISS:        757
cpu0_ITLB RFO       ACCESS:          0  HIT:          0  MISS:          0
cpu0_ITLB PREFETCH  ACCESS:          0  HIT:          0  MISS:          0
cpu0_ITLB WRITEBACK ACCESS:          0  HIT:          0  MISS:          0
cpu0_L1I TOTAL     ACCESS:    1606281  HIT:    1604710  MISS:       1571
cpu0_L1I LOAD      ACCESS:    1606281  HIT:    1604710  MISS:       1571
cpu0_L1I RFO       ACCESS:          0  HIT:          0  MISS:          0
cpu0_L1I PREFETCH  ACCESS:          0  HIT:          0  MISS:          0
cpu0_L1I WRITEBACK ACCESS:          0  HIT:          0  MISS:          0
cpu0_STLB TOTAL     ACCESS:       4776  HIT:       4447  MISS:        329
cpu0_STLB LOAD      ACCESS:       4173  HIT:       4125  MISS:         48
cpu0_STLB RFO       ACCESS:        603  HIT:        322  MISS:        281
cpu0_STLB PREFETCH  ACCESS:          0  HIT:          0  MISS:          0
cpu0_STLB WRITEBACK ACCESS:          0  HIT:          0  MISS:          0
cpu0_L1D TOTAL     ACCESS:   18652665  HIT:   18567109  MISS:      85556
cpu0_L1D LOAD      ACCESS:   12993955  HIT:   12936501  MISS:      57454
cpu0_L1D RFO       ACCESS:    5658381  HIT:    5630288  MISS:      28093
cpu0_L1D PREFETCH  ACCESS:          0  HIT:          0  MISS:          0
cpu0_L1D WRITEBACK ACCESS:          0  HIT:          0  MISS:          0
cpu0_L2C TOTAL     ACCESS:     117915  HIT:      95734  MISS:      22181
cpu0_L2C LOAD      ACCESS:      59025  HIT:      57871  MISS:       1154
cpu0_L2C RFO       ACCESS:      28093  HIT:       7067  MISS:      21026
cpu0_L2C PREFETCH  ACCESS:          0  HIT:          0  MISS:          0
cpu0_L2C WRITEBACK ACCESS:      30788  HIT:      30788  MISS:          0
LLC TOTAL     ACCESS:      38312  HIT:      19159  MISS:      19153
LLC LOAD      ACCESS:       1154  HIT:         33  MISS:       1121
LLC RFO       ACCESS:      21026  HIT:       2994  MISS:      18032
LLC PREFETCH  ACCESS:          0  HIT:          0  MISS:          0
LLC WRITEBACK ACCESS:      16131  HIT:      16131  MISS:          0
Heartbeat CPU 0 instructions: 100000002 cycles: 65143852 heartbeat IPC: 1.2628 cumulative IPC: 1.00112 (Simulation time: 1 hr 4 min 40 sec) 

Region of Interest Statistics
cpu0_DTLB TOTAL     ACCESS:   14489456  HIT:   14480571  MISS:       8885
cpu0_DTLB LOAD      ACCESS:   11117648  HIT:   11109781  MISS:       7867
cpu0_DTLB RFO       ACCESS:    3371808  HIT:    3370790  MISS:       1018
cpu0_DTLB PREFETCH  ACCESS:          0  HIT:          0  MISS:          0
cpu0_DTLB WRITEBACK ACCESS:          0  HIT:          0  MISS:          0
cpu0_ITLB TOTAL     ACCESS:    5649875  HIT:    5649117  MISS:        758
cpu0_ITLB LOAD      ACCESS:    5649875  HIT:    5649117  MISS:        758
cpu0_ITLB RFO       ACCESS:          0  HIT:          0  MISS:          0
cpu0_ITLB PREFETCH  ACCESS:          0  HIT:          0  MISS:          0
cpu0_ITLB WRITEBACK ACCESS:          0  HIT:          0  MISS:          0
cpu0_L1I TOTAL     ACCESS:    1682554  HIT:    1680978  MISS:       1576
cpu0_L1I LOAD      ACCESS:    1682554  HIT:    1680978  MISS:       1576
cpu0_L1I RFO       ACCESS:          0  HIT:          0  MISS:          0
cpu0_L1I PREFETCH  ACCESS:          0  HIT:          0  MISS:          0
cpu0_L1I WRITEBACK ACCESS:          0  HIT:          0  MISS:          0
cpu0_STLB TOTAL     ACCESS:       9643  HIT:       9313  MISS:        330
cpu0_STLB LOAD      ACCESS:       8625  HIT:       8576  MISS:         49
cpu0_STLB RFO       ACCESS:       1018  HIT:        737  MISS:        281
cpu0_STLB PREFETCH  ACCESS:          0  HIT:          0  MISS:          0
cpu0_STLB WRITEBACK ACCESS:          0  HIT:          0  MISS:          0
cpu0_L1D TOTAL     ACCESS:   19160083  HIT:   19067097  MISS:      92986
cpu0_L1D LOAD      ACCESS:   13381393  HIT:   13317413  MISS:      63980
cpu0_L1D RFO       ACCESS:    5778360  HIT:    5749364  MISS:      28996
cpu0_L1D PREFETCH  ACCESS:          0  HIT:          0  MISS:          0
cpu0_L1D WRITEBACK ACCESS:          0  HIT:          0  MISS:          0
cpu0_L2C TOTAL     ACCESS:     126977  HIT:     103888  MISS:      23089
cpu0_L2C LOAD      ACCESS:      65556  HIT:      64396  MISS:       1160
cpu0_L2C RFO       ACCESS:      28996  HIT:       7068  MISS:      21928
cpu0_L2C PREFETCH  ACCESS:          0  HIT:          0  MISS:          0
cpu0_L2C WRITEBACK ACCESS:      32415  HIT:      32415  MISS:          0
LLC TOTAL     ACCESS:      40127  HIT:      20969  MISS:      19158
LLC LOAD      ACCESS:       1160  HIT:         34  MISS:       1126
LLC RFO       ACCESS:      21928  HIT:       3896  MISS:      18032
LLC PREFETCH  ACCESS:          0  HIT:          0  MISS:          0
LLC WRITEBACK ACCESS:      17038  HIT:      17038  MISS:          0
Heartbeat CPU 0 instructions: 102000000 cycles: 65688973 heartbeat IPC: 3.66891 cumulative IPC: 1.02992 (Simulation time: 1 hr 5 min 34 sec) 

Region of Interest Statistics
cpu0_DTLB TOTAL     ACCESS:   14841592  HIT:   14815205  MISS:      26387
cpu0_DTLB LOAD      ACCESS:   11468210  HIT:   11444415  MISS:      23795
cpu0_DTLB RFO       ACCESS:    3373382  HIT:    3370790  MISS:       2592
cpu0_DTLB PREFETCH  ACCESS:          0  HIT:          0  MISS:          0
cpu0_DTLB WRITEBACK ACCESS:          0  HIT:          0  MISS:          0
cpu0_ITLB TOTAL     ACCESS:    5849715  HIT:    5848957  MISS:        758
cpu0_ITLB LOAD      ACCESS:    5849715  HIT:    5848957  MISS:        758
cpu0_ITLB RFO       ACCESS:          0  HIT:          0  MISS:          0
cpu0_ITLB PREFETCH  ACCESS:          0  HIT:          0  MISS:          0
cpu0_ITLB WRITEBACK ACCESS:          0  HIT:          0  MISS:          0
cpu0_L1I TOTAL     ACCESS:    1682554  HIT:    1680978  MISS:       1576
cpu0_L1I LOAD      ACCESS:    1682554  HIT:    1680978  MISS:       1576
cpu0_L1I RFO       ACCESS:          0  HIT:          0  MISS:          0
cpu0_L1I PREFETCH  ACCESS:          0  HIT:          0  MISS:          0
cpu0_L1I WRITEBACK ACCESS:          0  HIT:          0  MISS:          0
cpu0_STLB TOTAL     ACCESS:      27145  HIT:      26815  MISS:        330
cpu0_STLB LOAD      ACCESS:      24553  HIT:      24504  MISS:         49
cpu0_STLB RFO       ACCESS:       2592  HIT:       2311  MISS:        281
cpu0_STLB PREFETCH  ACCESS:          0  HIT:          0  MISS:          0
cpu0_STLB WRITEBACK ACCESS:          0  HIT:          0  MISS:          0
cpu0_L1D TOTAL     ACCESS:   19559773  HIT:   19441807  MISS:     117966
cpu0_L1D LOAD      ACCESS:   13779509  HIT:   13690746  MISS:      88763
cpu0_L1D RFO       ACCESS:    5779934  HIT:    5750741  MISS:      29193
cpu0_L1D PREFETCH  ACCESS:          0  HIT:          0  MISS:          0
cpu0_L1D WRITEBACK ACCESS:          0  HIT:          0  MISS:          0
cpu0_L2C TOTAL     ACCESS:     152167  HIT:     128881  MISS:      23286
cpu0_L2C LOAD      ACCESS:      90339  HIT:      89179  MISS:       1160
cpu0_L2C RFO       ACCESS:      29193  HIT:       7068  MISS:      22125
cpu0_L2C PREFETCH  ACCESS:          0  HIT:          0  MISS:          0
cpu0_L2C WRITEBACK ACCESS:      32625  HIT:      32625  MISS:          0
LLC TOTAL     ACCESS:      40521  HIT:      21363  MISS:      19158
LLC LOAD      ACCESS:       1160  HIT:         34  MISS:       1126
LLC RFO       ACCESS:      22125  HIT:       4093  MISS:      18032
LLC PREFETCH  ACCESS:          0  HIT:          0  MISS:          0
LLC WRITEBACK ACCESS:      17235  HIT:      17235  MISS:          0
Heartbeat CPU 0 instructions: 104000004 cycles: 66233972 heartbeat IPC: 3.66974 cumulative IPC: 1.05811 (Simulation time: 1 hr 6 min 27 sec) 

Region of Interest Statistics
cpu0_DTLB TOTAL     ACCESS:   15193631  HIT:   15149029  MISS:      44602
cpu0_DTLB LOAD      ACCESS:   11818676  HIT:   11778239  MISS:      40437
cpu0_DTLB RFO       ACCESS:    3374955  HIT:    3370790  MISS:       4165
cpu0_DTLB PREFETCH  ACCESS:          0  HIT:          0  MISS:          0
cpu0_DTLB WRITEBACK ACCESS:          0  HIT:          0  MISS:          0
cpu0_ITLB TOTAL     ACCESS:    6049569  HIT:    6048811  MISS:        758
cpu0_ITLB LOAD      ACCESS:    6049569  HIT:    6048811  MISS:        758
cpu0_ITLB RFO       ACCESS:          0  HIT:          0  MISS:          0
cpu0_ITLB PREFETCH  ACCESS:          0  HIT:          0  MISS:          0
cpu0_ITLB WRITEBACK ACCESS:          0  HIT:          0  MISS:          0
cpu0_L1I TOTAL     ACCESS:    1682554  HIT:    1680978  MISS:       1576
cpu0_L1I LOAD      ACCESS:    1682554  HIT:    1680978  MISS:       1576
cpu0_L1I RFO       ACCESS:          0  HIT:          0  MISS:          0
cpu0_L1I PREFETCH  ACCESS:          0  HIT:          0  MISS:          0
cpu0_L1I WRITEBACK ACCESS:          0  HIT:          0  MISS:          0
cpu0_STLB TOTAL     ACCESS:      45360  HIT:      45030  MISS:        330
cpu0_STLB LOAD      ACCESS:      41195  HIT:      41146  MISS:         49
cpu0_STLB RFO       ACCESS:       4165  HIT:       3884  MISS:        281
cpu0_STLB PREFETCH  ACCESS:          0  HIT:          0  MISS:          0
cpu0_STLB WRITEBACK ACCESS:          0  HIT:          0  MISS:          0
cpu0_L1D TOTAL     ACCESS:   19959466  HIT:   19816504  MISS:     142962
cpu0_L1D LOAD      ACCESS:   14177629  HIT:   14064066  MISS:     113563
cpu0_L1D RFO       ACCESS:    5781507  HIT:    5752118  MISS:      29389
cpu0_L1D PREFETCH  ACCESS:          0  HIT:          0  MISS:          0
cpu0_L1D WRITEBACK ACCESS:          0  HIT:          0  MISS:          0
cpu0_L2C TOTAL     ACCESS:     177359  HIT:     153877  MISS:      23482
cpu0_L2C LOAD      ACCESS:     115139  HIT:     113979  MISS:       1160
cpu0_L2C RFO       ACCESS:      29389  HIT:       7068  MISS:      22321
cpu0_L2C PREFETCH  ACCESS:          0  HIT:          0  MISS:          0
cpu0_L2C WRITEBACK ACCESS:      32821  HIT:      32821  MISS:          0
LLC TOTAL     ACCESS:      40913  HIT:      21755  MISS:      19158
LLC LOAD      ACCESS:       1160  HIT:         34  MISS:       1126
LLC RFO       ACCESS:      22321  HIT:       4289  MISS:      18032
LLC PREFETCH  ACCESS:          0  HIT:          0  MISS:          0
LLC WRITEBACK ACCESS:      17431  HIT:      17431  MISS:          0
Heartbeat CPU 0 instructions: 106000002 cycles: 66778998 heartbeat IPC: 3.66955 cumulative IPC: 1.08571 (Simulation time: 1 hr 7 min 22 sec) 

Region of Interest Statistics
cpu0_DTLB TOTAL     ACCESS:   15543355  HIT:   15479464  MISS:      63891
cpu0_DTLB LOAD      ACCESS:   12166826  HIT:   12108674  MISS:      58152
cpu0_DTLB RFO       ACCESS:    3376529  HIT:    3370790  MISS:       5739
cpu0_DTLB PREFETCH  ACCESS:          0  HIT:          0  MISS:          0
cpu0_DTLB WRITEBACK ACCESS:          0  HIT:          0  MISS:          0
cpu0_ITLB TOTAL     ACCESS:    6249408  HIT:    6248650  MISS:        758
cpu0_ITLB LOAD      ACCESS:    6249408  HIT:    6248650  MISS:        758
cpu0_ITLB RFO       ACCESS:          0  HIT:          0  MISS:          0
cpu0_ITLB PREFETCH  ACCESS:          0  HIT:          0  MISS:          0
cpu0_ITLB WRITEBACK ACCESS:          0  HIT:          0  MISS:          0
cpu0_L1I TOTAL     ACCESS:    1682554  HIT:    1680978  MISS:       1576
cpu0_L1I LOAD      ACCESS:    1682554  HIT:    1680978  MISS:       1576
cpu0_L1I RFO       ACCESS:          0  HIT:          0  MISS:          0
cpu0_L1I PREFETCH  ACCESS:          0  HIT:          0  MISS:          0
cpu0_L1I WRITEBACK ACCESS:          0  HIT:          0  MISS:          0
cpu0_STLB TOTAL     ACCESS:      64649  HIT:      64319  MISS:        330
cpu0_STLB LOAD      ACCESS:      58910  HIT:      58861  MISS:         49
cpu0_STLB RFO       ACCESS:       5739  HIT:       5458  MISS:        281
cpu0_STLB PREFETCH  ACCESS:          0  HIT:          0  MISS:          0
cpu0_STLB WRITEBACK ACCESS:          0  HIT:          0  MISS:          0
cpu0_L1D TOTAL     ACCESS:   20359159  HIT:   20191215  MISS:     167944
cpu0_L1D LOAD      ACCESS:   14575748  HIT:   14437400  MISS:     138348
cpu0_L1D RFO       ACCESS:    5783081  HIT:    5753495  MISS:      29586
cpu0_L1D PREFETCH  ACCESS:          0  HIT:          0  MISS:          0
cpu0_L1D WRITEBACK ACCESS:          0  HIT:          0  MISS:          0
cpu0_L2C TOTAL     ACCESS:     202538  HIT:     178855  MISS:      23683
cpu0_L2C LOAD      ACCESS:     139924  HIT:     138760  MISS:       1164
cpu0_L2C RFO       ACCESS:      29586  HIT:       7068  MISS:      22518
cpu0_L2C PREFETCH  ACCESS:          0  HIT:          0  MISS:          0
[...]
cpu0_DTLB RFO       ACCESS:   57483581  HIT:   57230715  MISS:     252866
cpu0_DTLB PREFETCH  ACCESS:          0  HIT:          0  MISS:          0
cpu0_DTLB WRITEBACK ACCESS:          0  HIT:          0  MISS:          0
cpu0_DTLB TRANSLATION ACCESS:          0  HIT:          0  MISS:          0
cpu0_DTLB PREFETCH  REQUESTED:          0  ISSUED:          0  USEFUL:          0  USELESS:          0
cpu0_DTLB AVERAGE MISS LATENCY: 9.16947 cycles
cpu0_ITLB TOTAL     ACCESS:  167640338  HIT:  167636437  MISS:       3901
cpu0_ITLB LOAD      ACCESS:  167640338  HIT:  167636437  MISS:       3901
cpu0_ITLB RFO       ACCESS:          0  HIT:          0  MISS:          0
cpu0_ITLB PREFETCH  ACCESS:          0  HIT:          0  MISS:          0
cpu0_ITLB WRITEBACK ACCESS:          0  HIT:          0  MISS:          0
cpu0_ITLB TRANSLATION ACCESS:          0  HIT:          0  MISS:          0
cpu0_ITLB PREFETCH  REQUESTED:          0  ISSUED:          0  USEFUL:          0  USELESS:          0
cpu0_ITLB AVERAGE MISS LATENCY: 18.1776 cycles
cpu0_L1I TOTAL     ACCESS:   60704043  HIT:   60695468  MISS:       8575
cpu0_L1I LOAD      ACCESS:   60704043  HIT:   60695468  MISS:       8575
cpu0_L1I RFO       ACCESS:          0  HIT:          0  MISS:          0
cpu0_L1I PREFETCH  ACCESS:          0  HIT:          0  MISS:          0
cpu0_L1I WRITEBACK ACCESS:          0  HIT:          0  MISS:          0
cpu0_L1I TRANSLATION ACCESS:          0  HIT:          0  MISS:          0
cpu0_L1I PREFETCH  REQUESTED:          0  ISSUED:          0  USEFUL:          0  USELESS:          0
cpu0_L1I AVERAGE MISS LATENCY: 117.256 cycles
cpu0_STLB TOTAL     ACCESS:    2833226  HIT:    2827362  MISS:       5864
cpu0_STLB LOAD      ACCESS:    2580360  HIT:    2576725  MISS:       3635
cpu0_STLB RFO       ACCESS:     252866  HIT:     250637  MISS:       2229
cpu0_STLB PREFETCH  ACCESS:          0  HIT:          0  MISS:          0
cpu0_STLB WRITEBACK ACCESS:          0  HIT:          0  MISS:          0
cpu0_STLB TRANSLATION ACCESS:          0  HIT:          0  MISS:          0
cpu0_STLB PREFETCH  REQUESTED:          0  ISSUED:          0  USEFUL:          0  USELESS:          0
cpu0_STLB AVERAGE MISS LATENCY: 85.5969 cycles
cpu0_L1D TOTAL     ACCESS:  420390363  HIT:  412905939  MISS:    7484424
cpu0_L1D LOAD      ACCESS:  331077020  HIT:  324116587  MISS:    6960433
cpu0_L1D RFO       ACCESS:   89307502  HIT:   88783958  MISS:     523544
cpu0_L1D PREFETCH  ACCESS:          0  HIT:          0  MISS:          0
cpu0_L1D WRITEBACK ACCESS:          0  HIT:          0  MISS:          0
cpu0_L1D TRANSLATION ACCESS:       5841  HIT:       5394  MISS:        447
cpu0_L1D PREFETCH  REQUESTED:          0  ISSUED:          0  USEFUL:          0  USELESS:          0
cpu0_L1D AVERAGE MISS LATENCY: 30.4924 cycles
cpu0_L2C TOTAL     ACCESS:    8445389  HIT:    6290837  MISS:    2154552
cpu0_L2C LOAD      ACCESS:    6969003  HIT:    5159963  MISS:    1809040
cpu0_L2C RFO       ACCESS:     523544  HIT:     178437  MISS:     345107
cpu0_L2C PREFETCH  ACCESS:          0  HIT:          0  MISS:          0
cpu0_L2C WRITEBACK ACCESS:     952395  HIT:     952037  MISS:        358
cpu0_L2C TRANSLATION ACCESS:        447  HIT:        400  MISS:         47
cpu0_L2C PREFETCH  REQUESTED:          0  ISSUED:          0  USEFUL:          0  USELESS:          0
cpu0_L2C AVERAGE MISS LATENCY: 68.0079 cycles
LLC TOTAL     ACCESS:    2783264  HIT:    2253282  MISS:     529982
LLC LOAD      ACCESS:    1809036  HIT:    1442208  MISS:     366828
LLC RFO       ACCESS:     345107  HIT:     187785  MISS:     157322
LLC PREFETCH  ACCESS:          0  HIT:          0  MISS:          0
LLC WRITEBACK ACCESS:     629074  HIT:     623254  MISS:       5820
LLC TRANSLATION ACCESS:         47  HIT:         35  MISS:         12
LLC PREFETCH  REQUESTED:          0  ISSUED:          0  USEFUL:          0  USELESS:          0
LLC AVERAGE MISS LATENCY: 191.116 cycles
~~~~~~~~~~Reuse Distance Profiler output~~~~~~~~~~
0	39573360	13131168
1	32831760	20513856
2	36923200	26076640
3	21782000	14163376
4	14725648	9292480
5	12697008	9508096
6	9757440	6414816
7	8889472	5478448
8	7512336	5294352
9	7606448	5802544
10	6321888	4653984
11	8488688	5695168
12	8803024	7174672
13	8847136	7486160
14	7715120	6973728
15	5767920	5279264
16	7353360	6913152
17	6742032	6312544
18	6018064	5656928
19	4260064	3896608
20	4806176	4312240
21	5814576	5270416
22	6373664	5731232
23	7022384	6410896
24	7041696	6438448
25	5852128	5330416
26	4456896	4048544
27	3676400	3362448
28	2540608	2300384
29	1761888	1573168
30	1609968	1401344
31	1151408	1008512
32	909632	784064
33	724896	653120
34	644640	586912
35	596832	554528
36	555152	496128
37	558800	506064
38	523680	465344
39	429616	386192
40	582784	542176
41	520736	483440
42	449232	422960
43	490752	460192
44	565760	528528
45	411568	370272
46	371216	328784
47	361792	317344
48	493920	471968
49	394208	379280
50	399712	387392
51	398000	385552
52	338480	326160
53	408128	388816
54	482976	465840
55	473280	462384
56	383328	372592
57	284576	273680
58	254000	233696
59	211936	196432
60	338608	323696
61	396960	384224
62	397552	382912
63	477088	390736
64	598144	501024
66	484624	452720
68	495456	475376
70	395072	378544
72	337152	317680
74	285952	257552
76	269920	244512
78	435744	400512
80	336016	306944
82	276048	253600
84	268240	244912
86	262400	237424
88	264656	231872
90	284624	242512
92	264320	224400
94	280000	253488
96	332736	307680
98	263136	237456
100	276416	246800
102	388208	355152
104	378880	345808
106	517504	495024
108	580176	556528
110	503104	470560
112	408672	372656
114	348096	314720
116	705200	480656
118	540944	381808
120	325904	279504
122	264816	252496
124	246320	238896
126	220080	214432
128	430496	421648
132	412976	402912
136	410784	400928
140	376480	369280
144	337168	332352
148	294080	289744
152	276976	272624
156	282816	279232
160	274704	271488
164	263328	260288
168	237232	233776
172	219408	216384
176	216768	210848
180	231472	227120
184	256528	253472
188	277264	274560
192	241952	239344
196	221696	219152
200	207520	205152
204	237728	235264
208	298080	295552
212	306288	303424
216	239696	236992
220	199536	196848
224	212224	196896
228	206208	195952
232	214608	209120
236	253072	249520
240	1166272	1162896
244	2809040	2807088
248	5268496	5265344
252	53406448	53228224
256	2632160	2627376
264	312832	309856
272	260704	257536
280	234736	232128
288	264784	262080
296	264592	262224
304	231008	228960
312	193952	191216
320	187248	184080
328	196976	192336
336	203392	196992
344	195216	191120
352	175472	169456
360	160048	156960
368	192912	190288
376	213024	211008
384	188816	187072
392	149280	147360
400	125840	123920
408	117360	115424
416	113072	110784
424	105344	102944
432	89584	87376
440	88896	87120
448	85104	83760
456	79072	77376
464	75664	73904
472	76352	74672
480	73312	71664
488	71184	69264
496	74448	72512
504	75296	73824
512	154688	151904
528	122848	120688
544	100032	96464
560	103728	101120
576	93664	92032
592	86080	84320
608	73504	71568
624	374688	372944
640	4815456	4813696
656	1587520	1584880
672	1172928	1171328
688	59072	57616
704	49616	47856
720	47248	45376
736	66848	65136
752	44064	42272
768	37984	36544
784	35888	34368
800	38560	36944
816	35632	34096
832	34448	32992
848	32720	30960
864	35488	33856
880	40416	39200
896	34208	32896
912	32176	31280
928	26928	25696
944	28336	27504
960	23408	22624
976	18640	17536
992	14176	13360
1008	13120	12240
1024	33088	31424
1056	22544	20944
1088	25280	23568
1120	28976	27520
1152	25168	23504
1184	20992	19056
1216	19392	17680
1248	39776	38480
1280	77872	76576
1312	67536	66272
1344	90944	89632
1376	47264	46176
1408	33328	32352
1440	23248	21696
1472	33936	32832
1504	18016	16864
1536	13168	12016
1568	14512	13584
1600	65408	64384
1632	49840	49152
1664	50144	49136
1696	36656	35760
1728	21200	20224
1760	10656	10032
1792	9504	9024
1824	9088	8224
1856	9120	8464
1888	10032	9456
1920	10672	10240
1952	9408	8992
1984	9440	8640
2016	9904	9216
2048	17488	16752
2112	21648	20656
2176	18896	17920
2240	15808	15056
2304	16704	15536
2368	14464	13712
2432	16560	15600
2496	14032	13200
2560	15376	14640
2624	13520	12704
2688	12640	11888
2752	11760	11104
2816	12432	11472
2880	12960	12480
2944	12480	11952
3008	12192	11664
3072	10944	10224
3136	12688	11664
3200	10912	10256
3264	16208	15632
3328	11808	11056
3392	10192	9680
3456	11872	11072
3520	10432	9328
3584	10112	9312
3648	8240	7888
3712	9920	8112
3776	14704	12800
3840	16688	14896
3904	13872	13184
3968	11184	10768
4032	10544	9840
4096	18656	17840
4224	17152	15984
4352	16288	15216
4480	16672	14192
4608	14576	13280
4736	15024	13616
4864	13040	12096
4992	11808	10752
5120	12976	12128
5248	11424	10288
5376	13232	12192
5504	13088	12016
5632	12880	11648
5760	12048	11008
5888	9952	9104
6016	9616	8928
6144	11520	10560
6272	11248	10400
6400	10432	9520
6528	10016	9088
6656	9184	8480
6784	8576	7776
6912	10272	9568
7040	9232	8576
7168	8960	8160
7296	9312	8576
7424	8480	7984
7552	9232	8384
7680	8656	7792
7808	9072	8304
7936	9392	8432
8064	9616	8928
8192	20416	19248
8448	22160	20448
8704	18816	17504
8960	16976	15824
9216	13904	12304
9472	13184	11296
9728	11568	10176
9984	32016	30432
10240	14080	12752
10496	13840	12320
10752	10736	9520
11008	10368	9408
11264	11808	10768
11520	8880	8080
11776	8320	7776
12032	9168	8272
12288	10912	9120
12544	9072	8144
12800	20640	20064
13056	25728	25056
13312	7888	7408
13568	7856	7264
13824	17520	17040
14080	26656	25984
14336	6768	6192
14592	9072	8352
14848	7584	6992
15104	7792	7040
15360	8224	7504
15616	7360	6640
15872	6608	5936
16128	5824	5088
16384	149888	148752
16896	16368	15856
17408	474592	473856
17920	21296	20144
18432	10672	10064
18944	9376	8912
19456	8608	8016
19968	9344	9088
20480	8880	8400
20992	10064	9824
21504	7120	6704
22016	9184	8944
22528	9008	8800
23040	9568	9168
23552	9584	9360
24064	10048	9792
24576	10624	10352
25088	10640	10288
25600	10336	10016
26112	8736	8464
26624	8384	8096
27136	7808	7440
27648	5488	5248
28160	5600	5296
28672	5136	4944
29184	4560	4432
29696	4119072	4118768
30208	6160	5904
30720	10000	9680
31232	4320	4160
31744	4624	4336
32256	5136	4928
32768	11376	9984
33792	12560	10624
34816	12032	10752
35840	71712	70320
36864	22240	21440
37888	37120	36272
38912	7824	7344
39936	7904	7248
40960	8384	7616
41984	8096	7648
43008	8832	7472
44032	7824	6960
45056	7520	6480
46080	6976	6352
47104	7616	6960
48128	10944	7584
49152	8960	7936
50176	9296	8208
51200	9104	8272
52224	10240	9600
53248	9312	8256
54272	12736	9248
55296	10240	8720
56320	10240	8928
57344	9568	8288
58368	10464	9296
59392	9840	8784
60416	9248	7968
61440	8368	7152
62464	10064	8400
63488	9728	8688
64512	7920	6832
65536	15328	13984
67584	11104	9856
69632	14672	13296
71680	9408	7680
73728	8992	7792
75776	9184	7936
77824	12992	8320
79872	11600	10144
81920	23712	22288
83968	29472	27968
86016	8000	7264
88064	7824	6848
90112	8528	7216
92160	7344	6192
94208	7552	6176
96256	7728	6592
98304	7024	6400
100352	6832	6096
102400	6832	6224
104448	7600	7024
106496	7392	6368
108544	7904	6816
110592	7584	6848
112640	7504	6528
114688	7536	6880
116736	6912	6400
118784	7472	6896
120832	12480	11840
122880	3312	2640
124928	13584	2272
126976	3120	2368
129024	970960	970400
131072	24672	23584
135168	4896	4304
139264	5296	4448
143360	5056	4336
147456	5536	4064
151552	4816	4096
155648	3616	2960
159744	4208	3024
163840	6352	4992
167936	5040	4304
172032	4784	4256
176128	5776	4864
180224	6832	5584
184320	5696	4896
188416	5008	4320
192512	3648	3024
196608	4304	3072
200704	4736	3520
204800	3584	2864
208896	3104	2496
212992	3440	2592
217088	5008	3936
221184	3856	3008
225280	2624	2224
229376	4032	3168
233472	6336	5072
237568	4256	3312
241664	3728	3168
245760	4288	3744
249856	4960	3856
253952	4656	3568
258048	3616	2464
262144	5056	3600
270336	6864	5024
278528	3920	3024
286720	7120	4816
294912	4800	3968
303104	7120	5088
311296	4864	3968
319488	6976	4864
327680	4560	3536
335872	9888	8160
344064	4608	3328
352256	5536	3680
360448	5088	3520
368640	4640	2896
376832	6224	4144
385024	4384	2944
393216	6256	3648
401408	14912	13696
409600	5632	3664
417792	6112	5232
425984	4896	3280
434176	4064	2976
442368	4288	2304
450560	3296	2272
458752	4544	2160
466944	5008	2896
475136	4704	1808
483328	4512	2128
491520	7312	2960
499712	4576	2272
507904	15680	8864
516096	83952	80816
524288	19728	10848
540672	91520	86240
557056	13312	9888
573440	37904	36192
589824	28784	26080
606208	5072	2704
622592	7136	5008
638976	4496	2944
655360	13296	11376
671744	11968	10032
688128	12032	10576
704512	3568	2016
720896	4320	2624
737280	8144	6608
753664	4032	2624
770048	13024	11552
786432	13024	11472
802816	12560	11232
819200	13040	11472
835584	13216	11824
851968	15248	13616
868352	13744	12016
884736	17360	15168
901120	19872	17904
917504	10848	9392
933888	3184	1584
950272	2512	1280
966656	2720	1312
983040	2784	1632
999424	3328	2256
1015808	5808	2896
1032192	75952	73552
1048576	4960	3136
1081344	6752	5328
1114112	4448	3312
1146880	4128	2848
1179648	4448	3120
1212416	3568	2256
1245184	6160	4800
1277952	4896	3360
1310720	4224	3248
1343488	4608	3120
1376256	4224	3248
1409024	4208	2976
1441792	4640	3456
1474560	4560	3296
1507328	3904	2736
1540096	5008	3024
1572864	8304	6608
1605632	8240	6624
1638400	4128	2592
1671168	4560	3104
1703936	4096	3248
1736704	3520	2672
1769472	2768	2192
1802240	3248	2208
1835008	3744	2896
1867776	2384	1472
1900544	2160	1440
1933312	1984	1488
1966080	1968	1616
1998848	3120	2640
2031616	3088	2592
2064384	3824	3344
2097152	30096	28416
2162688	9072	8304
2228224	8208	7088
2293760	6416	5520
2359296	6192	5104
2424832	6080	4944
2490368	6000	4976
2555904	7632	5808
2621440	8432	7200
2686976	6480	5648
2752512	5552	4880
2818048	7984	7184
2883584	5552	4672
2949120	6112	5408
3014656	6000	5248
3080192	5776	5184
3145728	7072	6000
3211264	13648	12832
3276800	5200	4544
3342336	5184	4512
3407872	6464	5552
3473408	5232	4432
3538944	5744	5088
3604480	6144	5312
3670016	7712	6976
3735552	5120	4432
3801088	5904	5216
3866624	5792	5248
3932160	5440	4768
3997696	5136	4624
4063232	4368	3792
4128768	5248	4592
4194304	9280	8416
4325376	9296	8224
4456448	8848	7872
4587520	9136	7936
4718592	8624	7968
4849664	8496	7984
4980736	7632	6992
5111808	6432	5648
5242880	4288	3616
5373952	4000	3552
5505024	3312	3008
5636096	3472	3168
5767168	3488	3344
5898240	5296	5120
6029312	2976	2880
6160384	3232	3120
6291456	3408	3200
6422528	1872	1712
6553600	1728	528
6684672	1488	560
6815744	1584	640
6946816	1792	800
7077888	1680	592
7208960	1936	784
7340032	1504	576
7471104	1280	752
7602176	1296	1072
7733248	1680	1152
7864320	1280	832
7995392	672	272
8126464	976	624
8257536	1616	1168
8388608	2288	1456
8650752	2080	1392
8912896	1728	1456
9175040	2096	1824
9437184	1776	1488
9699328	1184	928
9961472	1824	1552
10223616	1776	1520
10485760	1664	1392
10747904	1664	1392
11010048	1648	1360
11272192	2880	2464
11534336	1520	1312
11796480	4496	4288
12058624	1760	1744
12320768	3504	3488
12582912	1248	1168
12845056	1776	1648
13107200	2400	2256
13369344	1952	1952
13631488	2800	2560
13893632	2576	2304
14155776	1856	1600
14417920	2064	1792
14680064	1680	1424
14942208	2992	2736
15204352	1408	1136
15466496	1088	832
15728640	912	656
15990784	1152	896
16252928	1568	1312
16515072	1248	976
16777216	1824	1296
17301504	1824	1504
17825792	944	944
18350080	2016	2016
18874368	1776	1600
19398656	2512	2112
19922944	1552	1040
20447232	1776	1248
20971520	1504	992
21495808	1776	1264
22020096	2864	2336
22544384	2736	2224
23068672	1536	1072
23592960	720	720
24117248	1904	1680
24641536	1472	1472
25165824	1920	1664
25690112	1760	1248
26214400	3216	2704
26738688	3008	2496
27262976	1504	992
27787264	1536	1008
28311552	1424	912
28835840	1472	816
29360128	896	848
29884416	1088	1056
30408704	2720	704
30932992	1376	1152
31457280	1808	1296
31981568	2064	1552
32505856	2384	1856
33030144	2272	880
33554432	4544	1904
34603008	3696	1280
35651584	7792	4352
36700160	3824	3312
37748736	2560	1536
38797312	4016	1472
39845888	2960	1904
40894464	2368	2064
41943040	11328	3424
42991616	11168	2448
44040192	8032	2816
45088768	2656	1600
46137344	3600	2624
47185920	13936	2064
48234496	4512	2320
49283072	1776	1760
50331648	2960	2560
51380224	2880	2880
52428800	2432	2304
53477376	3872	1824
54525952	1888	1888
55574528	2640	2464
56623104	2528	2400
57671680	1376	1376
58720256	3328	2528
59768832	3616	2272
60817408	2080	2080
61865984	5024	4976
62914560	3616	3536
63963136	3120	3120
65011712	4272	2176
66060288	2768	2736
67108864	6480	6480
69206016	5136	5136
71303168	5952	5936
73400320	5872	5856
75497472	4704	4688
77594624	4368	4368
79691776	6096	6096
81788928	6592	6576
83886080	2976	2976
85983232	1392	960
88080384	1136	1024
90177536	672	672
92274688	944	928
94371840	960	960
96468992	1200	1200
98566144	1072	1072
100663296	1056	1056
102760448	1056	1056
104857600	832	832
106954752	912	880
109051904	960	960
111149056	1040	1040
113246208	816	816
115343360	832	816
117440512	624	624
119537664	928	896
121634816	560	560
123731968	640	608
125829120	256	256
127926272	544	544
130023424	512	512
132120576	464	448
134217728	816	704
138412032	560	560
142606336	736	688
146800640	704	704
150994944	7680	1152
155189248	832	832
159383552	2560	560
163577856	2400	384
167772160	2864	656
171966464	608	608
176160768	3008	864
180355072	2736	864
184549376	768	496
188743680	944	944
192937984	656	656
197132288	384	352
201326592	176	176
205520896	160	160
209715200	96	96
213909504	80	80
218103808	96	96
222298112	96	96
226492416	176	176
230686720	128	128
234881024	48	48
239075328	144	144
243269632	80	80
247463936	48	48
251658240	48	48
255852544	128	128
260046848	64	64
264241152	96	96
268435456	48	48
276824064	0	0
285212672	16	16
293601280	1344	432
301989888	432	208
310378496	32	32
318767104	0	0
327155712	0	0
335544320	0	0
343932928	192	0
352321536	0	0
360710144	0	0
369098752	0	0
377487360	0	0
385875968	0	0
394264576	0	0
402653184	0	0
411041792	0	0
419430400	0	0
427819008	0	0
436207616	0	0
444596224	0	0
452984832	0	0
461373440	0	0
469762048	0	0
478150656	0	0
486539264	0	0
494927872	0	0
503316480	0	0
511705088	0	0
520093696	0	0
528482304	0	0
536870912	0	0
553648128	0	0
570425344	0	0
587202560	0	0
603979776	0	0
620756992	0	0
637534208	0	0
654311424	0	0
671088640	0	0
687865856	0	0
704643072	0	0
721420288	0	0
738197504	0	0
754974720	0	0
771751936	0	0
788529152	0	0
805306368	0	0
822083584	0	0
838860800	0	0
855638016	0	0
872415232	0	0
889192448	0	0
905969664	0	0
922746880	0	0
939524096	0	0
956301312	0	0
973078528	0	0
989855744	0	0
1006632960	0	0
1023410176	0	0
1040187392	0	0
1056964608	0	0
1073741824	0	0
1107296256	0	0
1140850688	0	0
1174405120	0	0
1207959552	0	0
1241513984	0	0
1275068416	0	0
1308622848	0	0
1342177280	0	0
1375731712	0	0
1409286144	0	0
1442840576	0	0
1476395008	0	0
1509949440	0	0
1543503872	0	0
1577058304	0	0
1610612736	0	0
1644167168	0	0
1677721600	0	0
1711276032	0	0
1744830464	0	0
1778384896	0	0
1811939328	0	0
1845493760	0	0
1879048192	0	0
1912602624	0	0
1946157056	0	0
1979711488	0	0
2013265920	0	0
2046820352	0	0
2080374784	0	0
2113929216	0	0
2147483648	0	0
2214592512	0	0
2281701376	0	0
2348810240	0	0
2415919104	0	0
2483027968	0	0
2550136832	0	0
2617245696	0	0
2684354560	0	0
2751463424	0	0
2818572288	0	0
2885681152	0	0
2952790016	0	0
3019898880	0	0
3087007744	0	0
3154116608	0	0
3221225472	0	0
3288334336	0	0
3355443200	0	0
3422552064	0	0
3489660928	0	0
3556769792	0	0
3623878656	0	0
3690987520	0	0
3758096384	0	0
3825205248	0	0
3892314112	0	0
3959422976	0	0
4026531840	0	0
4093640704	0	0
4160749568	0	0
4227858432	0	0
~~~~~~~~~~Reuse Distance Profiler output end~~~~~~~~~~

Sampler size:8474

DRAM Statistics
 CHANNEL 0
 RQ ROW_BUFFER_HIT:     131508  ROW_BUFFER_MISS:     392601
 DBUS AVG_CONGESTED_CYCLE:     3.9691
 WQ ROW_BUFFER_HIT:      59536  ROW_BUFFER_MISS:     206348  FULL:        743


CPU 0 Branch Prediction Accuracy: 82.7617% MPKI: 26.2558 Average ROB Occupancy at Mispredict: 15.8597
Branch type MPKI
BRANCH_DIRECT_JUMP: 0.000304667
BRANCH_INDIRECT: 0.0663967
BRANCH_CONDITIONAL: 26.1875
BRANCH_DIRECT_CALL: 0.000694667
BRANCH_INDIRECT_CALL: 0.000202
BRANCH_RETURN: 0.000666

