
*** ChampSim Multicore Out-of-Order Simulator ***

Warmup Instructions: 50000000
Simulation Instructions: 1500000000
Number of CPUs: 1
Off-chip DRAM Size: 4 GiB Channels: 1 Width: 64-bit Data Rate: 3200 MT/s

VirtualMemory physical capacity: 8588881920 num_ppages: 2096895
VirtualMemory page size: 4096 log2_page_size: 12

CPU 0 runs /s/traces/champsim_traces/458.sjeng-283B.champsimtrace.xz
CPU 0 Bimodal branch predictor
Basic BTB sets: 1024 ways: 8 indirect buffer size: 4096 RAS size: 64
Initializing LRU.
Initializing LRU.
Initializing LRU.
Initializing LRU.
Initializing rdLRU.
Initializing LRU.
Heartbeat CPU 0 instructions: 2000001 cycles: 500248 heartbeat IPC: 3.99802 cumulative IPC: 3.99802 (Simulation time: 0 hr 0 min 59 sec) 
Heartbeat CPU 0 instructions: 4000000 cycles: 1000281 heartbeat IPC: 3.99973 cumulative IPC: 3.99888 (Simulation time: 0 hr 1 min 56 sec) 
Heartbeat CPU 0 instructions: 6000000 cycles: 1500281 heartbeat IPC: 4 cumulative IPC: 3.99925 (Simulation time: 0 hr 2 min 51 sec) 
Heartbeat CPU 0 instructions: 8000000 cycles: 2000281 heartbeat IPC: 4 cumulative IPC: 3.99944 (Simulation time: 0 hr 3 min 48 sec) 
Heartbeat CPU 0 instructions: 10000000 cycles: 2500281 heartbeat IPC: 4 cumulative IPC: 3.99955 (Simulation time: 0 hr 4 min 44 sec) 
Heartbeat CPU 0 instructions: 12000000 cycles: 3000281 heartbeat IPC: 4 cumulative IPC: 3.99963 (Simulation time: 0 hr 5 min 39 sec) 
Heartbeat CPU 0 instructions: 14000000 cycles: 3500281 heartbeat IPC: 4 cumulative IPC: 3.99968 (Simulation time: 0 hr 6 min 38 sec) 
Heartbeat CPU 0 instructions: 16000000 cycles: 4000281 heartbeat IPC: 4 cumulative IPC: 3.99972 (Simulation time: 0 hr 7 min 33 sec) 
Heartbeat CPU 0 instructions: 18000001 cycles: 4500285 heartbeat IPC: 3.99997 cumulative IPC: 3.99975 (Simulation time: 0 hr 8 min 29 sec) 
Heartbeat CPU 0 instructions: 20000001 cycles: 5000329 heartbeat IPC: 3.99965 cumulative IPC: 3.99974 (Simulation time: 0 hr 9 min 25 sec) 
Heartbeat CPU 0 instructions: 22000001 cycles: 5500329 heartbeat IPC: 4 cumulative IPC: 3.99976 (Simulation time: 0 hr 10 min 21 sec) 
Heartbeat CPU 0 instructions: 24000002 cycles: 6000346 heartbeat IPC: 3.99987 cumulative IPC: 3.99977 (Simulation time: 0 hr 11 min 14 sec) 
Heartbeat CPU 0 instructions: 26000002 cycles: 6500346 heartbeat IPC: 4 cumulative IPC: 3.99979 (Simulation time: 0 hr 12 min 6 sec) 
Heartbeat CPU 0 instructions: 28000002 cycles: 7000346 heartbeat IPC: 4 cumulative IPC: 3.9998 (Simulation time: 0 hr 13 min 2 sec) 
Heartbeat CPU 0 instructions: 30000002 cycles: 7500346 heartbeat IPC: 4 cumulative IPC: 3.99982 (Simulation time: 0 hr 13 min 59 sec) 
Heartbeat CPU 0 instructions: 32000002 cycles: 8000346 heartbeat IPC: 4 cumulative IPC: 3.99983 (Simulation time: 0 hr 14 min 56 sec) 
Heartbeat CPU 0 instructions: 34000002 cycles: 8500346 heartbeat IPC: 4 cumulative IPC: 3.99984 (Simulation time: 0 hr 15 min 54 sec) 
Heartbeat CPU 0 instructions: 36000002 cycles: 9000346 heartbeat IPC: 4 cumulative IPC: 3.99985 (Simulation time: 0 hr 16 min 50 sec) 
Heartbeat CPU 0 instructions: 38000002 cycles: 9500346 heartbeat IPC: 4 cumulative IPC: 3.99985 (Simulation time: 0 hr 17 min 45 sec) 
Heartbeat CPU 0 instructions: 40000002 cycles: 10000346 heartbeat IPC: 4 cumulative IPC: 3.99986 (Simulation time: 0 hr 18 min 43 sec) 
Heartbeat CPU 0 instructions: 42000002 cycles: 10500346 heartbeat IPC: 4 cumulative IPC: 3.99987 (Simulation time: 0 hr 19 min 40 sec) 
Heartbeat CPU 0 instructions: 44000002 cycles: 11000346 heartbeat IPC: 4 cumulative IPC: 3.99987 (Simulation time: 0 hr 20 min 34 sec) 
Heartbeat CPU 0 instructions: 46000002 cycles: 11500346 heartbeat IPC: 4 cumulative IPC: 3.99988 (Simulation time: 0 hr 21 min 31 sec) 
Heartbeat CPU 0 instructions: 48000002 cycles: 12000346 heartbeat IPC: 4 cumulative IPC: 3.99988 (Simulation time: 0 hr 22 min 27 sec) 
Heartbeat CPU 0 instructions: 50000002 cycles: 12500346 heartbeat IPC: 4 cumulative IPC: 3.99989 (Simulation time: 0 hr 23 min 21 sec) 

Warmup complete CPU 0 instructions: 50000002 cycles: 12500346 (Simulation time: 0 hr 23 min 21 sec) 

Heartbeat CPU 0 instructions: 52000001 cycles: 14996336 heartbeat IPC: 0.801285 cumulative IPC: 0.801285 (Simulation time: 0 hr 24 min 28 sec) 

Region of Interest Statistics
cpu0_DTLB TOTAL     ACCESS:     435100  HIT:     432130  MISS:       2970
cpu0_DTLB LOAD      ACCESS:     332794  HIT:     330145  MISS:       2649
cpu0_DTLB RFO       ACCESS:     102306  HIT:     101985  MISS:        321
cpu0_DTLB PREFETCH  ACCESS:          0  HIT:          0  MISS:          0
cpu0_DTLB WRITEBACK ACCESS:          0  HIT:          0  MISS:          0
cpu0_ITLB TOTAL     ACCESS:     198701  HIT:     198701  MISS:          0
cpu0_ITLB LOAD      ACCESS:     198701  HIT:     198701  MISS:          0
cpu0_ITLB RFO       ACCESS:          0  HIT:          0  MISS:          0
cpu0_ITLB PREFETCH  ACCESS:          0  HIT:          0  MISS:          0
cpu0_ITLB WRITEBACK ACCESS:          0  HIT:          0  MISS:          0
cpu0_L1I TOTAL     ACCESS:     150554  HIT:     150541  MISS:         13
cpu0_L1I LOAD      ACCESS:     150554  HIT:     150541  MISS:         13
cpu0_L1I RFO       ACCESS:          0  HIT:          0  MISS:          0
cpu0_L1I PREFETCH  ACCESS:          0  HIT:          0  MISS:          0
cpu0_L1I WRITEBACK ACCESS:          0  HIT:          0  MISS:          0
cpu0_STLB TOTAL     ACCESS:       2970  HIT:       2197  MISS:        773
cpu0_STLB LOAD      ACCESS:       2649  HIT:       1878  MISS:        771
cpu0_STLB RFO       ACCESS:        321  HIT:        319  MISS:          2
cpu0_STLB PREFETCH  ACCESS:          0  HIT:          0  MISS:          0
cpu0_STLB WRITEBACK ACCESS:          0  HIT:          0  MISS:          0
cpu0_L1D TOTAL     ACCESS:     527294  HIT:     525977  MISS:       1317
cpu0_L1D LOAD      ACCESS:     357904  HIT:     356755  MISS:       1149
cpu0_L1D RFO       ACCESS:     168617  HIT:     168451  MISS:        166
cpu0_L1D PREFETCH  ACCESS:          0  HIT:          0  MISS:          0
cpu0_L1D WRITEBACK ACCESS:          0  HIT:          0  MISS:          0
cpu0_L2C TOTAL     ACCESS:       2224  HIT:       1290  MISS:        934
cpu0_L2C LOAD      ACCESS:       1162  HIT:        303  MISS:        859
cpu0_L2C RFO       ACCESS:        166  HIT:        105  MISS:         61
cpu0_L2C PREFETCH  ACCESS:          0  HIT:          0  MISS:          0
cpu0_L2C WRITEBACK ACCESS:        894  HIT:        881  MISS:         13
LLC TOTAL     ACCESS:       1649  HIT:        766  MISS:        883
LLC LOAD      ACCESS:        859  HIT:         37  MISS:        822
LLC RFO       ACCESS:         61  HIT:          2  MISS:         59
LLC PREFETCH  ACCESS:          0  HIT:          0  MISS:          0
LLC WRITEBACK ACCESS:        728  HIT:        726  MISS:          2
Heartbeat CPU 0 instructions: 54000002 cycles: 17524857 heartbeat IPC: 0.790977 cumulative IPC: 0.796097 (Simulation time: 0 hr 25 min 36 sec) 

Region of Interest Statistics
cpu0_DTLB TOTAL     ACCESS:     883151  HIT:     876917  MISS:       6234
cpu0_DTLB LOAD      ACCESS:     671354  HIT:     665882  MISS:       5472
cpu0_DTLB RFO       ACCESS:     211797  HIT:     211035  MISS:        762
cpu0_DTLB PREFETCH  ACCESS:          0  HIT:          0  MISS:          0
cpu0_DTLB WRITEBACK ACCESS:          0  HIT:          0  MISS:          0
cpu0_ITLB TOTAL     ACCESS:     393825  HIT:     393825  MISS:          0
cpu0_ITLB LOAD      ACCESS:     393825  HIT:     393825  MISS:          0
cpu0_ITLB RFO       ACCESS:          0  HIT:          0  MISS:          0
cpu0_ITLB PREFETCH  ACCESS:          0  HIT:          0  MISS:          0
cpu0_ITLB WRITEBACK ACCESS:          0  HIT:          0  MISS:          0
cpu0_L1I TOTAL     ACCESS:     300743  HIT:     300672  MISS:         71
cpu0_L1I LOAD      ACCESS:     300743  HIT:     300672  MISS:         71
cpu0_L1I RFO       ACCESS:          0  HIT:          0  MISS:          0
cpu0_L1I PREFETCH  ACCESS:          0  HIT:          0  MISS:          0
cpu0_L1I WRITEBACK ACCESS:          0  HIT:          0  MISS:          0
cpu0_STLB TOTAL     ACCESS:       6234  HIT:       4655  MISS:       1579
cpu0_STLB LOAD      ACCESS:       5472  HIT:       3903  MISS:       1569
cpu0_STLB RFO       ACCESS:        762  HIT:        752  MISS:         10
cpu0_STLB PREFETCH  ACCESS:          0  HIT:          0  MISS:          0
cpu0_STLB WRITEBACK ACCESS:          0  HIT:          0  MISS:          0
cpu0_L1D TOTAL     ACCESS:    1062708  HIT:    1059629  MISS:       3079
cpu0_L1D LOAD      ACCESS:     711857  HIT:     709329  MISS:       2528
cpu0_L1D RFO       ACCESS:     349272  HIT:     348729  MISS:        543
cpu0_L1D PREFETCH  ACCESS:          0  HIT:          0  MISS:          0
cpu0_L1D WRITEBACK ACCESS:          0  HIT:          0  MISS:          0
cpu0_L2C TOTAL     ACCESS:       5163  HIT:       3125  MISS:       2038
cpu0_L2C LOAD      ACCESS:       2599  HIT:        763  MISS:       1836
cpu0_L2C RFO       ACCESS:        543  HIT:        370  MISS:        173
cpu0_L2C PREFETCH  ACCESS:          0  HIT:          0  MISS:          0
cpu0_L2C WRITEBACK ACCESS:       2013  HIT:       1985  MISS:         28
LLC TOTAL     ACCESS:       3604  HIT:       1758  MISS:       1846
LLC LOAD      ACCESS:       1836  HIT:        114  MISS:       1722
LLC RFO       ACCESS:        173  HIT:         51  MISS:        122
LLC PREFETCH  ACCESS:          0  HIT:          0  MISS:          0
LLC WRITEBACK ACCESS:       1594  HIT:       1592  MISS:          2
Heartbeat CPU 0 instructions: 56000003 cycles: 20068115 heartbeat IPC: 0.786393 cumulative IPC: 0.792836 (Simulation time: 0 hr 26 min 39 sec) 

Region of Interest Statistics
cpu0_DTLB TOTAL     ACCESS:    1329845  HIT:    1320364  MISS:       9481
cpu0_DTLB LOAD      ACCESS:    1012500  HIT:    1004314  MISS:       8186
cpu0_DTLB RFO       ACCESS:     317345  HIT:     316050  MISS:       1295
cpu0_DTLB PREFETCH  ACCESS:          0  HIT:          0  MISS:          0
cpu0_DTLB WRITEBACK ACCESS:          0  HIT:          0  MISS:          0
cpu0_ITLB TOTAL     ACCESS:     588599  HIT:     588599  MISS:          0
cpu0_ITLB LOAD      ACCESS:     588599  HIT:     588599  MISS:          0
cpu0_ITLB RFO       ACCESS:          0  HIT:          0  MISS:          0
cpu0_ITLB PREFETCH  ACCESS:          0  HIT:          0  MISS:          0
cpu0_ITLB WRITEBACK ACCESS:          0  HIT:          0  MISS:          0
cpu0_L1I TOTAL     ACCESS:     452393  HIT:     452296  MISS:         97
cpu0_L1I LOAD      ACCESS:     452393  HIT:     452296  MISS:         97
cpu0_L1I RFO       ACCESS:          0  HIT:          0  MISS:          0
cpu0_L1I PREFETCH  ACCESS:          0  HIT:          0  MISS:          0
cpu0_L1I WRITEBACK ACCESS:          0  HIT:          0  MISS:          0
cpu0_STLB TOTAL     ACCESS:       9481  HIT:       7135  MISS:       2346
cpu0_STLB LOAD      ACCESS:       8186  HIT:       5856  MISS:       2330
cpu0_STLB RFO       ACCESS:       1295  HIT:       1279  MISS:         16
cpu0_STLB PREFETCH  ACCESS:          0  HIT:          0  MISS:          0
cpu0_STLB WRITEBACK ACCESS:          0  HIT:          0  MISS:          0
cpu0_L1D TOTAL     ACCESS:    1596719  HIT:    1592108  MISS:       4611
cpu0_L1D LOAD      ACCESS:    1068347  HIT:    1064590  MISS:       3757
cpu0_L1D RFO       ACCESS:     526026  HIT:     525182  MISS:        844
cpu0_L1D PREFETCH  ACCESS:          0  HIT:          0  MISS:          0
cpu0_L1D WRITEBACK ACCESS:          0  HIT:          0  MISS:          0
cpu0_L2C TOTAL     ACCESS:       7818  HIT:       4787  MISS:       3031
cpu0_L2C LOAD      ACCESS:       3854  HIT:       1138  MISS:       2716
cpu0_L2C RFO       ACCESS:        844  HIT:        559  MISS:        285
cpu0_L2C PREFETCH  ACCESS:          0  HIT:          0  MISS:          0
cpu0_L2C WRITEBACK ACCESS:       3110  HIT:       3081  MISS:         29
LLC TOTAL     ACCESS:       5377  HIT:       2620  MISS:       2757
LLC LOAD      ACCESS:       2716  HIT:        154  MISS:       2562
LLC RFO       ACCESS:        285  HIT:         93  MISS:        192
LLC PREFETCH  ACCESS:          0  HIT:          0  MISS:          0
LLC WRITEBACK ACCESS:       2375  HIT:       2372  MISS:          3
Heartbeat CPU 0 instructions: 58000004 cycles: 22527349 heartbeat IPC: 0.813262 cumulative IPC: 0.797846 (Simulation time: 0 hr 27 min 52 sec) 

Region of Interest Statistics
cpu0_DTLB TOTAL     ACCESS:    1777301  HIT:    1764625  MISS:      12676
cpu0_DTLB LOAD      ACCESS:    1350774  HIT:    1339921  MISS:      10853
cpu0_DTLB RFO       ACCESS:     426527  HIT:     424704  MISS:       1823
cpu0_DTLB PREFETCH  ACCESS:          0  HIT:          0  MISS:          0
cpu0_DTLB WRITEBACK ACCESS:          0  HIT:          0  MISS:          0
cpu0_ITLB TOTAL     ACCESS:     785997  HIT:     785997  MISS:          0
cpu0_ITLB LOAD      ACCESS:     785997  HIT:     785997  MISS:          0
cpu0_ITLB RFO       ACCESS:          0  HIT:          0  MISS:          0
cpu0_ITLB PREFETCH  ACCESS:          0  HIT:          0  MISS:          0
cpu0_ITLB WRITEBACK ACCESS:          0  HIT:          0  MISS:          0
cpu0_L1I TOTAL     ACCESS:     593354  HIT:     593245  MISS:        109
cpu0_L1I LOAD      ACCESS:     593354  HIT:     593245  MISS:        109
cpu0_L1I RFO       ACCESS:          0  HIT:          0  MISS:          0
cpu0_L1I PREFETCH  ACCESS:          0  HIT:          0  MISS:          0
cpu0_L1I WRITEBACK ACCESS:          0  HIT:          0  MISS:          0
cpu0_STLB TOTAL     ACCESS:      12676  HIT:       9649  MISS:       3027
cpu0_STLB LOAD      ACCESS:      10853  HIT:       7844  MISS:       3009
cpu0_STLB RFO       ACCESS:       1823  HIT:       1805  MISS:         18
cpu0_STLB PREFETCH  ACCESS:          0  HIT:          0  MISS:          0
cpu0_STLB WRITEBACK ACCESS:          0  HIT:          0  MISS:          0
cpu0_L1D TOTAL     ACCESS:    2131235  HIT:    2125143  MISS:       6092
cpu0_L1D LOAD      ACCESS:    1418631  HIT:    1413746  MISS:       4885
cpu0_L1D RFO       ACCESS:     709577  HIT:     708382  MISS:       1195
cpu0_L1D PREFETCH  ACCESS:          0  HIT:          0  MISS:          0
cpu0_L1D WRITEBACK ACCESS:          0  HIT:          0  MISS:          0
cpu0_L2C TOTAL     ACCESS:      10339  HIT:       6474  MISS:       3865
cpu0_L2C LOAD      ACCESS:       4994  HIT:       1505  MISS:       3489
cpu0_L2C RFO       ACCESS:       1195  HIT:        852  MISS:        343
cpu0_L2C PREFETCH  ACCESS:          0  HIT:          0  MISS:          0
cpu0_L2C WRITEBACK ACCESS:       4138  HIT:       4107  MISS:         31
LLC TOTAL     ACCESS:       6866  HIT:       3336  MISS:       3530
LLC LOAD      ACCESS:       3489  HIT:        196  MISS:       3293
LLC RFO       ACCESS:        343  HIT:        109  MISS:        234
LLC PREFETCH  ACCESS:          0  HIT:          0  MISS:          0
LLC WRITEBACK ACCESS:       3032  HIT:       3029  MISS:          3
Heartbeat CPU 0 instructions: 60000003 cycles: 25103831 heartbeat IPC: 0.776252 cumulative IPC: 0.793431 (Simulation time: 0 hr 28 min 56 sec) 

Region of Interest Statistics
cpu0_DTLB TOTAL     ACCESS:    2224417  HIT:    2208259  MISS:      16158
cpu0_DTLB LOAD      ACCESS:    1692213  HIT:    1678436  MISS:      13777
cpu0_DTLB RFO       ACCESS:     532204  HIT:     529823  MISS:       2381
cpu0_DTLB PREFETCH  ACCESS:          0  HIT:          0  MISS:          0
cpu0_DTLB WRITEBACK ACCESS:          0  HIT:          0  MISS:          0
cpu0_ITLB TOTAL     ACCESS:     979975  HIT:     979975  MISS:          0
cpu0_ITLB LOAD      ACCESS:     979975  HIT:     979975  MISS:          0
cpu0_ITLB RFO       ACCESS:          0  HIT:          0  MISS:          0
cpu0_ITLB PREFETCH  ACCESS:          0  HIT:          0  MISS:          0
cpu0_ITLB WRITEBACK ACCESS:          0  HIT:          0  MISS:          0
cpu0_L1I TOTAL     ACCESS:     747508  HIT:     747377  MISS:        131
cpu0_L1I LOAD      ACCESS:     747508  HIT:     747377  MISS:        131
cpu0_L1I RFO       ACCESS:          0  HIT:          0  MISS:          0
cpu0_L1I PREFETCH  ACCESS:          0  HIT:          0  MISS:          0
cpu0_L1I WRITEBACK ACCESS:          0  HIT:          0  MISS:          0
cpu0_STLB TOTAL     ACCESS:      16158  HIT:      12406  MISS:       3752
cpu0_STLB LOAD      ACCESS:      13777  HIT:      10045  MISS:       3732
cpu0_STLB RFO       ACCESS:       2381  HIT:       2361  MISS:         20
cpu0_STLB PREFETCH  ACCESS:          0  HIT:          0  MISS:          0
cpu0_STLB WRITEBACK ACCESS:          0  HIT:          0  MISS:          0
cpu0_L1D TOTAL     ACCESS:    2668252  HIT:    2660793  MISS:       7459
cpu0_L1D LOAD      ACCESS:    1776685  HIT:    1770667  MISS:       6018
cpu0_L1D RFO       ACCESS:     887815  HIT:     886389  MISS:       1426
cpu0_L1D PREFETCH  ACCESS:          0  HIT:          0  MISS:          0
cpu0_L1D WRITEBACK ACCESS:          0  HIT:          0  MISS:          0
cpu0_L2C TOTAL     ACCESS:      12748  HIT:       8011  MISS:       4737
cpu0_L2C LOAD      ACCESS:       6149  HIT:       1844  MISS:       4305
cpu0_L2C RFO       ACCESS:       1425  HIT:       1027  MISS:        398
cpu0_L2C PREFETCH  ACCESS:          0  HIT:          0  MISS:          0
cpu0_L2C WRITEBACK ACCESS:       5159  HIT:       5127  MISS:         32
LLC TOTAL     ACCESS:       8433  HIT:       4064  MISS:       4369
LLC LOAD      ACCESS:       4305  HIT:        224  MISS:       4081
LLC RFO       ACCESS:        398  HIT:        113  MISS:        285
LLC PREFETCH  ACCESS:          0  HIT:          0  MISS:          0
LLC WRITEBACK ACCESS:       3728  HIT:       3725  MISS:          3
Heartbeat CPU 0 instructions: 62000003 cycles: 27656806 heartbeat IPC: 0.7834 cumulative IPC: 0.791742 (Simulation time: 0 hr 30 min 3 sec) 

Region of Interest Statistics
cpu0_DTLB TOTAL     ACCESS:    2665565  HIT:    2646012  MISS:      19553
cpu0_DTLB LOAD      ACCESS:    2027051  HIT:    2010369  MISS:      16682
cpu0_DTLB RFO       ACCESS:     638514  HIT:     635643  MISS:       2871
cpu0_DTLB PREFETCH  ACCESS:          0  HIT:          0  MISS:          0
cpu0_DTLB WRITEBACK ACCESS:          0  HIT:          0  MISS:          0
cpu0_ITLB TOTAL     ACCESS:    1177617  HIT:    1177617  MISS:          0
cpu0_ITLB LOAD      ACCESS:    1177617  HIT:    1177617  MISS:          0
cpu0_ITLB RFO       ACCESS:          0  HIT:          0  MISS:          0
cpu0_ITLB PREFETCH  ACCESS:          0  HIT:          0  MISS:          0
cpu0_ITLB WRITEBACK ACCESS:          0  HIT:          0  MISS:          0
cpu0_L1I TOTAL     ACCESS:     896703  HIT:     896559  MISS:        144
cpu0_L1I LOAD      ACCESS:     896703  HIT:     896559  MISS:        144
cpu0_L1I RFO       ACCESS:          0  HIT:          0  MISS:          0
cpu0_L1I PREFETCH  ACCESS:          0  HIT:          0  MISS:          0
cpu0_L1I WRITEBACK ACCESS:          0  HIT:          0  MISS:          0
cpu0_STLB TOTAL     ACCESS:      19553  HIT:      14873  MISS:       4680
cpu0_STLB LOAD      ACCESS:      16682  HIT:      12028  MISS:       4654
cpu0_STLB RFO       ACCESS:       2871  HIT:       2845  MISS:         26
cpu0_STLB PREFETCH  ACCESS:          0  HIT:          0  MISS:          0
cpu0_STLB WRITEBACK ACCESS:          0  HIT:          0  MISS:          0
cpu0_L1D TOTAL     ACCESS:    3196808  HIT:    3187447  MISS:       9361
cpu0_L1D LOAD      ACCESS:    2127354  HIT:    2119847  MISS:       7507
cpu0_L1D RFO       ACCESS:    1064774  HIT:    1062938  MISS:       1836
cpu0_L1D PREFETCH  ACCESS:          0  HIT:          0  MISS:          0
cpu0_L1D WRITEBACK ACCESS:          0  HIT:          0  MISS:          0
cpu0_L2C TOTAL     ACCESS:      15888  HIT:      10129  MISS:       5759
cpu0_L2C LOAD      ACCESS:       7651  HIT:       2394  MISS:       5257
cpu0_L2C RFO       ACCESS:       1835  HIT:       1370  MISS:        465
cpu0_L2C PREFETCH  ACCESS:          0  HIT:          0  MISS:          0
cpu0_L2C WRITEBACK ACCESS:       6384  HIT:       6349  MISS:         35
LLC TOTAL     ACCESS:      10276  HIT:       4937  MISS:       5339
LLC LOAD      ACCESS:       5257  HIT:        271  MISS:       4986
LLC RFO       ACCESS:        465  HIT:        116  MISS:        349
LLC PREFETCH  ACCESS:          0  HIT:          0  MISS:          0
LLC WRITEBACK ACCESS:       4552  HIT:       4548  MISS:          4
Heartbeat CPU 0 instructions: 64000000 cycles: 30201049 heartbeat IPC: 0.786087 cumulative IPC: 0.790929 (Simulation time: 0 hr 31 min 8 sec) 

Region of Interest Statistics
cpu0_DTLB TOTAL     ACCESS:    3111350  HIT:    3088386  MISS:      22964
cpu0_DTLB LOAD      ACCESS:    2364353  HIT:    2344707  MISS:      19646
cpu0_DTLB RFO       ACCESS:     746997  HIT:     743679  MISS:       3318
cpu0_DTLB PREFETCH  ACCESS:          0  HIT:          0  MISS:          0
cpu0_DTLB WRITEBACK ACCESS:          0  HIT:          0  MISS:          0
cpu0_ITLB TOTAL     ACCESS:    1372621  HIT:    1372621  MISS:          0
cpu0_ITLB LOAD      ACCESS:    1372621  HIT:    1372621  MISS:          0
cpu0_ITLB RFO       ACCESS:          0  HIT:          0  MISS:          0
cpu0_ITLB PREFETCH  ACCESS:          0  HIT:          0  MISS:          0
cpu0_ITLB WRITEBACK ACCESS:          0  HIT:          0  MISS:          0
cpu0_L1I TOTAL     ACCESS:    1055867  HIT:    1055687  MISS:        180
cpu0_L1I LOAD      ACCESS:    1055867  HIT:    1055687  MISS:        180
cpu0_L1I RFO       ACCESS:          0  HIT:          0  MISS:          0
cpu0_L1I PREFETCH  ACCESS:          0  HIT:          0  MISS:          0
cpu0_L1I WRITEBACK ACCESS:          0  HIT:          0  MISS:          0
cpu0_STLB TOTAL     ACCESS:      22964  HIT:      17459  MISS:       5505
cpu0_STLB LOAD      ACCESS:      19646  HIT:      14171  MISS:       5475
cpu0_STLB RFO       ACCESS:       3318  HIT:       3288  MISS:         30
cpu0_STLB PREFETCH  ACCESS:          0  HIT:          0  MISS:          0
cpu0_STLB WRITEBACK ACCESS:          0  HIT:          0  MISS:          0
cpu0_L1D TOTAL     ACCESS:    3728586  HIT:    3717657  MISS:      10929
cpu0_L1D LOAD      ACCESS:    2481651  HIT:    2472898  MISS:       8753
cpu0_L1D RFO       ACCESS:    1241430  HIT:    1239278  MISS:       2152
cpu0_L1D PREFETCH  ACCESS:          0  HIT:          0  MISS:          0
cpu0_L1D WRITEBACK ACCESS:          0  HIT:          0  MISS:          0
cpu0_L2C TOTAL     ACCESS:      18538  HIT:      11801  MISS:       6737
cpu0_L2C LOAD      ACCESS:       8933  HIT:       2776  MISS:       6157
cpu0_L2C RFO       ACCESS:       2151  HIT:       1611  MISS:        540
cpu0_L2C PREFETCH  ACCESS:          0  HIT:          0  MISS:          0
cpu0_L2C WRITEBACK ACCESS:       7430  HIT:       7392  MISS:         38
LLC TOTAL     ACCESS:      12052  HIT:       5853  MISS:       6199
LLC LOAD      ACCESS:       6157  HIT:        375  MISS:       5782
LLC RFO       ACCESS:        540  HIT:        129  MISS:        411
LLC PREFETCH  ACCESS:          0  HIT:          0  MISS:          0
LLC WRITEBACK ACCESS:       5353  HIT:       5347  MISS:          6
Heartbeat CPU 0 instructions: 66000002 cycles: 32736667 heartbeat IPC: 0.788763 cumulative IPC: 0.790658 (Simulation time: 0 hr 32 min 13 sec) 

Region of Interest Statistics
cpu0_DTLB TOTAL     ACCESS:    3562857  HIT:    3536353  MISS:      26504
cpu0_DTLB LOAD      ACCESS:    2704133  HIT:    2681506  MISS:      22627
cpu0_DTLB RFO       ACCESS:     858724  HIT:     854847  MISS:       3877
cpu0_DTLB PREFETCH  ACCESS:          0  HIT:          0  MISS:          0
cpu0_DTLB WRITEBACK ACCESS:          0  HIT:          0  MISS:          0
cpu0_ITLB TOTAL     ACCESS:    1569480  HIT:    1569480  MISS:          0
cpu0_ITLB LOAD      ACCESS:    1569480  HIT:    1569480  MISS:          0
cpu0_ITLB RFO       ACCESS:          0  HIT:          0  MISS:          0
cpu0_ITLB PREFETCH  ACCESS:          0  HIT:          0  MISS:          0
cpu0_ITLB WRITEBACK ACCESS:          0  HIT:          0  MISS:          0
cpu0_L1I TOTAL     ACCESS:    1213085  HIT:    1212820  MISS:        265
cpu0_L1I LOAD      ACCESS:    1213085  HIT:    1212820  MISS:        265
cpu0_L1I RFO       ACCESS:          0  HIT:          0  MISS:          0
cpu0_L1I PREFETCH  ACCESS:          0  HIT:          0  MISS:          0
cpu0_L1I WRITEBACK ACCESS:          0  HIT:          0  MISS:          0
cpu0_STLB TOTAL     ACCESS:      26504  HIT:      20107  MISS:       6397
cpu0_STLB LOAD      ACCESS:      22627  HIT:      16261  MISS:       6366
cpu0_STLB RFO       ACCESS:       3877  HIT:       3846  MISS:         31
cpu0_STLB PREFETCH  ACCESS:          0  HIT:          0  MISS:          0
cpu0_STLB WRITEBACK ACCESS:          0  HIT:          0  MISS:          0
cpu0_L1D TOTAL     ACCESS:    4264405  HIT:    4251687  MISS:      12718
cpu0_L1D LOAD      ACCESS:    2834421  HIT:    2824310  MISS:      10111
cpu0_L1D RFO       ACCESS:    1423587  HIT:    1421008  MISS:       2579
cpu0_L1D PREFETCH  ACCESS:          0  HIT:          0  MISS:          0
cpu0_L1D WRITEBACK ACCESS:          0  HIT:          0  MISS:          0
cpu0_L2C TOTAL     ACCESS:      21593  HIT:      13796  MISS:       7797
cpu0_L2C LOAD      ACCESS:      10376  HIT:       3246  MISS:       7130
cpu0_L2C RFO       ACCESS:       2578  HIT:       1952  MISS:        626
cpu0_L2C PREFETCH  ACCESS:          0  HIT:          0  MISS:          0
cpu0_L2C WRITEBACK ACCESS:       8611  HIT:       8572  MISS:         39
LLC TOTAL     ACCESS:      13984  HIT:       6834  MISS:       7150
LLC LOAD      ACCESS:       7130  HIT:        469  MISS:       6661
LLC RFO       ACCESS:        626  HIT:        145  MISS:        481
LLC PREFETCH  ACCESS:          0  HIT:          0  MISS:          0
LLC WRITEBACK ACCESS:       6226  HIT:       6218  MISS:          8
Heartbeat CPU 0 instructions: 68000001 cycles: 35317155 heartbeat IPC: 0.775047 cumulative IPC: 0.788892 (Simulation time: 0 hr 33 min 18 sec) 

Region of Interest Statistics
cpu0_DTLB TOTAL     ACCESS:    4009432  HIT:    3979814  MISS:      29618
cpu0_DTLB LOAD      ACCESS:    3040052  HIT:    3014867  MISS:      25185
cpu0_DTLB RFO       ACCESS:     969380  HIT:     964947  MISS:       4433
cpu0_DTLB PREFETCH  ACCESS:          0  HIT:          0  MISS:          0
cpu0_DTLB WRITEBACK ACCESS:          0  HIT:          0  MISS:          0
cpu0_ITLB TOTAL     ACCESS:    1763838  HIT:    1763838  MISS:          0
cpu0_ITLB LOAD      ACCESS:    1763838  HIT:    1763838  MISS:          0
cpu0_ITLB RFO       ACCESS:          0  HIT:          0  MISS:          0
cpu0_ITLB PREFETCH  ACCESS:          0  HIT:          0  MISS:          0
cpu0_ITLB WRITEBACK ACCESS:          0  HIT:          0  MISS:          0
cpu0_L1I TOTAL     ACCESS:    1367452  HIT:    1367154  MISS:        298
cpu0_L1I LOAD      ACCESS:    1367452  HIT:    1367154  MISS:        298
cpu0_L1I RFO       ACCESS:          0  HIT:          0  MISS:          0
cpu0_L1I PREFETCH  ACCESS:          0  HIT:          0  MISS:          0
cpu0_L1I WRITEBACK ACCESS:          0  HIT:          0  MISS:          0
cpu0_STLB TOTAL     ACCESS:      29618  HIT:      22318  MISS:       7300
cpu0_STLB LOAD      ACCESS:      25185  HIT:      17927  MISS:       7258
cpu0_STLB RFO       ACCESS:       4433  HIT:       4391  MISS:         42
cpu0_STLB PREFETCH  ACCESS:          0  HIT:          0  MISS:          0
cpu0_STLB WRITEBACK ACCESS:          0  HIT:          0  MISS:          0
cpu0_L1D TOTAL     ACCESS:    4798458  HIT:    4783851  MISS:      14607
cpu0_L1D LOAD      ACCESS:    3183670  HIT:    3172171  MISS:      11499
cpu0_L1D RFO       ACCESS:    1607488  HIT:    1604413  MISS:       3075
cpu0_L1D PREFETCH  ACCESS:          0  HIT:          0  MISS:          0
cpu0_L1D WRITEBACK ACCESS:          0  HIT:          0  MISS:          0
cpu0_L2C TOTAL     ACCESS:      24771  HIT:      15905  MISS:       8866
cpu0_L2C LOAD      ACCESS:      11797  HIT:       3685  MISS:       8112
cpu0_L2C RFO       ACCESS:       3074  HIT:       2362  MISS:        712
cpu0_L2C PREFETCH  ACCESS:          0  HIT:          0  MISS:          0
cpu0_L2C WRITEBACK ACCESS:       9867  HIT:       9827  MISS:         40
LLC TOTAL     ACCESS:      15937  HIT:       7791  MISS:       8146
LLC LOAD      ACCESS:       8112  HIT:        535  MISS:       7577
LLC RFO       ACCESS:        712  HIT:        151  MISS:        561
LLC PREFETCH  ACCESS:          0  HIT:          0  MISS:          0
LLC WRITEBACK ACCESS:       7111  HIT:       7103  MISS:          8
Heartbeat CPU 0 instructions: 70000004 cycles: 37887239 heartbeat IPC: 0.778186 cumulative IPC: 0.787808 (Simulation time: 0 hr 34 min 24 sec) 

Region of Interest Statistics
cpu0_DTLB TOTAL     ACCESS:    4453980  HIT:    4420709  MISS:      33271
cpu0_DTLB LOAD      ACCESS:    3378032  HIT:    3349724  MISS:      28308
cpu0_DTLB RFO       ACCESS:    1075948  HIT:    1070985  MISS:       4963
cpu0_DTLB PREFETCH  ACCESS:          0  HIT:          0  MISS:          0
cpu0_DTLB WRITEBACK ACCESS:          0  HIT:          0  MISS:          0
cpu0_ITLB TOTAL     ACCESS:    1953186  HIT:    1953186  MISS:          0
cpu0_ITLB LOAD      ACCESS:    1953186  HIT:    1953186  MISS:          0
cpu0_ITLB RFO       ACCESS:          0  HIT:          0  MISS:          0
cpu0_ITLB PREFETCH  ACCESS:          0  HIT:          0  MISS:          0
cpu0_ITLB WRITEBACK ACCESS:          0  HIT:          0  MISS:          0
cpu0_L1I TOTAL     ACCESS:    1539331  HIT:    1538979  MISS:        352
cpu0_L1I LOAD      ACCESS:    1539331  HIT:    1538979  MISS:        352
cpu0_L1I RFO       ACCESS:          0  HIT:          0  MISS:          0
cpu0_L1I PREFETCH  ACCESS:          0  HIT:          0  MISS:          0
cpu0_L1I WRITEBACK ACCESS:          0  HIT:          0  MISS:          0
cpu0_STLB TOTAL     ACCESS:      33271  HIT:      25134  MISS:       8137
cpu0_STLB LOAD      ACCESS:      28308  HIT:      20218  MISS:       8090
cpu0_STLB RFO       ACCESS:       4963  HIT:       4916  MISS:         47
cpu0_STLB PREFETCH  ACCESS:          0  HIT:          0  MISS:          0
cpu0_STLB WRITEBACK ACCESS:          0  HIT:          0  MISS:          0
cpu0_L1D TOTAL     ACCESS:    5328000  HIT:    5311741  MISS:      16259
cpu0_L1D LOAD      ACCESS:    3539987  HIT:    3527153  MISS:      12834
cpu0_L1D RFO       ACCESS:    1779876  HIT:    1776490  MISS:       3386
cpu0_L1D PREFETCH  ACCESS:          0  HIT:          0  MISS:          0
cpu0_L1D WRITEBACK ACCESS:          0  HIT:          0  MISS:          0
cpu0_L2C TOTAL     ACCESS:      27571  HIT:      17630  MISS:       9941
cpu0_L2C LOAD      ACCESS:      13186  HIT:       4121  MISS:       9065
cpu0_L2C RFO       ACCESS:       3385  HIT:       2557  MISS:        828
cpu0_L2C PREFETCH  ACCESS:          0  HIT:          0  MISS:          0
cpu0_L2C WRITEBACK ACCESS:      10961  HIT:      10916  MISS:         45
LLC TOTAL     ACCESS:      17895  HIT:       8901  MISS:       8994
LLC LOAD      ACCESS:       9065  HIT:        703  MISS:       8362
LLC RFO       ACCESS:        828  HIT:        208  MISS:        620
LLC PREFETCH  ACCESS:          0  HIT:          0  MISS:          0
LLC WRITEBACK ACCESS:       7999  HIT:       7988  MISS:         11
Heartbeat CPU 0 instructions: 72000002 cycles: 40147794 heartbeat IPC: 0.884738 cumulative IPC: 0.795733 (Simulation time: 0 hr 35 min 28 sec) 

Region of Interest Statistics
cpu0_DTLB TOTAL     ACCESS:    4886904  HIT:    4851292  MISS:      35612
cpu0_DTLB LOAD      ACCESS:    3700353  HIT:    3670072  MISS:      30281
cpu0_DTLB RFO       ACCESS:    1186551  HIT:    1181220  MISS:       5331
cpu0_DTLB PREFETCH  ACCESS:          0  HIT:          0  MISS:          0
cpu0_DTLB WRITEBACK ACCESS:          0  HIT:          0  MISS:          0
cpu0_ITLB TOTAL     ACCESS:    2151974  HIT:    2151974  MISS:          0
cpu0_ITLB LOAD      ACCESS:    2151974  HIT:    2151974  MISS:          0
cpu0_ITLB RFO       ACCESS:          0  HIT:          0  MISS:          0
cpu0_ITLB PREFETCH  ACCESS:          0  HIT:          0  MISS:          0
cpu0_ITLB WRITEBACK ACCESS:          0  HIT:          0  MISS:          0
cpu0_L1I TOTAL     ACCESS:    1659754  HIT:    1659180  MISS:        574
cpu0_L1I LOAD      ACCESS:    1659754  HIT:    1659180  MISS:        574
cpu0_L1I RFO       ACCESS:          0  HIT:          0  MISS:          0
cpu0_L1I PREFETCH  ACCESS:          0  HIT:          0  MISS:          0
cpu0_L1I WRITEBACK ACCESS:          0  HIT:          0  MISS:          0
cpu0_STLB TOTAL     ACCESS:      35612  HIT:      26920  MISS:       8692
cpu0_STLB LOAD      ACCESS:      30281  HIT:      21637  MISS:       8644
cpu0_STLB RFO       ACCESS:       5331  HIT:       5283  MISS:         48
cpu0_STLB PREFETCH  ACCESS:          0  HIT:          0  MISS:          0
cpu0_STLB WRITEBACK ACCESS:          0  HIT:          0  MISS:          0
cpu0_L1D TOTAL     ACCESS:    5835442  HIT:    5817832  MISS:      17610
cpu0_L1D LOAD      ACCESS:    3862532  HIT:    3848772  MISS:      13760
cpu0_L1D RFO       ACCESS:    1964218  HIT:    1960411  MISS:       3807
cpu0_L1D PREFETCH  ACCESS:          0  HIT:          0  MISS:          0
cpu0_L1D WRITEBACK ACCESS:          0  HIT:          0  MISS:          0
cpu0_L2C TOTAL     ACCESS:      30034  HIT:      19328  MISS:      10706
cpu0_L2C LOAD      ACCESS:      14334  HIT:       4579  MISS:       9755
cpu0_L2C RFO       ACCESS:       3806  HIT:       2904  MISS:        902
cpu0_L2C PREFETCH  ACCESS:          0  HIT:          0  MISS:          0
cpu0_L2C WRITEBACK ACCESS:      11851  HIT:      11806  MISS:         45
LLC TOTAL     ACCESS:      19275  HIT:       9635  MISS:       9640
LLC LOAD      ACCESS:       9755  HIT:        789  MISS:       8966
LLC RFO       ACCESS:        902  HIT:        241  MISS:        661
LLC PREFETCH  ACCESS:          0  HIT:          0  MISS:          0
LLC WRITEBACK ACCESS:       8614  HIT:       8602  MISS:         12
Heartbeat CPU 0 instructions: 74000000 cycles: 42423777 heartbeat IPC: 0.87874 cumulative IPC: 0.802047 (Simulation time: 0 hr 36 min 31 sec) 

Region of Interest Statistics
cpu0_DTLB TOTAL     ACCESS:    5310703  HIT:    5272535  MISS:      38168
cpu0_DTLB LOAD      ACCESS:    4015241  HIT:    3982856  MISS:      32385
cpu0_DTLB RFO       ACCESS:    1295462  HIT:    1289679  MISS:       5783
cpu0_DTLB PREFETCH  ACCESS:          0  HIT:          0  MISS:          0
cpu0_DTLB WRITEBACK ACCESS:          0  HIT:          0  MISS:          0
cpu0_ITLB TOTAL     ACCESS:    2349357  HIT:    2349357  MISS:          0
cpu0_ITLB LOAD      ACCESS:    2349357  HIT:    2349357  MISS:          0
cpu0_ITLB RFO       ACCESS:          0  HIT:          0  MISS:          0
cpu0_ITLB PREFETCH  ACCESS:          0  HIT:          0  MISS:          0
cpu0_ITLB WRITEBACK ACCESS:          0  HIT:          0  MISS:          0
cpu0_L1I TOTAL     ACCESS:    1775748  HIT:    1775017  MISS:        731
cpu0_L1I LOAD      ACCESS:    1775748  HIT:    1775017  MISS:        731
cpu0_L1I RFO       ACCESS:          0  HIT:          0  MISS:          0
cpu0_L1I PREFETCH  ACCESS:          0  HIT:          0  MISS:          0
cpu0_L1I WRITEBACK ACCESS:          0  HIT:          0  MISS:          0
cpu0_STLB TOTAL     ACCESS:      38168  HIT:      28870  MISS:       9298
cpu0_STLB LOAD      ACCESS:      32385  HIT:      23135  MISS:       9250
cpu0_STLB RFO       ACCESS:       5783  HIT:       5735  MISS:         48
cpu0_STLB PREFETCH  ACCESS:          0  HIT:          0  MISS:          0
cpu0_STLB WRITEBACK ACCESS:          0  HIT:          0  MISS:          0
cpu0_L1D TOTAL     ACCESS:    6339817  HIT:    6320895  MISS:      18922
cpu0_L1D LOAD      ACCESS:    4183769  HIT:    4168976  MISS:      14793
cpu0_L1D RFO       ACCESS:    2146750  HIT:    2142664  MISS:       4086
cpu0_L1D PREFETCH  ACCESS:          0  HIT:          0  MISS:          0
cpu0_L1D WRITEBACK ACCESS:          0  HIT:          0  MISS:          0
cpu0_L2C TOTAL     ACCESS:      32328  HIT:      20881  MISS:      11447
cpu0_L2C LOAD      ACCESS:      15524  HIT:       5078  MISS:      10446
cpu0_L2C RFO       ACCESS:       4085  HIT:       3133  MISS:        952
cpu0_L2C PREFETCH  ACCESS:          0  HIT:          0  MISS:          0
cpu0_L2C WRITEBACK ACCESS:      12676  HIT:      12631  MISS:         45
LLC TOTAL     ACCESS:      20618  HIT:      10292  MISS:      10326
LLC LOAD      ACCESS:      10446  HIT:        840  MISS:       9606
LLC RFO       ACCESS:        952  HIT:        246  MISS:        706
LLC PREFETCH  ACCESS:          0  HIT:          0  MISS:          0
LLC WRITEBACK ACCESS:       9216  HIT:       9203  MISS:         13
Heartbeat CPU 0 instructions: 76000001 cycles: 44685282 heartbeat IPC: 0.884367 cumulative IPC: 0.807831 (Simulation time: 0 hr 37 min 35 sec) 

Region of Interest Statistics
cpu0_DTLB TOTAL     ACCESS:    5741232  HIT:    5700332  MISS:      40900
cpu0_DTLB LOAD      ACCESS:    4332914  HIT:    4298257  MISS:      34657
cpu0_DTLB RFO       ACCESS:    1408318  HIT:    1402075  MISS:       6243
cpu0_DTLB PREFETCH  ACCESS:          0  HIT:          0  MISS:          0
cpu0_DTLB WRITEBACK ACCESS:          0  HIT:          0  MISS:          0
cpu0_ITLB TOTAL     ACCESS:    2546228  HIT:    2546228  MISS:          0
cpu0_ITLB LOAD      ACCESS:    2546228  HIT:    2546228  MISS:          0
cpu0_ITLB RFO       ACCESS:          0  HIT:          0  MISS:          0
cpu0_ITLB PREFETCH  ACCESS:          0  HIT:          0  MISS:          0
cpu0_ITLB WRITEBACK ACCESS:          0  HIT:          0  MISS:          0
cpu0_L1I TOTAL     ACCESS:    1893166  HIT:    1892329  MISS:        837
cpu0_L1I LOAD      ACCESS:    1893166  HIT:    1892329  MISS:        837
cpu0_L1I RFO       ACCESS:          0  HIT:          0  MISS:          0
cpu0_L1I PREFETCH  ACCESS:          0  HIT:          0  MISS:          0
cpu0_L1I WRITEBACK ACCESS:          0  HIT:          0  MISS:          0
cpu0_STLB TOTAL     ACCESS:      40900  HIT:      30993  MISS:       9907
cpu0_STLB LOAD      ACCESS:      34657  HIT:      24800  MISS:       9857
cpu0_STLB RFO       ACCESS:       6243  HIT:       6193  MISS:         50
cpu0_STLB PREFETCH  ACCESS:          0  HIT:          0  MISS:          0
cpu0_STLB WRITEBACK ACCESS:          0  HIT:          0  MISS:          0
cpu0_L1D TOTAL     ACCESS:    6853532  HIT:    6833200  MISS:      20332
cpu0_L1D LOAD      ACCESS:    4509303  HIT:    4493458  MISS:      15845
cpu0_L1D RFO       ACCESS:    2334322  HIT:    2329880  MISS:       4442
cpu0_L1D PREFETCH  ACCESS:          0  HIT:          0  MISS:          0
cpu0_L1D WRITEBACK ACCESS:          0  HIT:          0  MISS:          0
cpu0_L2C TOTAL     ACCESS:      34699  HIT:      22516  MISS:      12183
cpu0_L2C LOAD      ACCESS:      16682  HIT:       5563  MISS:      11119
cpu0_L2C RFO       ACCESS:       4441  HIT:       3426  MISS:       1015
cpu0_L2C PREFETCH  ACCESS:          0  HIT:          0  MISS:          0
cpu0_L2C WRITEBACK ACCESS:      13531  HIT:      13486  MISS:         45
LLC TOTAL     ACCESS:      21959  HIT:      10931  MISS:      11028
LLC LOAD      ACCESS:      11119  HIT:        869  MISS:      10250
LLC RFO       ACCESS:       1015  HIT:        254  MISS:        761
LLC PREFETCH  ACCESS:          0  HIT:          0  MISS:          0
LLC WRITEBACK ACCESS:       9821  HIT:       9805  MISS:         16
Heartbeat CPU 0 instructions: 78000001 cycles: 46813263 heartbeat IPC: 0.939858 cumulative IPC: 0.816019 (Simulation time: 0 hr 38 min 33 sec) 

Region of Interest Statistics
cpu0_DTLB TOTAL     ACCESS:    6163542  HIT:    6120760  MISS:      42782
cpu0_DTLB LOAD      ACCESS:    4646211  HIT:    4609954  MISS:      36257
cpu0_DTLB RFO       ACCESS:    1517331  HIT:    1510806  MISS:       6525
cpu0_DTLB PREFETCH  ACCESS:          0  HIT:          0  MISS:          0
cpu0_DTLB WRITEBACK ACCESS:          0  HIT:          0  MISS:          0
cpu0_ITLB TOTAL     ACCESS:    2757645  HIT:    2757645  MISS:          0
cpu0_ITLB LOAD      ACCESS:    2757645  HIT:    2757645  MISS:          0
cpu0_ITLB RFO       ACCESS:          0  HIT:          0  MISS:          0
cpu0_ITLB PREFETCH  ACCESS:          0  HIT:          0  MISS:          0
cpu0_ITLB WRITEBACK ACCESS:          0  HIT:          0  MISS:          0
cpu0_L1I TOTAL     ACCESS:    1984569  HIT:    1983578  MISS:        991
cpu0_L1I LOAD      ACCESS:    1984569  HIT:    1983578  MISS:        991
cpu0_L1I RFO       ACCESS:          0  HIT:          0  MISS:          0
cpu0_L1I PREFETCH  ACCESS:          0  HIT:          0  MISS:          0
cpu0_L1I WRITEBACK ACCESS:          0  HIT:          0  MISS:          0
cpu0_STLB TOTAL     ACCESS:      42782  HIT:      32494  MISS:      10288
cpu0_STLB LOAD      ACCESS:      36257  HIT:      26020  MISS:      10237
cpu0_STLB RFO       ACCESS:       6525  HIT:       6474  MISS:         51
cpu0_STLB PREFETCH  ACCESS:          0  HIT:          0  MISS:          0
cpu0_STLB WRITEBACK ACCESS:          0  HIT:          0  MISS:          0
cpu0_L1D TOTAL     ACCESS:    7338132  HIT:    7316943  MISS:      21189
cpu0_L1D LOAD      ACCESS:    4812481  HIT:    4795975  MISS:      16506
cpu0_L1D RFO       ACCESS:    2515363  HIT:    2510729  MISS:       4634
cpu0_L1D PREFETCH  ACCESS:          0  HIT:          0  MISS:          0
cpu0_L1D WRITEBACK ACCESS:          0  HIT:          0  MISS:          0
cpu0_L2C TOTAL     ACCESS:      36227  HIT:      23570  MISS:      12657
cpu0_L2C LOAD      ACCESS:      17497  HIT:       5941  MISS:      11556
cpu0_L2C RFO       ACCESS:       4633  HIT:       3581  MISS:       1052
cpu0_L2C PREFETCH  ACCESS:          0  HIT:          0  MISS:          0
cpu0_L2C WRITEBACK ACCESS:      14048  HIT:      14003  MISS:         45
LLC TOTAL     ACCESS:      22810  HIT:      11333  MISS:      11477
LLC LOAD      ACCESS:      11556  HIT:        892  MISS:      10664
LLC RFO       ACCESS:       1052  HIT:        256  MISS:        796
LLC PREFETCH  ACCESS:          0  HIT:          0  MISS:          0
LLC WRITEBACK ACCESS:      10198  HIT:      10182  MISS:         16
Heartbeat CPU 0 instructions: 80000000 cycles: 49191405 heartbeat IPC: 0.840992 cumulative IPC: 0.817638 (Simulation time: 0 hr 39 min 33 sec) 

Region of Interest Statistics
cpu0_DTLB TOTAL     ACCESS:    6594191  HIT:    6548791  MISS:      45400
cpu0_DTLB LOAD      ACCESS:    4972512  HIT:    4934049  MISS:      38463
cpu0_DTLB RFO       ACCESS:    1621679  HIT:    1614742  MISS:       6937
cpu0_DTLB PREFETCH  ACCESS:          0  HIT:          0  MISS:          0
cpu0_DTLB WRITEBACK ACCESS:          0  HIT:          0  MISS:          0
cpu0_ITLB TOTAL     ACCESS:    2961201  HIT:    2961201  MISS:          0
cpu0_ITLB LOAD      ACCESS:    2961201  HIT:    2961201  MISS:          0
cpu0_ITLB RFO       ACCESS:          0  HIT:          0  MISS:          0
cpu0_ITLB PREFETCH  ACCESS:          0  HIT:          0  MISS:          0
cpu0_ITLB WRITEBACK ACCESS:          0  HIT:          0  MISS:          0
cpu0_L1I TOTAL     ACCESS:    2109731  HIT:    2108660  MISS:       1071
cpu0_L1I LOAD      ACCESS:    2109731  HIT:    2108660  MISS:       1071
cpu0_L1I RFO       ACCESS:          0  HIT:          0  MISS:          0
cpu0_L1I PREFETCH  ACCESS:          0  HIT:          0  MISS:          0
cpu0_L1I WRITEBACK ACCESS:          0  HIT:          0  MISS:          0
cpu0_STLB TOTAL     ACCESS:      45400  HIT:      34566  MISS:      10834
cpu0_STLB LOAD      ACCESS:      38463  HIT:      27684  MISS:      10779
cpu0_STLB RFO       ACCESS:       6937  HIT:       6882  MISS:         55
cpu0_STLB PREFETCH  ACCESS:          0  HIT:          0  MISS:          0
cpu0_STLB WRITEBACK ACCESS:          0  HIT:          0  MISS:          0
cpu0_L1D TOTAL     ACCESS:    7841588  HIT:    7819150  MISS:      22438
cpu0_L1D LOAD      ACCESS:    5139656  HIT:    5122229  MISS:      17427
cpu0_L1D RFO       ACCESS:    2691098  HIT:    2686142  MISS:       4956
cpu0_L1D PREFETCH  ACCESS:          0  HIT:          0  MISS:          0
cpu0_L1D WRITEBACK ACCESS:          0  HIT:          0  MISS:          0
cpu0_L2C TOTAL     ACCESS:      38392  HIT:      25070  MISS:      13322
cpu0_L2C LOAD      ACCESS:      18498  HIT:       6344  MISS:      12154
cpu0_L2C RFO       ACCESS:       4955  HIT:       3841  MISS:       1114
cpu0_L2C PREFETCH  ACCESS:          0  HIT:          0  MISS:          0
cpu0_L2C WRITEBACK ACCESS:      14884  HIT:      14835  MISS:         49
LLC TOTAL     ACCESS:      23985  HIT:      11884  MISS:      12101
LLC LOAD      ACCESS:      12154  HIT:        912  MISS:      11242
LLC RFO       ACCESS:       1114  HIT:        272  MISS:        842
LLC PREFETCH  ACCESS:          0  HIT:          0  MISS:          0
LLC WRITEBACK ACCESS:      10712  HIT:      10696  MISS:         16
Heartbeat CPU 0 instructions: 82000003 cycles: 51545183 heartbeat IPC: 0.849699 cumulative IPC: 0.819571 (Simulation time: 0 hr 40 min 36 sec) 

Region of Interest Statistics
cpu0_DTLB TOTAL     ACCESS:    7031725  HIT:    6983390  MISS:      48335
cpu0_DTLB LOAD      ACCESS:    5300487  HIT:    5259569  MISS:      40918
cpu0_DTLB RFO       ACCESS:    1731238  HIT:    1723821  MISS:       7417
cpu0_DTLB PREFETCH  ACCESS:          0  HIT:          0  MISS:          0
cpu0_DTLB WRITEBACK ACCESS:          0  HIT:          0  MISS:          0
cpu0_ITLB TOTAL     ACCESS:    3162028  HIT:    3162028  MISS:          0
cpu0_ITLB LOAD      ACCESS:    3162028  HIT:    3162028  MISS:          0
cpu0_ITLB RFO       ACCESS:          0  HIT:          0  MISS:          0
cpu0_ITLB PREFETCH  ACCESS:          0  HIT:          0  MISS:          0
cpu0_ITLB WRITEBACK ACCESS:          0  HIT:          0  MISS:          0
cpu0_L1I TOTAL     ACCESS:    2236487  HIT:    2235266  MISS:       1221
cpu0_L1I LOAD      ACCESS:    2236487  HIT:    2235266  MISS:       1221
cpu0_L1I RFO       ACCESS:          0  HIT:          0  MISS:          0
cpu0_L1I PREFETCH  ACCESS:          0  HIT:          0  MISS:          0
cpu0_L1I WRITEBACK ACCESS:          0  HIT:          0  MISS:          0
cpu0_STLB TOTAL     ACCESS:      48335  HIT:      36860  MISS:      11475
cpu0_STLB LOAD      ACCESS:      40918  HIT:      29502  MISS:      11416
cpu0_STLB RFO       ACCESS:       7417  HIT:       7358  MISS:         59
cpu0_STLB PREFETCH  ACCESS:          0  HIT:          0  MISS:          0
cpu0_STLB WRITEBACK ACCESS:          0  HIT:          0  MISS:          0
cpu0_L1D TOTAL     ACCESS:    8356118  HIT:    8332088  MISS:      24030
cpu0_L1D LOAD      ACCESS:    5470169  HIT:    5451566  MISS:      18603
cpu0_L1D RFO       ACCESS:    2874474  HIT:    2869107  MISS:       5367
cpu0_L1D PREFETCH  ACCESS:          0  HIT:          0  MISS:          0
cpu0_L1D WRITEBACK ACCESS:          0  HIT:          0  MISS:          0
cpu0_L2C TOTAL     ACCESS:      41172  HIT:      27061  MISS:      14111
cpu0_L2C LOAD      ACCESS:      19824  HIT:       6946  MISS:      12878
cpu0_L2C RFO       ACCESS:       5366  HIT:       4189  MISS:       1177
cpu0_L2C PREFETCH  ACCESS:          0  HIT:          0  MISS:          0
cpu0_L2C WRITEBACK ACCESS:      15922  HIT:      15871  MISS:         51
LLC TOTAL     ACCESS:      25366  HIT:      12521  MISS:      12845
LLC LOAD      ACCESS:      12878  HIT:        945  MISS:      11933
LLC RFO       ACCESS:       1177  HIT:        282  MISS:        895
LLC PREFETCH  ACCESS:          0  HIT:          0  MISS:          0
LLC WRITEBACK ACCESS:      11306  HIT:      11290  MISS:         16
Heartbeat CPU 0 instructions: 84000001 cycles: 53909080 heartbeat IPC: 0.84606 cumulative IPC: 0.821083 (Simulation time: 0 hr 41 min 37 sec) 

Region of Interest Statistics
cpu0_DTLB TOTAL     ACCESS:    7463756  HIT:    7412584  MISS:      51172
cpu0_DTLB LOAD      ACCESS:    5625444  HIT:    5582140  MISS:      43304
cpu0_DTLB RFO       ACCESS:    1838312  HIT:    1830444  MISS:       7868
cpu0_DTLB PREFETCH  ACCESS:          0  HIT:          0  MISS:          0
cpu0_DTLB WRITEBACK ACCESS:          0  HIT:          0  MISS:          0
cpu0_ITLB TOTAL     ACCESS:    3366953  HIT:    3366953  MISS:          0
cpu0_ITLB LOAD      ACCESS:    3366953  HIT:    3366953  MISS:          0
cpu0_ITLB RFO       ACCESS:          0  HIT:          0  MISS:          0
cpu0_ITLB PREFETCH  ACCESS:          0  HIT:          0  MISS:          0
cpu0_ITLB WRITEBACK ACCESS:          0  HIT:          0  MISS:          0
cpu0_L1I TOTAL     ACCESS:    2357548  HIT:    2356156  MISS:       1392
cpu0_L1I LOAD      ACCESS:    2357548  HIT:    2356156  MISS:       1392
cpu0_L1I RFO       ACCESS:          0  HIT:          0  MISS:          0
cpu0_L1I PREFETCH  ACCESS:          0  HIT:          0  MISS:          0
cpu0_L1I WRITEBACK ACCESS:          0  HIT:          0  MISS:          0
cpu0_STLB TOTAL     ACCESS:      51172  HIT:      39071  MISS:      12101
cpu0_STLB LOAD      ACCESS:      43304  HIT:      31262  MISS:      12042
cpu0_STLB RFO       ACCESS:       7868  HIT:       7809  MISS:         59
cpu0_STLB PREFETCH  ACCESS:          0  HIT:          0  MISS:          0
cpu0_STLB WRITEBACK ACCESS:          0  HIT:          0  MISS:          0
cpu0_L1D TOTAL     ACCESS:    8863807  HIT:    8838268  MISS:      25539
cpu0_L1D LOAD      ACCESS:    5797937  HIT:    5778227  MISS:      19710
cpu0_L1D RFO       ACCESS:    3053769  HIT:    3048003  MISS:       5766
cpu0_L1D PREFETCH  ACCESS:          0  HIT:          0  MISS:          0
cpu0_L1D WRITEBACK ACCESS:          0  HIT:          0  MISS:          0
cpu0_L2C TOTAL     ACCESS:      43853  HIT:      28967  MISS:      14886
cpu0_L2C LOAD      ACCESS:      21102  HIT:       7506  MISS:      13596
cpu0_L2C RFO       ACCESS:       5765  HIT:       4534  MISS:       1231
cpu0_L2C PREFETCH  ACCESS:          0  HIT:          0  MISS:          0
cpu0_L2C WRITEBACK ACCESS:      16923  HIT:      16869  MISS:         54
LLC TOTAL     ACCESS:      26747  HIT:      13156  MISS:      13591
LLC LOAD      ACCESS:      13596  HIT:        971  MISS:      12625
LLC RFO       ACCESS:       1231  HIT:        284  MISS:        947
LLC PREFETCH  ACCESS:          0  HIT:          0  MISS:          0
LLC WRITEBACK ACCESS:      11915  HIT:      11897  MISS:         18
Heartbeat CPU 0 instructions: 86000001 cycles: 56318557 heartbeat IPC: 0.830056 cumulative IPC: 0.821576 (Simulation time: 0 hr 42 min 39 sec) 

Region of Interest Statistics
cpu0_DTLB TOTAL     ACCESS:    7889500  HIT:    7835415  MISS:      54085
cpu0_DTLB LOAD      ACCESS:    5949214  HIT:    5903401  MISS:      45813
cpu0_DTLB RFO       ACCESS:    1940286  HIT:    1932014  MISS:       8272
cpu0_DTLB PREFETCH  ACCESS:          0  HIT:          0  MISS:          0
cpu0_DTLB WRITEBACK ACCESS:          0  HIT:          0  MISS:          0
cpu0_ITLB TOTAL     ACCESS:    3566896  HIT:    3566896  MISS:          0
cpu0_ITLB LOAD      ACCESS:    3566896  HIT:    3566896  MISS:          0
cpu0_ITLB RFO       ACCESS:          0  HIT:          0  MISS:          0
cpu0_ITLB PREFETCH  ACCESS:          0  HIT:          0  MISS:          0
cpu0_ITLB WRITEBACK ACCESS:          0  HIT:          0  MISS:          0
cpu0_L1I TOTAL     ACCESS:    2487848  HIT:    2486372  MISS:       1476
cpu0_L1I LOAD      ACCESS:    2487848  HIT:    2486372  MISS:       1476
cpu0_L1I RFO       ACCESS:          0  HIT:          0  MISS:          0
cpu0_L1I PREFETCH  ACCESS:          0  HIT:          0  MISS:          0
cpu0_L1I WRITEBACK ACCESS:          0  HIT:          0  MISS:          0
cpu0_STLB TOTAL     ACCESS:      54085  HIT:      41376  MISS:      12709
cpu0_STLB LOAD      ACCESS:      45813  HIT:      33165  MISS:      12648
cpu0_STLB RFO       ACCESS:       8272  HIT:       8211  MISS:         61
cpu0_STLB PREFETCH  ACCESS:          0  HIT:          0  MISS:          0
cpu0_STLB WRITEBACK ACCESS:          0  HIT:          0  MISS:          0
cpu0_L1D TOTAL     ACCESS:    9371069  HIT:    9344315  MISS:      26754
cpu0_L1D LOAD      ACCESS:    6130814  HIT:    6110073  MISS:      20741
cpu0_L1D RFO       ACCESS:    3227546  HIT:    3221602  MISS:       5944
cpu0_L1D PREFETCH  ACCESS:          0  HIT:          0  MISS:          0
cpu0_L1D WRITEBACK ACCESS:          0  HIT:          0  MISS:          0
cpu0_L2C TOTAL     ACCESS:      45946  HIT:      30299  MISS:      15647
cpu0_L2C LOAD      ACCESS:      22217  HIT:       7899  MISS:      14318
cpu0_L2C RFO       ACCESS:       5943  HIT:       4674  MISS:       1269
cpu0_L2C PREFETCH  ACCESS:          0  HIT:          0  MISS:          0
cpu0_L2C WRITEBACK ACCESS:      17717  HIT:      17662  MISS:         55
LLC TOTAL     ACCESS:      28114  HIT:      13793  MISS:      14321
LLC LOAD      ACCESS:      14318  HIT:       1005  MISS:      13313
LLC RFO       ACCESS:       1269  HIT:        284  MISS:        985
LLC PREFETCH  ACCESS:          0  HIT:          0  MISS:          0
LLC WRITEBACK ACCESS:      12522  HIT:      12500  MISS:         22
Heartbeat CPU 0 instructions: 88000002 cycles: 58745846 heartbeat IPC: 0.823965 cumulative IPC: 0.821702 (Simulation time: 0 hr 43 min 39 sec) 

Region of Interest Statistics
cpu0_DTLB TOTAL     ACCESS:    8321821  HIT:    8264451  MISS:      57370
cpu0_DTLB LOAD      ACCESS:    6277749  HIT:    6229109  MISS:      48640
cpu0_DTLB RFO       ACCESS:    2044072  HIT:    2035342  MISS:       8730
cpu0_DTLB PREFETCH  ACCESS:          0  HIT:          0  MISS:          0
cpu0_DTLB WRITEBACK ACCESS:          0  HIT:          0  MISS:          0
cpu0_ITLB TOTAL     ACCESS:    3770378  HIT:    3770378  MISS:          0
cpu0_ITLB LOAD      ACCESS:    3770378  HIT:    3770378  MISS:          0
cpu0_ITLB RFO       ACCESS:          0  HIT:          0  MISS:          0
cpu0_ITLB PREFETCH  ACCESS:          0  HIT:          0  MISS:          0
cpu0_ITLB WRITEBACK ACCESS:          0  HIT:          0  MISS:          0
cpu0_L1I TOTAL     ACCESS:    2621102  HIT:    2619517  MISS:       1585
cpu0_L1I LOAD      ACCESS:    2621102  HIT:    2619517  MISS:       1585
cpu0_L1I RFO       ACCESS:          0  HIT:          0  MISS:          0
cpu0_L1I PREFETCH  ACCESS:          0  HIT:          0  MISS:          0
cpu0_L1I WRITEBACK ACCESS:          0  HIT:          0  MISS:          0
cpu0_STLB TOTAL     ACCESS:      57370  HIT:      43983  MISS:      13387
cpu0_STLB LOAD      ACCESS:      48640  HIT:      35314  MISS:      13326
cpu0_STLB RFO       ACCESS:       8730  HIT:       8669  MISS:         61
cpu0_STLB PREFETCH  ACCESS:          0  HIT:          0  MISS:          0
cpu0_STLB WRITEBACK ACCESS:          0  HIT:          0  MISS:          0
cpu0_L1D TOTAL     ACCESS:    9884382  HIT:    9856206  MISS:      28176
cpu0_L1D LOAD      ACCESS:    6468314  HIT:    6446363  MISS:      21951
cpu0_L1D RFO       ACCESS:    3402681  HIT:    3396530  MISS:       6151
cpu0_L1D PREFETCH  ACCESS:          0  HIT:          0  MISS:          0
cpu0_L1D WRITEBACK ACCESS:          0  HIT:          0  MISS:          0
cpu0_L2C TOTAL     ACCESS:      48420  HIT:      31954  MISS:      16466
cpu0_L2C LOAD      ACCESS:      23536  HIT:       8445  MISS:      15091
cpu0_L2C RFO       ACCESS:       6150  HIT:       4837  MISS:       1313
cpu0_L2C PREFETCH  ACCESS:          0  HIT:          0  MISS:          0
cpu0_L2C WRITEBACK ACCESS:      18660  HIT:      18604  MISS:         56
LLC TOTAL     ACCESS:      29547  HIT:      14452  MISS:      15095
LLC LOAD      ACCESS:      15091  HIT:       1050  MISS:      14041
LLC RFO       ACCESS:       1313  HIT:        285  MISS:       1028
LLC PREFETCH  ACCESS:          0  HIT:          0  MISS:          0
LLC WRITEBACK ACCESS:      13137  HIT:      13112  MISS:         25
Heartbeat CPU 0 instructions: 90000001 cycles: 61198738 heartbeat IPC: 0.815364 cumulative IPC: 0.821382 (Simulation time: 0 hr 44 min 38 sec) 

Region of Interest Statistics
cpu0_DTLB TOTAL     ACCESS:    8757463  HIT:    8697029  MISS:      60434
cpu0_DTLB LOAD      ACCESS:    6607652  HIT:    6556412  MISS:      51240
cpu0_DTLB RFO       ACCESS:    2149811  HIT:    2140617  MISS:       9194
cpu0_DTLB PREFETCH  ACCESS:          0  HIT:          0  MISS:          0
cpu0_DTLB WRITEBACK ACCESS:          0  HIT:          0  MISS:          0
cpu0_ITLB TOTAL     ACCESS:    3969171  HIT:    3969171  MISS:          0
cpu0_ITLB LOAD      ACCESS:    3969171  HIT:    3969171  MISS:          0
cpu0_ITLB RFO       ACCESS:          0  HIT:          0  MISS:          0
cpu0_ITLB PREFETCH  ACCESS:          0  HIT:          0  MISS:          0
cpu0_ITLB WRITEBACK ACCESS:          0  HIT:          0  MISS:          0
cpu0_L1I TOTAL     ACCESS:    2759263  HIT:    2757549  MISS:       1714
cpu0_L1I LOAD      ACCESS:    2759263  HIT:    2757549  MISS:       1714
cpu0_L1I RFO       ACCESS:          0  HIT:          0  MISS:          0
cpu0_L1I PREFETCH  ACCESS:          0  HIT:          0  MISS:          0
cpu0_L1I WRITEBACK ACCESS:          0  HIT:          0  MISS:          0
cpu0_STLB TOTAL     ACCESS:      60434  HIT:      46387  MISS:      14047
cpu0_STLB LOAD      ACCESS:      51240  HIT:      37256  MISS:      13984
cpu0_STLB RFO       ACCESS:       9194  HIT:       9131  MISS:         63
cpu0_STLB PREFETCH  ACCESS:          0  HIT:          0  MISS:          0
cpu0_STLB WRITEBACK ACCESS:          0  HIT:          0  MISS:          0
cpu0_L1D TOTAL     ACCESS:   10403225  HIT:   10373694  MISS:      29531
cpu0_L1D LOAD      ACCESS:    6807753  HIT:    6784746  MISS:      23007
cpu0_L1D RFO       ACCESS:    3581425  HIT:    3574978  MISS:       6447
cpu0_L1D PREFETCH  ACCESS:          0  HIT:          0  MISS:          0
cpu0_L1D WRITEBACK ACCESS:          0  HIT:          0  MISS:          0
cpu0_L2C TOTAL     ACCESS:      50830  HIT:      33593  MISS:      17237
cpu0_L2C LOAD      ACCESS:      24721  HIT:       8906  MISS:      15815
cpu0_L2C RFO       ACCESS:       6446  HIT:       5089  MISS:       1357
cpu0_L2C PREFETCH  ACCESS:          0  HIT:          0  MISS:          0
cpu0_L2C WRITEBACK ACCESS:      19586  HIT:      19527  MISS:         59
LLC TOTAL     ACCESS:      30924  HIT:      15084  MISS:      15840
LLC LOAD      ACCESS:      15815  HIT:       1072  MISS:      14743
LLC RFO       ACCESS:       1357  HIT:        288  MISS:       1069
LLC PREFETCH  ACCESS:          0  HIT:          0  MISS:          0
LLC WRITEBACK ACCESS:      13746  HIT:      13719  MISS:         27
Heartbeat CPU 0 instructions: 92000000 cycles: 63648532 heartbeat IPC: 0.816395 cumulative IPC: 0.821143 (Simulation time: 0 hr 45 min 39 sec) 

Region of Interest Statistics
cpu0_DTLB TOTAL     ACCESS:    9195983  HIT:    9132351  MISS:      63632
cpu0_DTLB LOAD      ACCESS:    6939223  HIT:    6885289  MISS:      53934
cpu0_DTLB RFO       ACCESS:    2256760  HIT:    2247062  MISS:       9698
cpu0_DTLB PREFETCH  ACCESS:          0  HIT:          0  MISS:          0
cpu0_DTLB WRITEBACK ACCESS:          0  HIT:          0  MISS:          0
cpu0_ITLB TOTAL     ACCESS:    4170179  HIT:    4170179  MISS:          0
cpu0_ITLB LOAD      ACCESS:    4170179  HIT:    4170179  MISS:          0
cpu0_ITLB RFO       ACCESS:          0  HIT:          0  MISS:          0
cpu0_ITLB PREFETCH  ACCESS:          0  HIT:          0  MISS:          0
cpu0_ITLB WRITEBACK ACCESS:          0  HIT:          0  MISS:          0
cpu0_L1I TOTAL     ACCESS:    2895253  HIT:    2893408  MISS:       1845
cpu0_L1I LOAD      ACCESS:    2895253  HIT:    2893408  MISS:       1845
cpu0_L1I RFO       ACCESS:          0  HIT:          0  MISS:          0
cpu0_L1I PREFETCH  ACCESS:          0  HIT:          0  MISS:          0
cpu0_L1I WRITEBACK ACCESS:          0  HIT:          0  MISS:          0
cpu0_STLB TOTAL     ACCESS:      63632  HIT:      48935  MISS:      14697
cpu0_STLB LOAD      ACCESS:      53934  HIT:      39300  MISS:      14634
cpu0_STLB RFO       ACCESS:       9698  HIT:       9635  MISS:         63
cpu0_STLB PREFETCH  ACCESS:          0  HIT:          0  MISS:          0
cpu0_STLB WRITEBACK ACCESS:          0  HIT:          0  MISS:          0
cpu0_L1D TOTAL     ACCESS:   10922382  HIT:   10891378  MISS:      31004
cpu0_L1D LOAD      ACCESS:    7146278  HIT:    7122101  MISS:      24177
cpu0_L1D RFO       ACCESS:    3761407  HIT:    3754662  MISS:       6745
cpu0_L1D PREFETCH  ACCESS:          0  HIT:          0  MISS:          0
cpu0_L1D WRITEBACK ACCESS:          0  HIT:          0  MISS:          0
cpu0_L2C TOTAL     ACCESS:      53427  HIT:      35424  MISS:      18003
cpu0_L2C LOAD      ACCESS:      26022  HIT:       9485  MISS:      16537
cpu0_L2C RFO       ACCESS:       6744  HIT:       5344  MISS:       1400
cpu0_L2C PREFETCH  ACCESS:          0  HIT:          0  MISS:          0
cpu0_L2C WRITEBACK ACCESS:      20579  HIT:      20520  MISS:         59
LLC TOTAL     ACCESS:      32266  HIT:      15688  MISS:      16578
LLC LOAD      ACCESS:      16537  HIT:       1102  MISS:      15435
LLC RFO       ACCESS:       1400  HIT:        290  MISS:       1110
LLC PREFETCH  ACCESS:          0  HIT:          0  MISS:          0
LLC WRITEBACK ACCESS:      14322  HIT:      14290  MISS:         32
Heartbeat CPU 0 instructions: 94000000 cycles: 66122540 heartbeat IPC: 0.808405 cumulative IPC: 0.820556 (Simulation time: 0 hr 46 min 43 sec) 

Region of Interest Statistics
cpu0_DTLB TOTAL     ACCESS:    9644646  HIT:    9577603  MISS:      67043
cpu0_DTLB LOAD      ACCESS:    7274132  HIT:    7217280  MISS:      56852
cpu0_DTLB RFO       ACCESS:    2370514  HIT:    2360323  MISS:      10191
cpu0_DTLB PREFETCH  ACCESS:          0  HIT:          0  MISS:          0
cpu0_DTLB WRITEBACK ACCESS:          0  HIT:          0  MISS:          0
cpu0_ITLB TOTAL     ACCESS:    4367412  HIT:    4367412  MISS:          0
cpu0_ITLB LOAD      ACCESS:    4367412  HIT:    4367412  MISS:          0
cpu0_ITLB RFO       ACCESS:          0  HIT:          0  MISS:          0
cpu0_ITLB PREFETCH  ACCESS:          0  HIT:          0  MISS:          0
cpu0_ITLB WRITEBACK ACCESS:          0  HIT:          0  MISS:          0
cpu0_L1I TOTAL     ACCESS:    3040208  HIT:    3038241  MISS:       1967
cpu0_L1I LOAD      ACCESS:    3040208  HIT:    3038241  MISS:       1967
cpu0_L1I RFO       ACCESS:          0  HIT:          0  MISS:          0
cpu0_L1I PREFETCH  ACCESS:          0  HIT:          0  MISS:          0
cpu0_L1I WRITEBACK ACCESS:          0  HIT:          0  MISS:          0
cpu0_STLB TOTAL     ACCESS:      67043  HIT:      51513  MISS:      15530
cpu0_STLB LOAD      ACCESS:      56852  HIT:      41390  MISS:      15462
cpu0_STLB RFO       ACCESS:      10191  HIT:      10123  MISS:         68
cpu0_STLB PREFETCH  ACCESS:          0  HIT:          0  MISS:          0
cpu0_STLB WRITEBACK ACCESS:          0  HIT:          0  MISS:          0
cpu0_L1D TOTAL     ACCESS:   11457553  HIT:   11424833  MISS:      32720
cpu0_L1D LOAD      ACCESS:    7494177  HIT:    7468654  MISS:      25523
cpu0_L1D RFO       ACCESS:    3947846  HIT:    3940736  MISS:       7110
cpu0_L1D PREFETCH  ACCESS:          0  HIT:          0  MISS:          0
cpu0_L1D WRITEBACK ACCESS:          0  HIT:          0  MISS:          0
cpu0_L2C TOTAL     ACCESS:      56445  HIT:      37457  MISS:      18988
cpu0_L2C LOAD      ACCESS:      27490  HIT:      10051  MISS:      17439
cpu0_L2C RFO       ACCESS:       7109  HIT:       5636  MISS:       1473
cpu0_L2C PREFETCH  ACCESS:          0  HIT:          0  MISS:          0
cpu0_L2C WRITEBACK ACCESS:      21759  HIT:      21690  MISS:         69
LLC TOTAL     ACCESS:      33996  HIT:      16511  MISS:      17485
LLC LOAD      ACCESS:      17439  HIT:       1158  MISS:      16281
LLC RFO       ACCESS:       1473  HIT:        305  MISS:       1168
LLC PREFETCH  ACCESS:          0  HIT:          0  MISS:          0
LLC WRITEBACK ACCESS:      15077  HIT:      15042  MISS:         35
Heartbeat CPU 0 instructions: 96000000 cycles: 68370935 heartbeat IPC: 0.889523 cumulative IPC: 0.823331 (Simulation time: 0 hr 47 min 43 sec) 

Region of Interest Statistics
cpu0_DTLB TOTAL     ACCESS:   10081739  HIT:   10012091  MISS:      69648
cpu0_DTLB LOAD      ACCESS:    7595275  HIT:    7536268  MISS:      59007
cpu0_DTLB RFO       ACCESS:    2486464  HIT:    2475823  MISS:      10641
cpu0_DTLB PREFETCH  ACCESS:          0  HIT:          0  MISS:          0
cpu0_DTLB WRITEBACK ACCESS:          0  HIT:          0  MISS:          0
cpu0_ITLB TOTAL     ACCESS:    4567197  HIT:    4567197  MISS:          0
cpu0_ITLB LOAD      ACCESS:    4567197  HIT:    4567197  MISS:          0
cpu0_ITLB RFO       ACCESS:          0  HIT:          0  MISS:          0
cpu0_ITLB PREFETCH  ACCESS:          0  HIT:          0  MISS:          0
cpu0_ITLB WRITEBACK ACCESS:          0  HIT:          0  MISS:          0
cpu0_L1I TOTAL     ACCESS:    3155797  HIT:    3153691  MISS:       2106
cpu0_L1I LOAD      ACCESS:    3155797  HIT:    3153691  MISS:       2106
cpu0_L1I RFO       ACCESS:          0  HIT:          0  MISS:          0
cpu0_L1I PREFETCH  ACCESS:          0  HIT:          0  MISS:          0
cpu0_L1I WRITEBACK ACCESS:          0  HIT:          0  MISS:          0
cpu0_STLB TOTAL     ACCESS:      69648  HIT:      53563  MISS:      16085
cpu0_STLB LOAD      ACCESS:      59007  HIT:      42992  MISS:      16015
cpu0_STLB RFO       ACCESS:      10641  HIT:      10571  MISS:         70
cpu0_STLB PREFETCH  ACCESS:          0  HIT:          0  MISS:          0
cpu0_STLB WRITEBACK ACCESS:          0  HIT:          0  MISS:          0
cpu0_L1D TOTAL     ACCESS:   11976743  HIT:   11942798  MISS:      33945
cpu0_L1D LOAD      ACCESS:    7822550  HIT:    7796076  MISS:      26474
cpu0_L1D RFO       ACCESS:    4138108  HIT:    4130728  MISS:       7380
cpu0_L1D PREFETCH  ACCESS:          0  HIT:          0  MISS:          0
cpu0_L1D WRITEBACK ACCESS:          0  HIT:          0  MISS:          0
cpu0_L2C TOTAL     ACCESS:      58569  HIT:      38895  MISS:      19674
cpu0_L2C LOAD      ACCESS:      28580  HIT:      10509  MISS:      18071
cpu0_L2C RFO       ACCESS:       7379  HIT:       5857  MISS:       1522
cpu0_L2C PREFETCH  ACCESS:          0  HIT:          0  MISS:          0
cpu0_L2C WRITEBACK ACCESS:      22519  HIT:      22445  MISS:         74
LLC TOTAL     ACCESS:      35221  HIT:      17093  MISS:      18128
LLC LOAD      ACCESS:      18071  HIT:       1194  MISS:      16877
LLC RFO       ACCESS:       1522  HIT:        308  MISS:       1214
LLC PREFETCH  ACCESS:          0  HIT:          0  MISS:          0
LLC WRITEBACK ACCESS:      15621  HIT:      15585  MISS:         36
Heartbeat CPU 0 instructions: 98000001 cycles: 70744849 heartbeat IPC: 0.842491 cumulative IPC: 0.824112 (Simulation time: 0 hr 48 min 44 sec) 

Region of Interest Statistics
cpu0_DTLB TOTAL     ACCESS:   10518415  HIT:   10445677  MISS:      72738
cpu0_DTLB LOAD      ACCESS:    7924224  HIT:    7862601  MISS:      61623
cpu0_DTLB RFO       ACCESS:    2594191  HIT:    2583076  MISS:      11115
cpu0_DTLB PREFETCH  ACCESS:          0  HIT:          0  MISS:          0
cpu0_DTLB WRITEBACK ACCESS:          0  HIT:          0  MISS:          0
cpu0_ITLB TOTAL     ACCESS:    4765371  HIT:    4765371  MISS:          0
cpu0_ITLB LOAD      ACCESS:    4765371  HIT:    4765371  MISS:          0
cpu0_ITLB RFO       ACCESS:          0  HIT:          0  MISS:          0
cpu0_ITLB PREFETCH  ACCESS:          0  HIT:          0  MISS:          0
cpu0_ITLB WRITEBACK ACCESS:          0  HIT:          0  MISS:          0
cpu0_L1I TOTAL     ACCESS:    3295741  HIT:    3293460  MISS:       2281
cpu0_L1I LOAD      ACCESS:    3295741  HIT:    3293460  MISS:       2281
cpu0_L1I RFO       ACCESS:          0  HIT:          0  MISS:          0
cpu0_L1I PREFETCH  ACCESS:          0  HIT:          0  MISS:          0
cpu0_L1I WRITEBACK ACCESS:          0  HIT:          0  MISS:          0
cpu0_STLB TOTAL     ACCESS:      72738  HIT:      56034  MISS:      16704
cpu0_STLB LOAD      ACCESS:      61623  HIT:      44996  MISS:      16627
cpu0_STLB RFO       ACCESS:      11115  HIT:      11038  MISS:         77
cpu0_STLB PREFETCH  ACCESS:          0  HIT:          0  MISS:          0
cpu0_STLB WRITEBACK ACCESS:          0  HIT:          0  MISS:          0
cpu0_L1D TOTAL     ACCESS:   12494244  HIT:   12459053  MISS:      35191
cpu0_L1D LOAD      ACCESS:    8164270  HIT:    8136843  MISS:      27427
cpu0_L1D RFO       ACCESS:    4313270  HIT:    4305603  MISS:       7667
cpu0_L1D PREFETCH  ACCESS:          0  HIT:          0  MISS:          0
cpu0_L1D WRITEBACK ACCESS:          0  HIT:          0  MISS:          0
cpu0_L2C TOTAL     ACCESS:      60836  HIT:      40396  MISS:      20440
cpu0_L2C LOAD      ACCESS:      29708  HIT:      10938  MISS:      18770
cpu0_L2C RFO       ACCESS:       7666  HIT:       6078  MISS:       1588
cpu0_L2C PREFETCH  ACCESS:          0  HIT:          0  MISS:          0
cpu0_L2C WRITEBACK ACCESS:      23365  HIT:      23290  MISS:         75
LLC TOTAL     ACCESS:      36600  HIT:      17765  MISS:      18835
LLC LOAD      ACCESS:      18770  HIT:       1242  MISS:      17528
LLC RFO       ACCESS:       1588  HIT:        324  MISS:       1264
LLC PREFETCH  ACCESS:          0  HIT:          0  MISS:          0
LLC WRITEBACK ACCESS:      16235  HIT:      16193  MISS:         42
Heartbeat CPU 0 instructions: 100000004 cycles: 72992759 heartbeat IPC: 0.889717 cumulative IPC: 0.82655 (Simulation time: 0 hr 49 min 42 sec) 

Region of Interest Statistics
cpu0_DTLB TOTAL     ACCESS:   10943655  HIT:   10868902  MISS:      74753
cpu0_DTLB LOAD      ACCESS:    8237828  HIT:    8174573  MISS:      63255
cpu0_DTLB RFO       ACCESS:    2705827  HIT:    2694329  MISS:      11498
cpu0_DTLB PREFETCH  ACCESS:          0  HIT:          0  MISS:          0
cpu0_DTLB WRITEBACK ACCESS:          0  HIT:          0  MISS:          0
cpu0_ITLB TOTAL     ACCESS:    4971285  HIT:    4971285  MISS:          0
cpu0_ITLB LOAD      ACCESS:    4971285  HIT:    4971285  MISS:          0
cpu0_ITLB RFO       ACCESS:          0  HIT:          0  MISS:          0
cpu0_ITLB PREFETCH  ACCESS:          0  HIT:          0  MISS:          0
cpu0_ITLB WRITEBACK ACCESS:          0  HIT:          0  MISS:          0
cpu0_L1I TOTAL     ACCESS:    3400814  HIT:    3398433  MISS:       2381
cpu0_L1I LOAD      ACCESS:    3400814  HIT:    3398433  MISS:       2381
cpu0_L1I RFO       ACCESS:          0  HIT:          0  MISS:          0
cpu0_L1I PREFETCH  ACCESS:          0  HIT:          0  MISS:          0
cpu0_L1I WRITEBACK ACCESS:          0  HIT:          0  MISS:          0
cpu0_STLB TOTAL     ACCESS:      74753  HIT:      57570  MISS:      17183
cpu0_STLB LOAD      ACCESS:      63255  HIT:      46156  MISS:      17099
cpu0_STLB RFO       ACCESS:      11498  HIT:      11414  MISS:         84
cpu0_STLB PREFETCH  ACCESS:          0  HIT:          0  MISS:          0
cpu0_STLB WRITEBACK ACCESS:          0  HIT:          0  MISS:          0
cpu0_L1D TOTAL     ACCESS:   13004454  HIT:   12968248  MISS:      36206
cpu0_L1D LOAD      ACCESS:    8487509  HIT:    8459271  MISS:      28238
cpu0_L1D RFO       ACCESS:    4499762  HIT:    4491895  MISS:       7867
cpu0_L1D PREFETCH  ACCESS:          0  HIT:          0  MISS:          0
cpu0_L1D WRITEBACK ACCESS:          0  HIT:          0  MISS:          0
cpu0_L2C TOTAL     ACCESS:      62600  HIT:      41500  MISS:      21100
cpu0_L2C LOAD      ACCESS:      30619  HIT:      11286  MISS:      19333
cpu0_L2C RFO       ACCESS:       7866  HIT:       6194  MISS:       1672
cpu0_L2C PREFETCH  ACCESS:          0  HIT:          0  MISS:          0
cpu0_L2C WRITEBACK ACCESS:      24014  HIT:      23926  MISS:         88
LLC TOTAL     ACCESS:      37788  HIT:      18391  MISS:      19397
LLC LOAD      ACCESS:      19333  HIT:       1283  MISS:      18050
LLC RFO       ACCESS:       1672  HIT:        371  MISS:       1301
LLC PREFETCH  ACCESS:          0  HIT:          0  MISS:          0
LLC WRITEBACK ACCESS:      16776  HIT:      16731  MISS:         45
Heartbeat CPU 0 instructions: 102000000 cycles: 75234644 heartbeat IPC: 0.892105 cumulative IPC: 0.828893 (Simulation time: 0 hr 50 min 43 sec) 

Region of Interest Statistics
cpu0_DTLB TOTAL     ACCESS:   11371600  HIT:   11294827  MISS:      76773
cpu0_DTLB LOAD      ACCESS:    8551248  HIT:    8486365  MISS:      64883
cpu0_DTLB RFO       ACCESS:    2820352  HIT:    2808462  MISS:      11890
cpu0_DTLB PREFETCH  ACCESS:          0  HIT:          0  MISS:          0
cpu0_DTLB WRITEBACK ACCESS:          0  HIT:          0  MISS:          0
cpu0_ITLB TOTAL     ACCESS:    5173450  HIT:    5173450  MISS:          0
cpu0_ITLB LOAD      ACCESS:    5173450  HIT:    5173450  MISS:          0
cpu0_ITLB RFO       ACCESS:          0  HIT:          0  MISS:          0
cpu0_ITLB PREFETCH  ACCESS:          0  HIT:          0  MISS:          0
cpu0_ITLB WRITEBACK ACCESS:          0  HIT:          0  MISS:          0
cpu0_L1I TOTAL     ACCESS:    3514709  HIT:    3512198  MISS:       2511
cpu0_L1I LOAD      ACCESS:    3514709  HIT:    3512198  MISS:       2511
cpu0_L1I RFO       ACCESS:          0  HIT:          0  MISS:          0
cpu0_L1I PREFETCH  ACCESS:          0  HIT:          0  MISS:          0
cpu0_L1I WRITEBACK ACCESS:          0  HIT:          0  MISS:          0
cpu0_STLB TOTAL     ACCESS:      76773  HIT:      59070  MISS:      17703
cpu0_STLB LOAD      ACCESS:      64883  HIT:      47276  MISS:      17607
cpu0_STLB RFO       ACCESS:      11890  HIT:      11794  MISS:         96
cpu0_STLB PREFETCH  ACCESS:          0  HIT:          0  MISS:          0
cpu0_STLB WRITEBACK ACCESS:          0  HIT:          0  MISS:          0
cpu0_L1D TOTAL     ACCESS:   13523944  HIT:   13486703  MISS:      37241
cpu0_L1D LOAD      ACCESS:    8814946  HIT:    8785915  MISS:      29031
cpu0_L1D RFO       ACCESS:    4691295  HIT:    4683192  MISS:       8103
cpu0_L1D PREFETCH  ACCESS:          0  HIT:          0  MISS:          0
cpu0_L1D WRITEBACK ACCESS:          0  HIT:          0  MISS:          0
cpu0_L2C TOTAL     ACCESS:      64416  HIT:      42588  MISS:      21828
cpu0_L2C LOAD      ACCESS:      31542  HIT:      11616  MISS:      19926
cpu0_L2C RFO       ACCESS:       8101  HIT:       6298  MISS:       1803
cpu0_L2C PREFETCH  ACCESS:          0  HIT:          0  MISS:          0
cpu0_L2C WRITEBACK ACCESS:      24666  HIT:      24574  MISS:         92
LLC TOTAL     ACCESS:      39108  HIT:      19052  MISS:      20056
LLC LOAD      ACCESS:      19926  HIT:       1312  MISS:      18614
LLC RFO       ACCESS:       1803  HIT:        409  MISS:       1394
LLC PREFETCH  ACCESS:          0  HIT:          0  MISS:          0
LLC WRITEBACK ACCESS:      17372  HIT:      17325  MISS:         47
Heartbeat CPU 0 instructions: 104000002 cycles: 77518405 heartbeat IPC: 0.875749 cumulative IPC: 0.830539 (Simulation time: 0 hr 51 min 43 sec) 

Region of Interest Statistics
cpu0_DTLB TOTAL     ACCESS:   11796085  HIT:   11717119  MISS:      78966
cpu0_DTLB LOAD      ACCESS:    8865436  HIT:    8798758  MISS:      66678
cpu0_DTLB RFO       ACCESS:    2930649  HIT:    2918361  MISS:      12288
cpu0_DTLB PREFETCH  ACCESS:          0  HIT:          0  MISS:          0
cpu0_DTLB WRITEBACK ACCESS:          0  HIT:          0  MISS:          0
cpu0_ITLB TOTAL     ACCESS:    5378045  HIT:    5378045  MISS:          0
cpu0_ITLB LOAD      ACCESS:    5378045  HIT:    5378045  MISS:          0
cpu0_ITLB RFO       ACCESS:          0  HIT:          0  MISS:          0
cpu0_ITLB PREFETCH  ACCESS:          0  HIT:          0  MISS:          0
cpu0_ITLB WRITEBACK ACCESS:          0  HIT:          0  MISS:          0
cpu0_L1I TOTAL     ACCESS:    3627253  HIT:    3624596  MISS:       2657
cpu0_L1I LOAD      ACCESS:    3627253  HIT:    3624596  MISS:       2657
cpu0_L1I RFO       ACCESS:          0  HIT:          0  MISS:          0
cpu0_L1I PREFETCH  ACCESS:          0  HIT:          0  MISS:          0
cpu0_L1I WRITEBACK ACCESS:          0  HIT:          0  MISS:          0
cpu0_STLB TOTAL     ACCESS:      78966  HIT:      60768  MISS:      18198
cpu0_STLB LOAD      ACCESS:      66678  HIT:      48579  MISS:      18099
cpu0_STLB RFO       ACCESS:      12288  HIT:      12189  MISS:         99
cpu0_STLB PREFETCH  ACCESS:          0  HIT:          0  MISS:          0
cpu0_STLB WRITEBACK ACCESS:          0  HIT:          0  MISS:          0
cpu0_L1D TOTAL     ACCESS:   14034503  HIT:   13996031  MISS:      38472
cpu0_L1D LOAD      ACCESS:    9140059  HIT:    9110081  MISS:      29978
cpu0_L1D RFO       ACCESS:    4876246  HIT:    4867865  MISS:       8381
cpu0_L1D PREFETCH  ACCESS:          0  HIT:          0  MISS:          0
cpu0_L1D WRITEBACK ACCESS:          0  HIT:          0  MISS:          0
cpu0_L2C TOTAL     ACCESS:      66622  HIT:      44188  MISS:      22434
cpu0_L2C LOAD      ACCESS:      32635  HIT:      12165  MISS:      20470
cpu0_L2C RFO       ACCESS:       8379  HIT:       6515  MISS:       1864
cpu0_L2C PREFETCH  ACCESS:          0  HIT:          0  MISS:          0
cpu0_L2C WRITEBACK ACCESS:      25495  HIT:      25402  MISS:         93
LLC TOTAL     ACCESS:      40211  HIT:      19565  MISS:      20646
LLC LOAD      ACCESS:      20470  HIT:       1330  MISS:      19140
LLC RFO       ACCESS:       1864  HIT:        413  MISS:       1451
LLC PREFETCH  ACCESS:          0  HIT:          0  MISS:          0
LLC WRITEBACK ACCESS:      17870  HIT:      17816  MISS:         54
Heartbeat CPU 0 instructions: 106000000 cycles: 79715554 heartbeat IPC: 0.91027 cumulative IPC: 0.833145 (Simulation time: 0 hr 52 min 42 sec) 

Region of Interest Statistics
cpu0_DTLB TOTAL     ACCESS:   12218467  HIT:   12137382  MISS:      81085
cpu0_DTLB LOAD      ACCESS:    9176483  HIT:    9108087  MISS:      68396
cpu0_DTLB RFO       ACCESS:    3041984  HIT:    3029295  MISS:      12689
cpu0_DTLB PREFETCH  ACCESS:          0  HIT:          0  MISS:          0
cpu0_DTLB WRITEBACK ACCESS:          0  HIT:          0  MISS:          0
cpu0_ITLB TOTAL     ACCESS:    5584978  HIT:    5584978  MISS:          0
cpu0_ITLB LOAD      ACCESS:    5584978  HIT:    5584978  MISS:          0
cpu0_ITLB RFO       ACCESS:          0  HIT:          0  MISS:          0
cpu0_ITLB PREFETCH  ACCESS:          0  HIT:          0  MISS:          0
cpu0_ITLB WRITEBACK ACCESS:          0  HIT:          0  MISS:          0
cpu0_L1I TOTAL     ACCESS:    3729838  HIT:    3727034  MISS:       2804
cpu0_L1I LOAD      ACCESS:    3729838  HIT:    3727034  MISS:       2804
cpu0_L1I RFO       ACCESS:          0  HIT:          0  MISS:          0
cpu0_L1I PREFETCH  ACCESS:          0  HIT:          0  MISS:          0
cpu0_L1I WRITEBACK ACCESS:          0  HIT:          0  MISS:          0
cpu0_STLB TOTAL     ACCESS:      81085  HIT:      62435  MISS:      18650
cpu0_STLB LOAD      ACCESS:      68396  HIT:      49845  MISS:      18551
cpu0_STLB RFO       ACCESS:      12689  HIT:      12590  MISS:         99
cpu0_STLB PREFETCH  ACCESS:          0  HIT:          0  MISS:          0
cpu0_STLB WRITEBACK ACCESS:          0  HIT:          0  MISS:          0
cpu0_L1D TOTAL     ACCESS:   14541641  HIT:   14502001  MISS:      39640
cpu0_L1D LOAD      ACCESS:    9461205  HIT:    9430344  MISS:      30861
cpu0_L1D RFO       ACCESS:    5061786  HIT:    5053121  MISS:       8665
cpu0_L1D PREFETCH  ACCESS:          0  HIT:          0  MISS:          0
cpu0_L1D WRITEBACK ACCESS:          0  HIT:          0  MISS:          0
cpu0_L2C TOTAL     ACCESS:      68667  HIT:      45705  MISS:      22962
cpu0_L2C LOAD      ACCESS:      33665  HIT:      12688  MISS:      20977
cpu0_L2C RFO       ACCESS:       8662  HIT:       6777  MISS:       1885
cpu0_L2C PREFETCH  ACCESS:          0  HIT:          0  MISS:          0
cpu0_L2C WRITEBACK ACCESS:      26226  HIT:      26133  MISS:         93
LLC TOTAL     ACCESS:      41160  HIT:      20010  MISS:      21150
[...]
cpu0_DTLB RFO       ACCESS:   81618257  HIT:   81303921  MISS:     314336
cpu0_DTLB PREFETCH  ACCESS:          0  HIT:          0  MISS:          0
cpu0_DTLB WRITEBACK ACCESS:          0  HIT:          0  MISS:          0
cpu0_DTLB TRANSLATION ACCESS:          0  HIT:          0  MISS:          0
cpu0_DTLB PREFETCH  REQUESTED:          0  ISSUED:          0  USEFUL:          0  USELESS:          0
cpu0_DTLB AVERAGE MISS LATENCY: 14.0418 cycles
cpu0_ITLB TOTAL     ACCESS:  150965146  HIT:  150965144  MISS:          2
cpu0_ITLB LOAD      ACCESS:  150965146  HIT:  150965144  MISS:          2
cpu0_ITLB RFO       ACCESS:          0  HIT:          0  MISS:          0
cpu0_ITLB PREFETCH  ACCESS:          0  HIT:          0  MISS:          0
cpu0_ITLB WRITEBACK ACCESS:          0  HIT:          0  MISS:          0
cpu0_ITLB TRANSLATION ACCESS:          0  HIT:          0  MISS:          0
cpu0_ITLB PREFETCH  REQUESTED:          0  ISSUED:          0  USEFUL:          0  USELESS:          0
cpu0_ITLB AVERAGE MISS LATENCY: 222.5 cycles
cpu0_L1I TOTAL     ACCESS:   95479406  HIT:   95408767  MISS:      70639
cpu0_L1I LOAD      ACCESS:   95479406  HIT:   95408767  MISS:      70639
cpu0_L1I RFO       ACCESS:          0  HIT:          0  MISS:          0
cpu0_L1I PREFETCH  ACCESS:          0  HIT:          0  MISS:          0
cpu0_L1I WRITEBACK ACCESS:          0  HIT:          0  MISS:          0
cpu0_L1I TRANSLATION ACCESS:          0  HIT:          0  MISS:          0
cpu0_L1I PREFETCH  REQUESTED:          0  ISSUED:          0  USEFUL:          0  USELESS:          0
cpu0_L1I AVERAGE MISS LATENCY: 11.7684 cycles
cpu0_STLB TOTAL     ACCESS:    1973513  HIT:    1541964  MISS:     431549
cpu0_STLB LOAD      ACCESS:    1659177  HIT:    1229704  MISS:     429473
cpu0_STLB RFO       ACCESS:     314336  HIT:     312260  MISS:       2076
cpu0_STLB PREFETCH  ACCESS:          0  HIT:          0  MISS:          0
cpu0_STLB WRITEBACK ACCESS:          0  HIT:          0  MISS:          0
cpu0_STLB TRANSLATION ACCESS:          0  HIT:          0  MISS:          0
cpu0_STLB PREFETCH  REQUESTED:          0  ISSUED:          0  USEFUL:          0  USELESS:          0
cpu0_STLB AVERAGE MISS LATENCY: 23.0288 cycles
cpu0_L1D TOTAL     ACCESS:  386081143  HIT:  385119825  MISS:     961318
cpu0_L1D LOAD      ACCESS:  250116654  HIT:  249383801  MISS:     732853
cpu0_L1D RFO       ACCESS:  135532967  HIT:  135308509  MISS:     224458
cpu0_L1D PREFETCH  ACCESS:          0  HIT:          0  MISS:          0
cpu0_L1D WRITEBACK ACCESS:          0  HIT:          0  MISS:          0
cpu0_L1D TRANSLATION ACCESS:     431522  HIT:     427515  MISS:       4007
cpu0_L1D PREFETCH  REQUESTED:          0  ISSUED:          0  USEFUL:          0  USELESS:          0
cpu0_L1D AVERAGE MISS LATENCY: 104.929 cycles
cpu0_L2C TOTAL     ACCESS:    1653576  HIT:    1128828  MISS:     524748
cpu0_L2C LOAD      ACCESS:     803489  HIT:     320352  MISS:     483137
cpu0_L2C RFO       ACCESS:     224432  HIT:     184566  MISS:      39866
cpu0_L2C PREFETCH  ACCESS:          0  HIT:          0  MISS:          0
cpu0_L2C WRITEBACK ACCESS:     621648  HIT:     620135  MISS:       1513
cpu0_L2C TRANSLATION ACCESS:       4007  HIT:       3775  MISS:        232
cpu0_L2C PREFETCH  REQUESTED:          0  ISSUED:          0  USEFUL:          0  USELESS:          0
cpu0_L2C AVERAGE MISS LATENCY: 172.16 cycles
LLC TOTAL     ACCESS:     928930  HIT:     433637  MISS:     495293
LLC LOAD      ACCESS:     483137  HIT:      29491  MISS:     453646
LLC RFO       ACCESS:      39866  HIT:       7871  MISS:      31995
LLC PREFETCH  ACCESS:          0  HIT:          0  MISS:          0
LLC WRITEBACK ACCESS:     405695  HIT:     396071  MISS:       9624
LLC TRANSLATION ACCESS:        232  HIT:        204  MISS:         28
LLC PREFETCH  REQUESTED:          0  ISSUED:          0  USEFUL:          0  USELESS:          0
LLC AVERAGE MISS LATENCY: 160.214 cycles
~~~~~~~~~~Reuse Distance Profiler output~~~~~~~~~~
0	62151968	18451728
1	31628640	16036000
2	20915600	11728992
3	18316208	12358256
4	13970800	9933664
5	10820864	7814272
6	9813392	6601536
7	9289008	6176208
8	8394608	5797024
9	8375264	5874032
10	6624304	4465456
11	6172912	4529664
12	5424352	3705568
13	5279552	3463408
14	4580672	2674960
15	4287536	3070352
16	3489200	2529200
17	3765728	2687968
18	3329488	2528528
19	2972592	2190176
20	3177024	2490096
21	3111456	2209184
22	3028144	2125136
23	2844064	2212656
24	2830768	2269312
25	3224448	2705264
26	3326608	2638464
27	3100240	2511760
28	3296560	2814560
29	2723584	2259776
30	2601824	1946544
31	2284848	1812064
32	2097696	1652432
33	2111312	1646272
34	2021808	1433168
35	1930656	1377296
36	1726400	1324112
37	1650928	1142480
38	1684080	1220816
39	1743408	1142576
40	1443856	1091056
41	1394064	1104480
42	1420288	1085712
43	1452896	1034064
44	1341984	931472
45	1299376	922032
46	1303040	886352
47	1110656	807120
48	1046864	802112
49	999152	763920
50	979168	762448
51	897696	674128
52	868848	671888
53	909776	726144
54	936528	757632
55	969088	786064
56	982304	804064
57	959616	764896
58	1004272	815328
59	1011520	814416
60	1054672	794192
61	954800	759584
62	961168	743376
63	978704	717840
64	1819968	1411696
66	1735648	1304176
68	1604272	1114832
70	1564768	1028912
72	1516992	1005728
74	1473904	995376
76	1434320	977152
78	1384496	972048
80	1402912	996064
82	1358624	975472
84	1263056	921024
86	1178704	849664
88	1093280	810848
90	1044704	796416
92	1006128	764048
94	953552	719840
96	874064	651216
98	787584	600368
100	719872	568288
102	622160	497952
104	557920	459888
106	534640	456160
108	508912	444224
110	527424	468272
112	558208	506880
114	611184	556432
116	619008	566896
118	558672	503040
120	487232	433232
122	475600	420512
124	451936	393520
126	434976	378464
128	847392	739840
132	830816	734592
136	837776	739072
140	939008	817920
144	1112880	944224
148	1176960	995552
152	1050736	889056
156	833008	701136
160	711008	597200
164	616112	523328
168	535536	455440
172	473168	402864
176	436656	377328
180	403264	351792
184	373968	329792
188	343664	305136
192	342112	306656
196	338928	305456
200	336336	306256
204	341424	309648
208	336960	304880
212	331184	299808
216	302960	274400
220	277472	252368
224	255360	232816
228	241184	218512
232	232432	211840
236	221440	201360
240	206960	185520
244	198928	179184
248	187408	170272
252	174816	158096
256	329216	296096
264	317792	283072
272	308928	271952
280	304880	267024
288	294368	258496
296	294672	258592
304	279040	242928
312	257504	223344
320	226160	195424
328	223072	193808
336	215392	188128
344	206592	181552
352	205760	179296
360	194304	169232
368	181472	157088
376	169952	146576
384	168176	142976
392	164560	137424
400	157360	131408
408	155632	130704
416	154384	129104
424	149232	125728
432	151856	128944
440	150112	128128
448	149040	127440
456	144256	123712
464	140080	120800
472	140176	121712
480	143840	124976
488	144512	125856
496	138080	119952
504	135600	118224
512	275088	240048
528	252752	220096
544	240896	208016
560	233696	201344
576	232320	197056
592	246272	210176
608	250256	215232
624	258592	219616
640	264624	230032
656	282448	244880
672	285696	248320
688	295920	255072
704	304656	263728
720	308992	269872
736	323488	280992
752	315104	274720
768	317120	276800
784	308848	268768
800	309792	270912
816	311008	272208
832	314064	271616
848	292624	253280
864	280608	243664
880	268400	235984
896	255872	226656
912	254448	226352
928	242976	213056
944	239776	211088
960	238944	211344
976	240768	211792
992	262464	230832
1008	238032	209280
1024	441632	395968
1056	378704	341360
1088	350624	315472
1120	333312	299504
1152	351888	316624
1184	329840	296208
1216	315664	283536
1248	316464	283424
1280	310704	278192
1312	308448	274688
1344	300464	266816
1376	300048	264624
1408	291856	258080
1440	287200	251680
1472	281264	246288
1504	274768	238608
1536	279520	244480
1568	260768	227488
1600	247184	214576
1632	232912	201248
1664	217840	187888
1696	207232	175840
1728	191248	161984
1760	173488	146256
1792	168064	142032
1824	152976	129360
1856	140048	117440
1888	131968	110112
1920	118640	98864
1952	113472	93808
1984	111680	92912
2016	104912	86784
2048	193568	160864
2112	175264	143632
2176	166128	134672
2240	159040	127952
2304	154640	124448
2368	146896	118800
2432	141952	115632
2496	135344	109584
2560	135136	107520
2624	135504	108496
2688	128496	102112
2752	127152	101424
2816	119472	96608
2880	115024	93152
2944	111024	90592
3008	104016	84192
3072	100304	81104
3136	98336	80512
3200	94800	76368
3264	90720	73168
3328	86528	68896
3392	84256	66384
3456	80912	63904
3520	80288	63648
3584	75632	58784
3648	76768	59728
3712	74816	58416
3776	76048	60336
3840	74176	57696
3904	72160	55520
3968	73984	57296
4032	69648	54064
4096	139584	107648
4224	136704	105792
4352	129088	100144
4480	126464	96544
4608	121120	92496
4736	121568	92896
4864	119120	92480
4992	117696	90448
5120	115360	89728
5248	109664	85056
5376	108976	83760
5504	105424	81216
5632	105680	82064
5760	100464	77408
5888	99152	77520
6016	97216	75248
6144	92544	71648
6272	91728	71232
6400	89552	69712
6528	85952	66480
6656	85184	67520
6784	78320	61776
6912	79536	61920
7040	77968	61488
7168	75040	58048
7296	71952	56624
7424	69488	53344
7552	66736	52624
7680	64000	49984
7808	62960	49120
7936	61392	46608
8064	60688	46320
8192	113376	88416
8448	106512	82016
8704	100256	77856
8960	93952	72608
9216	88688	69440
9472	81664	62720
9728	81216	61856
9984	72160	54704
10240	68800	51856
10496	66880	49680
10752	61632	45152
11008	58016	43088
11264	54464	38912
11520	52176	38576
11776	50896	35712
12032	50768	36304
12288	48800	34640
12544	47968	33824
12800	45120	31648
13056	44576	30672
13312	43344	30640
13568	44128	30640
13824	43504	29808
14080	44320	30592
14336	42272	29312
14592	41440	28080
14848	39776	27584
15104	38832	26672
15360	39760	26688
15616	38560	26144
15872	35680	24512
16128	36576	24944
16384	67728	45472
16896	67712	45840
17408	59568	41360
17920	55168	37600
18432	51488	34608
18944	47968	32128
19456	43488	28544
19968	42192	28032
20480	37984	25312
20992	36288	23760
21504	36016	23840
22016	34160	22224
22528	32720	21200
23040	30224	19200
23552	30656	19472
24064	29520	18624
24576	26672	17712
25088	27328	17600
25600	26256	16304
26112	25296	16240
26624	22896	14928
27136	23840	15008
27648	23136	14976
28160	20480	13072
28672	21056	13520
29184	19824	12496
29696	21152	13056
30208	19424	12224
30720	18144	11104
31232	17536	10432
31744	17088	10832
32256	16352	10000
32768	31968	19904
33792	29120	18336
34816	28512	17664
35840	27744	16576
36864	25392	15776
37888	24736	15696
38912	23136	14208
39936	22672	13552
40960	21456	12640
41984	19568	11520
43008	17872	11008
44032	18496	11152
45056	16992	10368
46080	16928	9824
47104	15936	9104
48128	15248	8960
49152	13696	7664
50176	14608	8464
51200	12912	7552
52224	12528	7568
53248	13216	7376
54272	13088	7872
55296	11824	7104
56320	11008	6224
57344	11072	6336
58368	10752	5824
59392	9472	5536
60416	9792	5440
61440	10144	6080
62464	8816	5120
63488	9152	5232
64512	8864	5088
65536	17616	10080
67584	15888	9328
69632	16144	8928
71680	15248	8208
73728	13552	7600
75776	12960	7088
77824	12336	7088
79872	11568	6464
81920	10368	5888
83968	11472	6208
86016	10064	5664
88064	9216	5120
90112	9088	5024
92160	8592	4176
94208	9104	4640
96256	8128	4320
98304	7344	4000
100352	7312	3808
102400	6592	3600
104448	6144	3408
106496	6576	3488
108544	6448	3408
110592	6448	3328
112640	5648	2928
114688	5184	3040
116736	5632	2992
118784	5152	2832
120832	5184	2768
122880	5392	2928
124928	4896	2816
126976	5024	3232
129024	4400	2352
131072	10432	5184
135168	9360	5200
139264	8096	4672
143360	7904	4208
147456	7440	4128
151552	7632	4368
155648	6304	3328
159744	6272	3664
163840	6336	3728
167936	6576	3616
172032	5712	3152
176128	5856	3296
180224	5056	2752
184320	4688	2592
188416	5136	2880
192512	5024	2656
196608	4256	2480
200704	4960	2432
204800	4336	2480
208896	4880	2848
212992	4256	2672
217088	4096	2176
221184	3616	1952
225280	4048	2240
229376	3584	2096
233472	3520	2064
237568	3392	1808
241664	3664	1776
245760	3536	2144
249856	3136	1728
253952	2800	1600
258048	3344	2016
262144	5584	3376
270336	5456	2528
278528	5440	3056
286720	4960	2816
294912	4560	2688
303104	4848	2688
311296	4624	2592
319488	4048	2352
327680	4048	2320
335872	4000	2112
344064	3328	1952
352256	3184	2096
360448	2928	1920
368640	3360	2064
376832	3200	1792
385024	3472	2224
393216	2672	1680
401408	2832	1952
409600	2080	1232
417792	2864	1808
425984	3024	1680
434176	2432	1440
442368	2480	1424
450560	2448	1360
458752	2496	1392
466944	2176	1264
475136	2080	1184
483328	2048	1184
491520	2368	1232
499712	1968	1104
507904	1840	1008
516096	1776	976
524288	4144	2624
540672	3264	2000
557056	3440	2336
573440	3536	2192
589824	3232	1968
606208	2688	1696
622592	2640	1680
638976	2240	1472
655360	2720	1904
671744	2352	1440
688128	2544	1520
704512	2384	1440
720896	2224	1312
737280	2144	1456
753664	2112	1408
770048	2224	1328
786432	1616	976
802816	1856	1072
819200	1584	960
835584	1648	1104
851968	1680	864
868352	1760	1088
884736	1520	976
901120	1712	1104
917504	1360	864
933888	1264	912
950272	1344	800
966656	1664	944
983040	1568	976
999424	1520	992
1015808	1536	1040
1032192	1600	1152
1048576	2688	1568
1081344	2784	1840
1114112	2384	1488
1146880	1792	1200
1179648	1968	1280
1212416	1888	1328
1245184	2256	1456
1277952	1520	992
1310720	1472	912
1343488	1328	864
1376256	1584	1120
1409024	1536	1024
1441792	1696	1104
1474560	1216	768
1507328	1280	752
1540096	1120	720
1572864	880	576
1605632	1376	832
1638400	1152	848
1671168	992	624
1703936	960	736
1736704	752	496
1769472	928	592
1802240	960	608
1835008	960	672
1867776	880	576
1900544	1136	848
1933312	832	448
1966080	864	528
1998848	736	448
2031616	688	448
2064384	800	528
2097152	1152	816
2162688	1120	784
2228224	1216	784
2293760	960	704
2359296	1424	1072
2424832	1088	784
2490368	928	672
2555904	1040	768
2621440	848	464
2686976	512	352
2752512	1072	752
2818048	1136	896
2883584	768	592
2949120	656	528
3014656	560	400
3080192	928	656
3145728	688	480
3211264	560	336
3276800	320	240
3342336	432	304
3407872	544	384
3473408	624	512
3538944	720	416
3604480	576	336
3670016	480	336
3735552	640	432
3801088	592	416
3866624	576	400
3932160	464	352
3997696	400	272
4063232	480	336
4128768	512	368
4194304	784	608
4325376	928	672
4456448	800	448
4587520	656	368
4718592	672	496
4849664	928	736
4980736	784	480
5111808	672	464
5242880	448	272
5373952	496	368
5505024	672	528
5636096	528	400
5767168	464	304
5898240	592	448
6029312	480	448
6160384	656	448
6291456	448	352
6422528	576	384
6553600	416	352
6684672	272	192
6815744	432	320
6946816	336	192
7077888	672	576
7208960	624	480
7340032	336	272
7471104	352	192
7602176	336	272
7733248	352	240
7864320	352	320
7995392	208	208
8126464	464	352
8257536	336	224
8388608	560	464
8650752	624	496
8912896	528	432
9175040	576	480
9437184	560	432
9699328	704	592
9961472	496	400
10223616	336	320
10485760	416	320
10747904	352	272
11010048	528	416
11272192	288	240
11534336	560	480
11796480	432	272
12058624	256	256
12320768	352	272
12582912	320	256
12845056	352	304
13107200	352	304
13369344	208	176
13631488	304	272
13893632	208	176
14155776	288	272
14417920	336	240
14680064	336	272
14942208	304	256
15204352	240	192
15466496	240	224
15728640	320	304
15990784	320	320
16252928	224	224
16515072	368	288
16777216	400	352
17301504	496	368
17825792	384	288
18350080	432	416
18874368	560	448
19398656	576	512
19922944	448	368
20447232	464	400
20971520	544	432
21495808	624	560
22020096	480	400
22544384	480	368
23068672	464	384
23592960	432	400
24117248	496	432
24641536	320	288
25165824	400	336
25690112	384	352
26214400	320	304
26738688	224	224
27262976	416	368
27787264	496	480
28311552	400	352
28835840	576	560
29360128	320	320
29884416	544	416
30408704	192	176
30932992	480	304
31457280	480	432
31981568	400	368
32505856	304	256
33030144	224	192
33554432	560	496
34603008	688	672
35651584	1040	960
36700160	832	736
37748736	752	656
38797312	608	544
39845888	464	384
40894464	656	608
41943040	288	256
42991616	608	496
44040192	672	512
45088768	432	368
46137344	368	336
47185920	560	544
48234496	624	560
49283072	432	384
50331648	560	528
51380224	512	416
52428800	448	416
53477376	480	464
54525952	448	416
55574528	320	272
56623104	592	544
57671680	480	464
58720256	640	544
59768832	400	336
60817408	432	416
61865984	368	336
62914560	432	416
63963136	496	448
65011712	464	464
66060288	560	496
67108864	720	704
69206016	752	720
71303168	832	688
73400320	912	864
75497472	912	864
77594624	768	688
79691776	928	800
81788928	448	416
83886080	736	656
85983232	784	736
88080384	832	736
90177536	656	640
92274688	656	592
94371840	720	688
96468992	864	768
98566144	704	672
100663296	768	720
102760448	832	784
104857600	576	560
106954752	496	464
109051904	816	768
111149056	784	720
113246208	656	640
115343360	576	496
117440512	656	608
119537664	672	608
121634816	752	688
123731968	768	656
125829120	624	560
127926272	656	608
130023424	592	528
132120576	624	592
134217728	1072	992
138412032	1200	1088
142606336	1024	960
146800640	1328	1296
150994944	992	928
155189248	1104	1040
159383552	864	784
163577856	1216	1168
167772160	1104	992
171966464	1040	960
176160768	880	800
180355072	832	784
184549376	976	912
188743680	880	832
192937984	1008	944
197132288	800	768
201326592	736	672
205520896	672	624
209715200	608	592
213909504	752	656
218103808	672	608
222298112	576	544
226492416	688	608
230686720	656	608
234881024	768	656
239075328	640	624
243269632	528	464
247463936	608	576
251658240	512	480
255852544	336	320
260046848	608	544
264241152	672	592
268435456	976	848
276824064	832	656
285212672	656	608
293601280	672	624
301989888	752	736
310378496	736	640
318767104	496	480
327155712	368	352
335544320	448	432
343932928	368	352
352321536	304	288
360710144	224	192
369098752	192	192
377487360	128	96
385875968	64	64
394264576	0	0
402653184	0	0
411041792	0	0
419430400	0	0
427819008	0	0
436207616	0	0
444596224	0	0
452984832	0	0
461373440	0	0
469762048	0	0
478150656	0	0
486539264	0	0
494927872	0	0
503316480	0	0
511705088	0	0
520093696	0	0
528482304	0	0
536870912	0	0
553648128	0	0
570425344	0	0
587202560	0	0
603979776	0	0
620756992	0	0
637534208	0	0
654311424	0	0
671088640	0	0
687865856	0	0
704643072	0	0
721420288	0	0
738197504	0	0
754974720	0	0
771751936	0	0
788529152	0	0
805306368	0	0
822083584	0	0
838860800	0	0
855638016	0	0
872415232	0	0
889192448	0	0
905969664	0	0
922746880	0	0
939524096	0	0
956301312	0	0
973078528	0	0
989855744	0	0
1006632960	0	0
1023410176	0	0
1040187392	0	0
1056964608	0	0
1073741824	0	0
1107296256	0	0
1140850688	0	0
1174405120	0	0
1207959552	0	0
1241513984	0	0
1275068416	0	0
1308622848	0	0
1342177280	0	0
1375731712	0	0
1409286144	0	0
1442840576	0	0
1476395008	0	0
1509949440	0	0
1543503872	0	0
1577058304	0	0
1610612736	0	0
1644167168	0	0
1677721600	0	0
1711276032	0	0
1744830464	0	0
1778384896	0	0
1811939328	0	0
1845493760	0	0
1879048192	0	0
1912602624	0	0
1946157056	0	0
1979711488	0	0
2013265920	0	0
2046820352	0	0
2080374784	0	0
2113929216	0	0
2147483648	0	0
2214592512	0	0
2281701376	0	0
2348810240	0	0
2415919104	0	0
2483027968	0	0
2550136832	0	0
2617245696	0	0
2684354560	0	0
2751463424	0	0
2818572288	0	0
2885681152	0	0
2952790016	0	0
3019898880	0	0
3087007744	0	0
3154116608	0	0
3221225472	0	0
3288334336	0	0
3355443200	0	0
3422552064	0	0
3489660928	0	0
3556769792	0	0
3623878656	0	0
3690987520	0	0
3758096384	0	0
3825205248	0	0
3892314112	0	0
3959422976	0	0
4026531840	0	0
4093640704	0	0
4160749568	0	0
4227858432	0	0
~~~~~~~~~~Reuse Distance Profiler output end~~~~~~~~~~

Sampler size:26804

DRAM Statistics
 CHANNEL 0
 RQ ROW_BUFFER_HIT:         81  ROW_BUFFER_MISS:     485587
 DBUS AVG_CONGESTED_CYCLE:    3.73783
 WQ ROW_BUFFER_HIT:      12755  ROW_BUFFER_MISS:     362472  FULL:          0


CPU 0 Branch Prediction Accuracy: 86.8395% MPKI: 29.8479 Average ROB Occupancy at Mispredict: 16.299
Branch type MPKI
BRANCH_DIRECT_JUMP: 2.33333e-05
BRANCH_INDIRECT: 0.656315
BRANCH_CONDITIONAL: 28.9849
BRANCH_DIRECT_CALL: 1.06667e-05
BRANCH_INDIRECT_CALL: 0.206729
BRANCH_RETURN: 1.13333e-05

