
*** ChampSim Multicore Out-of-Order Simulator ***

Warmup Instructions: 50000000
Simulation Instructions: 1500000000
Number of CPUs: 1
Off-chip DRAM Size: 4 GiB Channels: 1 Width: 64-bit Data Rate: 3200 MT/s

VirtualMemory physical capacity: 8588881920 num_ppages: 2096895
VirtualMemory page size: 4096 log2_page_size: 12

CPU 0 runs /s/traces/champsim_traces/459.GemsFDTD-765B.champsimtrace.xz
CPU 0 Bimodal branch predictor
Basic BTB sets: 1024 ways: 8 indirect buffer size: 4096 RAS size: 64
Initializing LRU.
Initializing LRU.
Initializing LRU.
Initializing LRU.
Initializing rdLRU.
Initializing LRU.
Heartbeat CPU 0 instructions: 2000003 cycles: 1090525 heartbeat IPC: 1.83398 cumulative IPC: 1.83398 (Simulation time: 0 hr 2 min 47 sec) 
Heartbeat CPU 0 instructions: 4000000 cycles: 2180922 heartbeat IPC: 1.83419 cumulative IPC: 1.83409 (Simulation time: 0 hr 5 min 47 sec) 
Heartbeat CPU 0 instructions: 6000001 cycles: 3271334 heartbeat IPC: 1.83417 cumulative IPC: 1.83411 (Simulation time: 0 hr 8 min 36 sec) 
Heartbeat CPU 0 instructions: 8000001 cycles: 4361733 heartbeat IPC: 1.83419 cumulative IPC: 1.83413 (Simulation time: 0 hr 11 min 33 sec) 
Heartbeat CPU 0 instructions: 10000000 cycles: 5452119 heartbeat IPC: 1.83421 cumulative IPC: 1.83415 (Simulation time: 0 hr 14 min 29 sec) 
Heartbeat CPU 0 instructions: 12000001 cycles: 6542527 heartbeat IPC: 1.83418 cumulative IPC: 1.83415 (Simulation time: 0 hr 17 min 25 sec) 
Heartbeat CPU 0 instructions: 14000001 cycles: 7632932 heartbeat IPC: 1.83418 cumulative IPC: 1.83416 (Simulation time: 0 hr 20 min 21 sec) 
Heartbeat CPU 0 instructions: 16000001 cycles: 8723337 heartbeat IPC: 1.83418 cumulative IPC: 1.83416 (Simulation time: 0 hr 23 min 13 sec) 
Heartbeat CPU 0 instructions: 18000000 cycles: 9813726 heartbeat IPC: 1.83421 cumulative IPC: 1.83417 (Simulation time: 0 hr 26 min 6 sec) 
Heartbeat CPU 0 instructions: 20000004 cycles: 10904113 heartbeat IPC: 1.83421 cumulative IPC: 1.83417 (Simulation time: 0 hr 28 min 56 sec) 
Heartbeat CPU 0 instructions: 22000000 cycles: 11994536 heartbeat IPC: 1.83415 cumulative IPC: 1.83417 (Simulation time: 0 hr 31 min 46 sec) 
Heartbeat CPU 0 instructions: 24000000 cycles: 13084926 heartbeat IPC: 1.83421 cumulative IPC: 1.83417 (Simulation time: 0 hr 34 min 38 sec) 
Heartbeat CPU 0 instructions: 26000003 cycles: 14175324 heartbeat IPC: 1.8342 cumulative IPC: 1.83417 (Simulation time: 0 hr 37 min 28 sec) 
Heartbeat CPU 0 instructions: 28000000 cycles: 15265709 heartbeat IPC: 1.83421 cumulative IPC: 1.83418 (Simulation time: 0 hr 40 min 14 sec) 
Heartbeat CPU 0 instructions: 30000000 cycles: 16356126 heartbeat IPC: 1.83416 cumulative IPC: 1.83418 (Simulation time: 0 hr 43 min 0 sec) 
Heartbeat CPU 0 instructions: 32000002 cycles: 17446523 heartbeat IPC: 1.8342 cumulative IPC: 1.83418 (Simulation time: 0 hr 45 min 44 sec) 
Heartbeat CPU 0 instructions: 34000003 cycles: 18536907 heartbeat IPC: 1.83422 cumulative IPC: 1.83418 (Simulation time: 0 hr 48 min 24 sec) 
Heartbeat CPU 0 instructions: 36000002 cycles: 19627317 heartbeat IPC: 1.83417 cumulative IPC: 1.83418 (Simulation time: 0 hr 51 min 6 sec) 
Heartbeat CPU 0 instructions: 38000002 cycles: 20717701 heartbeat IPC: 1.83422 cumulative IPC: 1.83418 (Simulation time: 0 hr 53 min 49 sec) 
Heartbeat CPU 0 instructions: 40000000 cycles: 21808128 heartbeat IPC: 1.83414 cumulative IPC: 1.83418 (Simulation time: 0 hr 56 min 36 sec) 
Heartbeat CPU 0 instructions: 42000003 cycles: 22898513 heartbeat IPC: 1.83422 cumulative IPC: 1.83418 (Simulation time: 0 hr 59 min 28 sec) 
Heartbeat CPU 0 instructions: 44000001 cycles: 23988914 heartbeat IPC: 1.83419 cumulative IPC: 1.83418 (Simulation time: 1 hr 2 min 14 sec) 
Heartbeat CPU 0 instructions: 46000001 cycles: 25079300 heartbeat IPC: 1.83421 cumulative IPC: 1.83418 (Simulation time: 1 hr 5 min 2 sec) 
Heartbeat CPU 0 instructions: 48000000 cycles: 26304409 heartbeat IPC: 1.63251 cumulative IPC: 1.82479 (Simulation time: 1 hr 8 min 22 sec) 
Heartbeat CPU 0 instructions: 50000003 cycles: 27642161 heartbeat IPC: 1.49505 cumulative IPC: 1.80883 (Simulation time: 1 hr 12 min 11 sec) 

Warmup complete CPU 0 instructions: 50000003 cycles: 27642161 (Simulation time: 1 hr 12 min 11 sec) 

Heartbeat CPU 0 instructions: 52000004 cycles: 39879294 heartbeat IPC: 0.163437 cumulative IPC: 0.163437 (Simulation time: 1 hr 25 min 15 sec) 

Region of Interest Statistics
cpu0_DTLB TOTAL     ACCESS:    1036405  HIT:     992366  MISS:      44039
cpu0_DTLB LOAD      ACCESS:     959453  HIT:     915585  MISS:      43868
cpu0_DTLB RFO       ACCESS:      76952  HIT:      76781  MISS:        171
cpu0_DTLB PREFETCH  ACCESS:          0  HIT:          0  MISS:          0
cpu0_DTLB WRITEBACK ACCESS:          0  HIT:          0  MISS:          0
cpu0_ITLB TOTAL     ACCESS:       2718  HIT:       2718  MISS:          0
cpu0_ITLB LOAD      ACCESS:       2718  HIT:       2718  MISS:          0
cpu0_ITLB RFO       ACCESS:          0  HIT:          0  MISS:          0
cpu0_ITLB PREFETCH  ACCESS:          0  HIT:          0  MISS:          0
cpu0_ITLB WRITEBACK ACCESS:          0  HIT:          0  MISS:          0
cpu0_STLB TOTAL     ACCESS:      44039  HIT:       7737  MISS:      36302
cpu0_STLB LOAD      ACCESS:      43868  HIT:       7569  MISS:      36299
cpu0_STLB RFO       ACCESS:        171  HIT:        168  MISS:          3
cpu0_STLB PREFETCH  ACCESS:          0  HIT:          0  MISS:          0
cpu0_STLB WRITEBACK ACCESS:          0  HIT:          0  MISS:          0
cpu0_L1D TOTAL     ACCESS:    1155223  HIT:    1016092  MISS:     139131
cpu0_L1D LOAD      ACCESS:    1041563  HIT:     902479  MISS:     139084
cpu0_L1D RFO       ACCESS:      77383  HIT:      77383  MISS:          0
cpu0_L1D PREFETCH  ACCESS:          0  HIT:          0  MISS:          0
cpu0_L1D WRITEBACK ACCESS:          0  HIT:          0  MISS:          0
cpu0_L2C TOTAL     ACCESS:     200646  HIT:      85299  MISS:     115347
cpu0_L2C LOAD      ACCESS:     139084  HIT:      23768  MISS:     115316
cpu0_L2C RFO       ACCESS:          0  HIT:          0  MISS:          0
cpu0_L2C PREFETCH  ACCESS:          0  HIT:          0  MISS:          0
cpu0_L2C WRITEBACK ACCESS:      61515  HIT:      61515  MISS:          0
LLC TOTAL     ACCESS:     176713  HIT:      61302  MISS:     115411
LLC LOAD      ACCESS:     115316  HIT:          9  MISS:     115307
LLC RFO       ACCESS:          0  HIT:          0  MISS:          0
LLC PREFETCH  ACCESS:          0  HIT:          0  MISS:          0
LLC WRITEBACK ACCESS:      61366  HIT:      61274  MISS:         92
Heartbeat CPU 0 instructions: 54000002 cycles: 50561842 heartbeat IPC: 0.187221 cumulative IPC: 0.174522 (Simulation time: 1 hr 36 min 35 sec) 

Region of Interest Statistics
cpu0_DTLB TOTAL     ACCESS:    1996135  HIT:    1905305  MISS:      90830
cpu0_DTLB LOAD      ACCESS:    1859388  HIT:    1768837  MISS:      90551
cpu0_DTLB RFO       ACCESS:     136747  HIT:     136468  MISS:        279
cpu0_DTLB PREFETCH  ACCESS:          0  HIT:          0  MISS:          0
cpu0_DTLB WRITEBACK ACCESS:          0  HIT:          0  MISS:          0
cpu0_ITLB TOTAL     ACCESS:       6075  HIT:       6074  MISS:          1
cpu0_ITLB LOAD      ACCESS:       6075  HIT:       6074  MISS:          1
cpu0_ITLB RFO       ACCESS:          0  HIT:          0  MISS:          0
cpu0_ITLB PREFETCH  ACCESS:          0  HIT:          0  MISS:          0
cpu0_ITLB WRITEBACK ACCESS:          0  HIT:          0  MISS:          0
cpu0_L1I TOTAL     ACCESS:       1041  HIT:       1024  MISS:         17
cpu0_L1I LOAD      ACCESS:       1041  HIT:       1024  MISS:         17
cpu0_L1I RFO       ACCESS:          0  HIT:          0  MISS:          0
cpu0_L1I PREFETCH  ACCESS:          0  HIT:          0  MISS:          0
cpu0_L1I WRITEBACK ACCESS:          0  HIT:          0  MISS:          0
cpu0_STLB TOTAL     ACCESS:      90831  HIT:      18343  MISS:      72488
cpu0_STLB LOAD      ACCESS:      90552  HIT:      18068  MISS:      72484
cpu0_STLB RFO       ACCESS:        279  HIT:        275  MISS:          4
cpu0_STLB PREFETCH  ACCESS:          0  HIT:          0  MISS:          0
cpu0_STLB WRITEBACK ACCESS:          0  HIT:          0  MISS:          0
cpu0_L1D TOTAL     ACCESS:    2268342  HIT:    1992585  MISS:     275757
cpu0_L1D LOAD      ACCESS:    2058289  HIT:    1782633  MISS:     275656
cpu0_L1D RFO       ACCESS:     137624  HIT:     137622  MISS:          2
cpu0_L1D PREFETCH  ACCESS:          0  HIT:          0  MISS:          0
cpu0_L1D WRITEBACK ACCESS:          0  HIT:          0  MISS:          0
cpu0_L2C TOTAL     ACCESS:     391939  HIT:     169661  MISS:     222278
cpu0_L2C LOAD      ACCESS:     275673  HIT:      53458  MISS:     222215
cpu0_L2C RFO       ACCESS:          2  HIT:          0  MISS:          2
cpu0_L2C PREFETCH  ACCESS:          0  HIT:          0  MISS:          0
cpu0_L2C WRITEBACK ACCESS:     116165  HIT:     116163  MISS:          2
LLC TOTAL     ACCESS:     338477  HIT:     116129  MISS:     222348
LLC LOAD      ACCESS:     222215  HIT:          9  MISS:     222206
LLC RFO       ACCESS:          2  HIT:          0  MISS:          2
LLC PREFETCH  ACCESS:          0  HIT:          0  MISS:          0
LLC WRITEBACK ACCESS:     116201  HIT:     116084  MISS:        117
Heartbeat CPU 0 instructions: 56000001 cycles: 60324548 heartbeat IPC: 0.204861 cumulative IPC: 0.183585 (Simulation time: 1 hr 47 min 6 sec) 

Region of Interest Statistics
cpu0_DTLB TOTAL     ACCESS:    2923676  HIT:    2784709  MISS:     138967
cpu0_DTLB LOAD      ACCESS:    2735470  HIT:    2596850  MISS:     138620
cpu0_DTLB RFO       ACCESS:     188206  HIT:     187859  MISS:        347
cpu0_DTLB PREFETCH  ACCESS:          0  HIT:          0  MISS:          0
cpu0_DTLB WRITEBACK ACCESS:          0  HIT:          0  MISS:          0
cpu0_ITLB TOTAL     ACCESS:       9815  HIT:       9814  MISS:          1
cpu0_ITLB LOAD      ACCESS:       9815  HIT:       9814  MISS:          1
cpu0_ITLB RFO       ACCESS:          0  HIT:          0  MISS:          0
cpu0_ITLB PREFETCH  ACCESS:          0  HIT:          0  MISS:          0
cpu0_ITLB WRITEBACK ACCESS:          0  HIT:          0  MISS:          0
cpu0_L1I TOTAL     ACCESS:       2585  HIT:       2568  MISS:         17
cpu0_L1I LOAD      ACCESS:       2585  HIT:       2568  MISS:         17
cpu0_L1I RFO       ACCESS:          0  HIT:          0  MISS:          0
cpu0_L1I PREFETCH  ACCESS:          0  HIT:          0  MISS:          0
cpu0_L1I WRITEBACK ACCESS:          0  HIT:          0  MISS:          0
cpu0_STLB TOTAL     ACCESS:     138968  HIT:      30514  MISS:     108454
cpu0_STLB LOAD      ACCESS:     138621  HIT:      30171  MISS:     108450
cpu0_STLB RFO       ACCESS:        347  HIT:        343  MISS:          4
cpu0_STLB PREFETCH  ACCESS:          0  HIT:          0  MISS:          0
cpu0_STLB WRITEBACK ACCESS:          0  HIT:          0  MISS:          0
cpu0_L1D TOTAL     ACCESS:    3364966  HIT:    2953802  MISS:     411164
cpu0_L1D LOAD      ACCESS:    3067059  HIT:    2656043  MISS:     411016
cpu0_L1D RFO       ACCESS:     189541  HIT:     189539  MISS:          2
cpu0_L1D PREFETCH  ACCESS:          0  HIT:          0  MISS:          0
cpu0_L1D WRITEBACK ACCESS:          0  HIT:          0  MISS:          0
cpu0_L2C TOTAL     ACCESS:     578609  HIT:     253872  MISS:     324737
cpu0_L2C LOAD      ACCESS:     411033  HIT:      86387  MISS:     324646
cpu0_L2C RFO       ACCESS:          2  HIT:          0  MISS:          2
cpu0_L2C PREFETCH  ACCESS:          0  HIT:          0  MISS:          0
cpu0_L2C WRITEBACK ACCESS:     167428  HIT:     167426  MISS:          2
LLC TOTAL     ACCESS:     492106  HIT:     167247  MISS:     324859
LLC LOAD      ACCESS:     324646  HIT:          9  MISS:     324637
LLC RFO       ACCESS:          2  HIT:          0  MISS:          2
LLC PREFETCH  ACCESS:          0  HIT:          0  MISS:          0
LLC WRITEBACK ACCESS:     167371  HIT:     167183  MISS:        188
Heartbeat CPU 0 instructions: 58000004 cycles: 66426169 heartbeat IPC: 0.327782 cumulative IPC: 0.206271 (Simulation time: 1 hr 54 min 8 sec) 

Region of Interest Statistics
cpu0_DTLB TOTAL     ACCESS:    3828432  HIT:    3665304  MISS:     163128
cpu0_DTLB LOAD      ACCESS:    3574968  HIT:    3412258  MISS:     162710
cpu0_DTLB RFO       ACCESS:     253464  HIT:     253046  MISS:        418
cpu0_DTLB PREFETCH  ACCESS:          0  HIT:          0  MISS:          0
cpu0_DTLB WRITEBACK ACCESS:          0  HIT:          0  MISS:          0
cpu0_ITLB TOTAL     ACCESS:      40525  HIT:      40524  MISS:          1
cpu0_ITLB LOAD      ACCESS:      40525  HIT:      40524  MISS:          1
cpu0_ITLB RFO       ACCESS:          0  HIT:          0  MISS:          0
cpu0_ITLB PREFETCH  ACCESS:          0  HIT:          0  MISS:          0
cpu0_ITLB WRITEBACK ACCESS:          0  HIT:          0  MISS:          0
cpu0_L1I TOTAL     ACCESS:      84743  HIT:      84655  MISS:         88
cpu0_L1I LOAD      ACCESS:      84743  HIT:      84655  MISS:         88
cpu0_L1I RFO       ACCESS:          0  HIT:          0  MISS:          0
cpu0_L1I PREFETCH  ACCESS:          0  HIT:          0  MISS:          0
cpu0_L1I WRITEBACK ACCESS:          0  HIT:          0  MISS:          0
cpu0_STLB TOTAL     ACCESS:     163129  HIT:      36466  MISS:     126663
cpu0_STLB LOAD      ACCESS:     162711  HIT:      36053  MISS:     126658
cpu0_STLB RFO       ACCESS:        418  HIT:        413  MISS:          5
cpu0_STLB PREFETCH  ACCESS:          0  HIT:          0  MISS:          0
cpu0_STLB WRITEBACK ACCESS:          0  HIT:          0  MISS:          0
cpu0_L1D TOTAL     ACCESS:    4416067  HIT:    3933197  MISS:     482870
cpu0_L1D LOAD      ACCESS:    4010370  HIT:    3527720  MISS:     482650
cpu0_L1D RFO       ACCESS:     279138  HIT:     279129  MISS:          9
cpu0_L1D PREFETCH  ACCESS:          0  HIT:          0  MISS:          0
cpu0_L1D WRITEBACK ACCESS:          0  HIT:          0  MISS:          0
cpu0_L2C TOTAL     ACCESS:     678493  HIT:     297429  MISS:     381064
cpu0_L2C LOAD      ACCESS:     482738  HIT:     101814  MISS:     380924
cpu0_L2C RFO       ACCESS:          9  HIT:          0  MISS:          9
cpu0_L2C PREFETCH  ACCESS:          0  HIT:          0  MISS:          0
cpu0_L2C WRITEBACK ACCESS:     195535  HIT:     195529  MISS:          6
LLC TOTAL     ACCESS:     576365  HIT:     194551  MISS:     381814
LLC LOAD      ACCESS:     380924  HIT:        119  MISS:     380805
LLC RFO       ACCESS:          9  HIT:          0  MISS:          9
LLC PREFETCH  ACCESS:          0  HIT:          0  MISS:          0
LLC WRITEBACK ACCESS:     195307  HIT:     194363  MISS:        944
Heartbeat CPU 0 instructions: 60000003 cycles: 69365106 heartbeat IPC: 0.680518 cumulative IPC: 0.239676 (Simulation time: 1 hr 58 min 30 sec) 

Region of Interest Statistics
cpu0_DTLB TOTAL     ACCESS:    4739888  HIT:    4573279  MISS:     166609
cpu0_DTLB LOAD      ACCESS:    4398947  HIT:    4232842  MISS:     166105
cpu0_DTLB RFO       ACCESS:     340941  HIT:     340437  MISS:        504
cpu0_DTLB PREFETCH  ACCESS:          0  HIT:          0  MISS:          0
cpu0_DTLB WRITEBACK ACCESS:          0  HIT:          0  MISS:          0
cpu0_ITLB TOTAL     ACCESS:      78534  HIT:      78533  MISS:          1
cpu0_ITLB LOAD      ACCESS:      78534  HIT:      78533  MISS:          1
cpu0_ITLB RFO       ACCESS:          0  HIT:          0  MISS:          0
cpu0_ITLB PREFETCH  ACCESS:          0  HIT:          0  MISS:          0
cpu0_ITLB WRITEBACK ACCESS:          0  HIT:          0  MISS:          0
cpu0_L1I TOTAL     ACCESS:     307055  HIT:     306967  MISS:         88
cpu0_L1I LOAD      ACCESS:     307055  HIT:     306967  MISS:         88
cpu0_L1I RFO       ACCESS:          0  HIT:          0  MISS:          0
cpu0_L1I PREFETCH  ACCESS:          0  HIT:          0  MISS:          0
cpu0_L1I WRITEBACK ACCESS:          0  HIT:          0  MISS:          0
cpu0_STLB TOTAL     ACCESS:     166610  HIT:      37778  MISS:     128832
cpu0_STLB LOAD      ACCESS:     166106  HIT:      37279  MISS:     128827
cpu0_STLB RFO       ACCESS:        504  HIT:        499  MISS:          5
cpu0_STLB PREFETCH  ACCESS:          0  HIT:          0  MISS:          0
cpu0_STLB WRITEBACK ACCESS:          0  HIT:          0  MISS:          0
cpu0_L1D TOTAL     ACCESS:    5503201  HIT:    5001759  MISS:     501442
cpu0_L1D LOAD      ACCESS:    4941965  HIT:    4440784  MISS:     501181
cpu0_L1D RFO       ACCESS:     432515  HIT:     432506  MISS:          9
cpu0_L1D PREFETCH  ACCESS:          0  HIT:          0  MISS:          0
cpu0_L1D WRITEBACK ACCESS:          0  HIT:          0  MISS:          0
cpu0_L2C TOTAL     ACCESS:     706224  HIT:     309697  MISS:     396527
cpu0_L2C LOAD      ACCESS:     501269  HIT:     104886  MISS:     396383
cpu0_L2C RFO       ACCESS:          9  HIT:          0  MISS:          9
cpu0_L2C PREFETCH  ACCESS:          0  HIT:          0  MISS:          0
cpu0_L2C WRITEBACK ACCESS:     204694  HIT:     204688  MISS:          6
LLC TOTAL     ACCESS:     600697  HIT:     204151  MISS:     396546
LLC LOAD      ACCESS:     396383  HIT:        849  MISS:     395534
LLC RFO       ACCESS:          9  HIT:          0  MISS:          9
LLC PREFETCH  ACCESS:          0  HIT:          0  MISS:          0
LLC WRITEBACK ACCESS:     204176  HIT:     203230  MISS:        946
Heartbeat CPU 0 instructions: 62000004 cycles: 72314598 heartbeat IPC: 0.678083 cumulative IPC: 0.268622 (Simulation time: 2 hr 2 min 47 sec) 

Region of Interest Statistics
cpu0_DTLB TOTAL     ACCESS:    5651447  HIT:    5481300  MISS:     170147
cpu0_DTLB LOAD      ACCESS:    5222994  HIT:    5053439  MISS:     169555
cpu0_DTLB RFO       ACCESS:     428453  HIT:     427861  MISS:        592
cpu0_DTLB PREFETCH  ACCESS:          0  HIT:          0  MISS:          0
cpu0_DTLB WRITEBACK ACCESS:          0  HIT:          0  MISS:          0
cpu0_ITLB TOTAL     ACCESS:     116521  HIT:     116520  MISS:          1
cpu0_ITLB LOAD      ACCESS:     116521  HIT:     116520  MISS:          1
cpu0_ITLB RFO       ACCESS:          0  HIT:          0  MISS:          0
cpu0_ITLB PREFETCH  ACCESS:          0  HIT:          0  MISS:          0
cpu0_ITLB WRITEBACK ACCESS:          0  HIT:          0  MISS:          0
cpu0_L1I TOTAL     ACCESS:     529292  HIT:     529204  MISS:         88
cpu0_L1I LOAD      ACCESS:     529292  HIT:     529204  MISS:         88
cpu0_L1I RFO       ACCESS:          0  HIT:          0  MISS:          0
cpu0_L1I PREFETCH  ACCESS:          0  HIT:          0  MISS:          0
cpu0_L1I WRITEBACK ACCESS:          0  HIT:          0  MISS:          0
cpu0_STLB TOTAL     ACCESS:     170148  HIT:      39156  MISS:     130992
cpu0_STLB LOAD      ACCESS:     169556  HIT:      38569  MISS:     130987
cpu0_STLB RFO       ACCESS:        592  HIT:        587  MISS:          5
cpu0_STLB PREFETCH  ACCESS:          0  HIT:          0  MISS:          0
cpu0_STLB WRITEBACK ACCESS:          0  HIT:          0  MISS:          0
cpu0_L1D TOTAL     ACCESS:    6590773  HIT:    6070776  MISS:     519997
cpu0_L1D LOAD      ACCESS:    5874032  HIT:    5354329  MISS:     519703
cpu0_L1D RFO       ACCESS:     585866  HIT:     585857  MISS:          9
cpu0_L1D PREFETCH  ACCESS:          0  HIT:          0  MISS:          0
cpu0_L1D WRITEBACK ACCESS:          0  HIT:          0  MISS:          0
cpu0_L2C TOTAL     ACCESS:     733938  HIT:     321912  MISS:     412026
cpu0_L2C LOAD      ACCESS:     519791  HIT:     107909  MISS:     411882
cpu0_L2C RFO       ACCESS:          9  HIT:          0  MISS:          9
cpu0_L2C PREFETCH  ACCESS:          0  HIT:          0  MISS:          0
cpu0_L2C WRITEBACK ACCESS:     213853  HIT:     213847  MISS:          6
LLC TOTAL     ACCESS:     625331  HIT:     213951  MISS:     411380
LLC LOAD      ACCESS:     411882  HIT:       1635  MISS:     410247
LLC RFO       ACCESS:          9  HIT:          0  MISS:          9
LLC PREFETCH  ACCESS:          0  HIT:          0  MISS:          0
LLC WRITEBACK ACCESS:     213311  HIT:     212244  MISS:       1067
Heartbeat CPU 0 instructions: 64000002 cycles: 75269324 heartbeat IPC: 0.676881 cumulative IPC: 0.29395 (Simulation time: 2 hr 7 min 7 sec) 

Region of Interest Statistics
cpu0_DTLB TOTAL     ACCESS:    6562821  HIT:    6389107  MISS:     173714
cpu0_DTLB LOAD      ACCESS:    6046881  HIT:    5873857  MISS:     173024
cpu0_DTLB RFO       ACCESS:     515940  HIT:     515250  MISS:        690
cpu0_DTLB PREFETCH  ACCESS:          0  HIT:          0  MISS:          0
cpu0_DTLB WRITEBACK ACCESS:          0  HIT:          0  MISS:          0
cpu0_ITLB TOTAL     ACCESS:     154497  HIT:     154496  MISS:          1
cpu0_ITLB LOAD      ACCESS:     154497  HIT:     154496  MISS:          1
cpu0_ITLB RFO       ACCESS:          0  HIT:          0  MISS:          0
cpu0_ITLB PREFETCH  ACCESS:          0  HIT:          0  MISS:          0
cpu0_ITLB WRITEBACK ACCESS:          0  HIT:          0  MISS:          0
cpu0_L1I TOTAL     ACCESS:     751612  HIT:     751524  MISS:         88
cpu0_L1I LOAD      ACCESS:     751612  HIT:     751524  MISS:         88
cpu0_L1I RFO       ACCESS:          0  HIT:          0  MISS:          0
cpu0_L1I PREFETCH  ACCESS:          0  HIT:          0  MISS:          0
cpu0_L1I WRITEBACK ACCESS:          0  HIT:          0  MISS:          0
cpu0_STLB TOTAL     ACCESS:     173715  HIT:      40553  MISS:     133162
cpu0_STLB LOAD      ACCESS:     173025  HIT:      39868  MISS:     133157
cpu0_STLB RFO       ACCESS:        690  HIT:        685  MISS:          5
cpu0_STLB PREFETCH  ACCESS:          0  HIT:          0  MISS:          0
cpu0_STLB WRITEBACK ACCESS:          0  HIT:          0  MISS:          0
cpu0_L1D TOTAL     ACCESS:    7678107  HIT:    7139535  MISS:     538572
cpu0_L1D LOAD      ACCESS:    6805833  HIT:    6267591  MISS:     538242
cpu0_L1D RFO       ACCESS:     739235  HIT:     739226  MISS:          9
cpu0_L1D PREFETCH  ACCESS:          0  HIT:          0  MISS:          0
cpu0_L1D WRITEBACK ACCESS:          0  HIT:          0  MISS:          0
cpu0_L2C TOTAL     ACCESS:     761699  HIT:     334185  MISS:     427514
cpu0_L2C LOAD      ACCESS:     538330  HIT:     110961  MISS:     427369
cpu0_L2C RFO       ACCESS:          9  HIT:          0  MISS:          9
cpu0_L2C PREFETCH  ACCESS:          0  HIT:          0  MISS:          0
cpu0_L2C WRITEBACK ACCESS:     223039  HIT:     223033  MISS:          6
LLC TOTAL     ACCESS:     650037  HIT:     223676  MISS:     426361
LLC LOAD      ACCESS:     427369  HIT:       2408  MISS:     424961
LLC RFO       ACCESS:          9  HIT:          0  MISS:          9
LLC PREFETCH  ACCESS:          0  HIT:          0  MISS:          0
LLC WRITEBACK ACCESS:     222529  HIT:     221195  MISS:       1334
Heartbeat CPU 0 instructions: 66000001 cycles: 78243102 heartbeat IPC: 0.672545 cumulative IPC: 0.3162 (Simulation time: 2 hr 11 min 27 sec) 

Region of Interest Statistics
cpu0_DTLB TOTAL     ACCESS:    7472179  HIT:    7294769  MISS:     177410
cpu0_DTLB LOAD      ACCESS:    6868774  HIT:    6692165  MISS:     176609
cpu0_DTLB RFO       ACCESS:     603405  HIT:     602604  MISS:        801
cpu0_DTLB PREFETCH  ACCESS:          0  HIT:          0  MISS:          0
cpu0_DTLB WRITEBACK ACCESS:          0  HIT:          0  MISS:          0
cpu0_ITLB TOTAL     ACCESS:     192499  HIT:     192498  MISS:          1
cpu0_ITLB LOAD      ACCESS:     192499  HIT:     192498  MISS:          1
cpu0_ITLB RFO       ACCESS:          0  HIT:          0  MISS:          0
cpu0_ITLB PREFETCH  ACCESS:          0  HIT:          0  MISS:          0
cpu0_ITLB WRITEBACK ACCESS:          0  HIT:          0  MISS:          0
cpu0_L1I TOTAL     ACCESS:     973779  HIT:     973691  MISS:         88
cpu0_L1I LOAD      ACCESS:     973779  HIT:     973691  MISS:         88
cpu0_L1I RFO       ACCESS:          0  HIT:          0  MISS:          0
cpu0_L1I PREFETCH  ACCESS:          0  HIT:          0  MISS:          0
cpu0_L1I WRITEBACK ACCESS:          0  HIT:          0  MISS:          0
cpu0_STLB TOTAL     ACCESS:     177411  HIT:      42083  MISS:     135328
cpu0_STLB LOAD      ACCESS:     176610  HIT:      41287  MISS:     135323
cpu0_STLB RFO       ACCESS:        801  HIT:        796  MISS:          5
cpu0_STLB PREFETCH  ACCESS:          0  HIT:          0  MISS:          0
cpu0_STLB WRITEBACK ACCESS:          0  HIT:          0  MISS:          0
cpu0_L1D TOTAL     ACCESS:    8763180  HIT:    8206036  MISS:     557144
cpu0_L1D LOAD      ACCESS:    7735356  HIT:    7178579  MISS:     556777
cpu0_L1D RFO       ACCESS:     892624  HIT:     892615  MISS:          9
cpu0_L1D PREFETCH  ACCESS:          0  HIT:          0  MISS:          0
cpu0_L1D WRITEBACK ACCESS:          0  HIT:          0  MISS:          0
cpu0_L2C TOTAL     ACCESS:     789407  HIT:     346528  MISS:     442879
cpu0_L2C LOAD      ACCESS:     556865  HIT:     114132  MISS:     442733
cpu0_L2C RFO       ACCESS:          9  HIT:          0  MISS:          9
cpu0_L2C PREFETCH  ACCESS:          0  HIT:          0  MISS:          0
cpu0_L2C WRITEBACK ACCESS:     232175  HIT:     232169  MISS:          6
LLC TOTAL     ACCESS:     674510  HIT:     233446  MISS:     441064
LLC LOAD      ACCESS:     442733  HIT:       3072  MISS:     439661
LLC RFO       ACCESS:          9  HIT:          0  MISS:          9
LLC PREFETCH  ACCESS:          0  HIT:          0  MISS:          0
LLC WRITEBACK ACCESS:     231637  HIT:     230300  MISS:       1337
Heartbeat CPU 0 instructions: 68000000 cycles: 81209503 heartbeat IPC: 0.674217 cumulative IPC: 0.336026 (Simulation time: 2 hr 15 min 51 sec) 

Region of Interest Statistics
cpu0_DTLB TOTAL     ACCESS:    8381062  HIT:    8199944  MISS:     181118
cpu0_DTLB LOAD      ACCESS:    7690194  HIT:    7510001  MISS:     180193
cpu0_DTLB RFO       ACCESS:     690868  HIT:     689943  MISS:        925
cpu0_DTLB PREFETCH  ACCESS:          0  HIT:          0  MISS:          0
cpu0_DTLB WRITEBACK ACCESS:          0  HIT:          0  MISS:          0
cpu0_ITLB TOTAL     ACCESS:     230491  HIT:     230490  MISS:          1
cpu0_ITLB LOAD      ACCESS:     230491  HIT:     230490  MISS:          1
cpu0_ITLB RFO       ACCESS:          0  HIT:          0  MISS:          0
cpu0_ITLB PREFETCH  ACCESS:          0  HIT:          0  MISS:          0
cpu0_ITLB WRITEBACK ACCESS:          0  HIT:          0  MISS:          0
cpu0_L1I TOTAL     ACCESS:    1196041  HIT:    1195953  MISS:         88
cpu0_L1I LOAD      ACCESS:    1196041  HIT:    1195953  MISS:         88
cpu0_L1I RFO       ACCESS:          0  HIT:          0  MISS:          0
cpu0_L1I PREFETCH  ACCESS:          0  HIT:          0  MISS:          0
cpu0_L1I WRITEBACK ACCESS:          0  HIT:          0  MISS:          0
cpu0_STLB TOTAL     ACCESS:     181119  HIT:      43628  MISS:     137491
cpu0_STLB LOAD      ACCESS:     180194  HIT:      42708  MISS:     137486
cpu0_STLB RFO       ACCESS:        925  HIT:        920  MISS:          5
cpu0_STLB PREFETCH  ACCESS:          0  HIT:          0  MISS:          0
cpu0_STLB WRITEBACK ACCESS:          0  HIT:          0  MISS:          0
cpu0_L1D TOTAL     ACCESS:    9847813  HIT:    9272107  MISS:     575706
cpu0_L1D LOAD      ACCESS:    8664481  HIT:    8089181  MISS:     575300
cpu0_L1D RFO       ACCESS:    1045976  HIT:    1045967  MISS:          9
cpu0_L1D PREFETCH  ACCESS:          0  HIT:          0  MISS:          0
cpu0_L1D WRITEBACK ACCESS:          0  HIT:          0  MISS:          0
cpu0_L2C TOTAL     ACCESS:     817131  HIT:     358875  MISS:     458256
cpu0_L2C LOAD      ACCESS:     575388  HIT:     117279  MISS:     458109
cpu0_L2C RFO       ACCESS:          9  HIT:          0  MISS:          9
cpu0_L2C PREFETCH  ACCESS:          0  HIT:          0  MISS:          0
cpu0_L2C WRITEBACK ACCESS:     241337  HIT:     241331  MISS:          6
LLC TOTAL     ACCESS:     699036  HIT:     242530  MISS:     456506
LLC LOAD      ACCESS:     458109  HIT:       3747  MISS:     454362
LLC RFO       ACCESS:          9  HIT:          0  MISS:          9
LLC PREFETCH  ACCESS:          0  HIT:          0  MISS:          0
LLC WRITEBACK ACCESS:     240786  HIT:     238709  MISS:       2077
Heartbeat CPU 0 instructions: 70000003 cycles: 84182462 heartbeat IPC: 0.672731 cumulative IPC: 0.35373 (Simulation time: 2 hr 20 min 14 sec) 

Region of Interest Statistics
cpu0_DTLB TOTAL     ACCESS:    9290539  HIT:    9106008  MISS:     184531
cpu0_DTLB LOAD      ACCESS:    8512235  HIT:    8328699  MISS:     183536
cpu0_DTLB RFO       ACCESS:     778304  HIT:     777309  MISS:        995
cpu0_DTLB PREFETCH  ACCESS:          0  HIT:          0  MISS:          0
cpu0_DTLB WRITEBACK ACCESS:          0  HIT:          0  MISS:          0
cpu0_ITLB TOTAL     ACCESS:     268488  HIT:     268487  MISS:          1
cpu0_ITLB LOAD      ACCESS:     268488  HIT:     268487  MISS:          1
cpu0_ITLB RFO       ACCESS:          0  HIT:          0  MISS:          0
cpu0_ITLB PREFETCH  ACCESS:          0  HIT:          0  MISS:          0
cpu0_ITLB WRITEBACK ACCESS:          0  HIT:          0  MISS:          0
cpu0_L1I TOTAL     ACCESS:    1418322  HIT:    1418234  MISS:         88
cpu0_L1I LOAD      ACCESS:    1418322  HIT:    1418234  MISS:         88
cpu0_L1I RFO       ACCESS:          0  HIT:          0  MISS:          0
cpu0_L1I PREFETCH  ACCESS:          0  HIT:          0  MISS:          0
cpu0_L1I WRITEBACK ACCESS:          0  HIT:          0  MISS:          0
cpu0_STLB TOTAL     ACCESS:     184532  HIT:      44876  MISS:     139656
cpu0_STLB LOAD      ACCESS:     183537  HIT:      43886  MISS:     139651
cpu0_STLB RFO       ACCESS:        995  HIT:        990  MISS:          5
cpu0_STLB PREFETCH  ACCESS:          0  HIT:          0  MISS:          0
cpu0_STLB WRITEBACK ACCESS:          0  HIT:          0  MISS:          0
cpu0_L1D TOTAL     ACCESS:   10932780  HIT:   10338508  MISS:     594272
cpu0_L1D LOAD      ACCESS:    9593907  HIT:    9000076  MISS:     593831
cpu0_L1D RFO       ACCESS:    1199355  HIT:    1199346  MISS:          9
cpu0_L1D PREFETCH  ACCESS:          0  HIT:          0  MISS:          0
cpu0_L1D WRITEBACK ACCESS:          0  HIT:          0  MISS:          0
cpu0_L2C TOTAL     ACCESS:     844856  HIT:     371292  MISS:     473564
cpu0_L2C LOAD      ACCESS:     593919  HIT:     120505  MISS:     473414
cpu0_L2C RFO       ACCESS:          9  HIT:          0  MISS:          9
cpu0_L2C PREFETCH  ACCESS:          0  HIT:          0  MISS:          0
cpu0_L2C WRITEBACK ACCESS:     250496  HIT:     250490  MISS:          6
LLC TOTAL     ACCESS:     723568  HIT:     252010  MISS:     471558
LLC LOAD      ACCESS:     473414  HIT:       4311  MISS:     469103
LLC RFO       ACCESS:          9  HIT:          0  MISS:          9
LLC PREFETCH  ACCESS:          0  HIT:          0  MISS:          0
LLC WRITEBACK ACCESS:     250010  HIT:     247623  MISS:       2387
Heartbeat CPU 0 instructions: 72000001 cycles: 87151666 heartbeat IPC: 0.673581 cumulative IPC: 0.369689 (Simulation time: 2 hr 24 min 44 sec) 

Region of Interest Statistics
cpu0_DTLB TOTAL     ACCESS:   10199348  HIT:   10011361  MISS:     187987
cpu0_DTLB LOAD      ACCESS:    9333623  HIT:    9146709  MISS:     186914
cpu0_DTLB RFO       ACCESS:     865725  HIT:     864652  MISS:       1073
cpu0_DTLB PREFETCH  ACCESS:          0  HIT:          0  MISS:          0
cpu0_DTLB WRITEBACK ACCESS:          0  HIT:          0  MISS:          0
cpu0_ITLB TOTAL     ACCESS:     306491  HIT:     306490  MISS:          1
cpu0_ITLB LOAD      ACCESS:     306491  HIT:     306490  MISS:          1
cpu0_ITLB RFO       ACCESS:          0  HIT:          0  MISS:          0
cpu0_ITLB PREFETCH  ACCESS:          0  HIT:          0  MISS:          0
cpu0_ITLB WRITEBACK ACCESS:          0  HIT:          0  MISS:          0
cpu0_L1I TOTAL     ACCESS:    1640608  HIT:    1640520  MISS:         88
cpu0_L1I LOAD      ACCESS:    1640608  HIT:    1640520  MISS:         88
cpu0_L1I RFO       ACCESS:          0  HIT:          0  MISS:          0
cpu0_L1I PREFETCH  ACCESS:          0  HIT:          0  MISS:          0
cpu0_L1I WRITEBACK ACCESS:          0  HIT:          0  MISS:          0
cpu0_STLB TOTAL     ACCESS:     187988  HIT:      46159  MISS:     141829
cpu0_STLB LOAD      ACCESS:     186915  HIT:      45091  MISS:     141824
cpu0_STLB RFO       ACCESS:       1073  HIT:       1068  MISS:          5
cpu0_STLB PREFETCH  ACCESS:          0  HIT:          0  MISS:          0
cpu0_STLB WRITEBACK ACCESS:          0  HIT:          0  MISS:          0
cpu0_L1D TOTAL     ACCESS:   12017235  HIT:   11404391  MISS:     612844
cpu0_L1D LOAD      ACCESS:   10522813  HIT:    9910447  MISS:     612366
cpu0_L1D RFO       ACCESS:    1352735  HIT:    1352726  MISS:          9
cpu0_L1D PREFETCH  ACCESS:          0  HIT:          0  MISS:          0
cpu0_L1D WRITEBACK ACCESS:          0  HIT:          0  MISS:          0
cpu0_L2C TOTAL     ACCESS:     872607  HIT:     383696  MISS:     488911
cpu0_L2C LOAD      ACCESS:     612454  HIT:     123694  MISS:     488760
cpu0_L2C RFO       ACCESS:          9  HIT:          0  MISS:          9
cpu0_L2C PREFETCH  ACCESS:          0  HIT:          0  MISS:          0
cpu0_L2C WRITEBACK ACCESS:     259675  HIT:     259669  MISS:          6
LLC TOTAL     ACCESS:     748069  HIT:     261270  MISS:     486799
LLC LOAD      ACCESS:     488760  HIT:       4933  MISS:     483827
LLC RFO       ACCESS:          9  HIT:          0  MISS:          9
LLC PREFETCH  ACCESS:          0  HIT:          0  MISS:          0
LLC WRITEBACK ACCESS:     259164  HIT:     256260  MISS:       2904
Heartbeat CPU 0 instructions: 74000000 cycles: 90130565 heartbeat IPC: 0.671389 cumulative IPC: 0.384071 (Simulation time: 2 hr 29 min 12 sec) 

Region of Interest Statistics
cpu0_DTLB TOTAL     ACCESS:   11109066  HIT:   10917202  MISS:     191864
cpu0_DTLB LOAD      ACCESS:   10155892  HIT:    9965222  MISS:     190670
cpu0_DTLB RFO       ACCESS:     953174  HIT:     951980  MISS:       1194
cpu0_DTLB PREFETCH  ACCESS:          0  HIT:          0  MISS:          0
cpu0_DTLB WRITEBACK ACCESS:          0  HIT:          0  MISS:          0
cpu0_ITLB TOTAL     ACCESS:     344466  HIT:     344465  MISS:          1
cpu0_ITLB LOAD      ACCESS:     344466  HIT:     344465  MISS:          1
cpu0_ITLB RFO       ACCESS:          0  HIT:          0  MISS:          0
cpu0_ITLB PREFETCH  ACCESS:          0  HIT:          0  MISS:          0
cpu0_ITLB WRITEBACK ACCESS:          0  HIT:          0  MISS:          0
cpu0_L1I TOTAL     ACCESS:    1862767  HIT:    1862679  MISS:         88
cpu0_L1I LOAD      ACCESS:    1862767  HIT:    1862679  MISS:         88
cpu0_L1I RFO       ACCESS:          0  HIT:          0  MISS:          0
cpu0_L1I PREFETCH  ACCESS:          0  HIT:          0  MISS:          0
cpu0_L1I WRITEBACK ACCESS:          0  HIT:          0  MISS:          0
cpu0_STLB TOTAL     ACCESS:     191865  HIT:      47876  MISS:     143989
cpu0_STLB LOAD      ACCESS:     190671  HIT:      46687  MISS:     143984
cpu0_STLB RFO       ACCESS:       1194  HIT:       1189  MISS:          5
cpu0_STLB PREFETCH  ACCESS:          0  HIT:          0  MISS:          0
cpu0_STLB WRITEBACK ACCESS:          0  HIT:          0  MISS:          0
cpu0_L1D TOTAL     ACCESS:   13102397  HIT:   12470981  MISS:     631416
cpu0_L1D LOAD      ACCESS:   11452461  HIT:   10821563  MISS:     630898
cpu0_L1D RFO       ACCESS:    1506095  HIT:    1506086  MISS:          9
cpu0_L1D PREFETCH  ACCESS:          0  HIT:          0  MISS:          0
cpu0_L1D WRITEBACK ACCESS:          0  HIT:          0  MISS:          0
cpu0_L2C TOTAL     ACCESS:     900349  HIT:     395907  MISS:     504442
cpu0_L2C LOAD      ACCESS:     630986  HIT:     126696  MISS:     504290
cpu0_L2C RFO       ACCESS:          9  HIT:          0  MISS:          9
cpu0_L2C PREFETCH  ACCESS:          0  HIT:          0  MISS:          0
cpu0_L2C WRITEBACK ACCESS:     268845  HIT:     268839  MISS:          6
LLC TOTAL     ACCESS:     772804  HIT:     270655  MISS:     502149
LLC LOAD      ACCESS:     504290  HIT:       5672  MISS:     498618
LLC RFO       ACCESS:          9  HIT:          0  MISS:          9
LLC PREFETCH  ACCESS:          0  HIT:          0  MISS:          0
LLC WRITEBACK ACCESS:     268368  HIT:     264906  MISS:       3462
Heartbeat CPU 0 instructions: 76000001 cycles: 93100084 heartbeat IPC: 0.67351 cumulative IPC: 0.397202 (Simulation time: 2 hr 33 min 39 sec) 

Region of Interest Statistics
cpu0_DTLB TOTAL     ACCESS:   12018496  HIT:   11822814  MISS:     195682
cpu0_DTLB LOAD      ACCESS:   10977885  HIT:   10783519  MISS:     194366
cpu0_DTLB RFO       ACCESS:    1040611  HIT:    1039295  MISS:       1316
cpu0_DTLB PREFETCH  ACCESS:          0  HIT:          0  MISS:          0
cpu0_DTLB WRITEBACK ACCESS:          0  HIT:          0  MISS:          0
cpu0_ITLB TOTAL     ACCESS:     382466  HIT:     382465  MISS:          1
cpu0_ITLB LOAD      ACCESS:     382466  HIT:     382465  MISS:          1
cpu0_ITLB RFO       ACCESS:          0  HIT:          0  MISS:          0
cpu0_ITLB PREFETCH  ACCESS:          0  HIT:          0  MISS:          0
cpu0_ITLB WRITEBACK ACCESS:          0  HIT:          0  MISS:          0
cpu0_L1I TOTAL     ACCESS:    2084946  HIT:    2084858  MISS:         88
cpu0_L1I LOAD      ACCESS:    2084946  HIT:    2084858  MISS:         88
cpu0_L1I RFO       ACCESS:          0  HIT:          0  MISS:          0
cpu0_L1I PREFETCH  ACCESS:          0  HIT:          0  MISS:          0
cpu0_L1I WRITEBACK ACCESS:          0  HIT:          0  MISS:          0
cpu0_STLB TOTAL     ACCESS:     195683  HIT:      49530  MISS:     146153
cpu0_STLB LOAD      ACCESS:     194367  HIT:      48219  MISS:     146148
cpu0_STLB RFO       ACCESS:       1316  HIT:       1311  MISS:          5
cpu0_STLB PREFETCH  ACCESS:          0  HIT:          0  MISS:          0
cpu0_STLB WRITEBACK ACCESS:          0  HIT:          0  MISS:          0
cpu0_L1D TOTAL     ACCESS:   14187422  HIT:   13537443  MISS:     649979
cpu0_L1D LOAD      ACCESS:   12381956  HIT:   11732532  MISS:     649424
cpu0_L1D RFO       ACCESS:    1659464  HIT:    1659455  MISS:          9
cpu0_L1D PREFETCH  ACCESS:          0  HIT:          0  MISS:          0
cpu0_L1D WRITEBACK ACCESS:          0  HIT:          0  MISS:          0
cpu0_L2C TOTAL     ACCESS:     928036  HIT:     408140  MISS:     519896
cpu0_L2C LOAD      ACCESS:     649512  HIT:     129769  MISS:     519743
cpu0_L2C RFO       ACCESS:          9  HIT:          0  MISS:          9
cpu0_L2C PREFETCH  ACCESS:          0  HIT:          0  MISS:          0
cpu0_L2C WRITEBACK ACCESS:     277969  HIT:     277963  MISS:          6
LLC TOTAL     ACCESS:     797296  HIT:     280370  MISS:     516926
LLC LOAD      ACCESS:     519743  HIT:       6424  MISS:     513319
LLC RFO       ACCESS:          9  HIT:          0  MISS:          9
LLC PREFETCH  ACCESS:          0  HIT:          0  MISS:          0
LLC WRITEBACK ACCESS:     277406  HIT:     273868  MISS:       3538
Heartbeat CPU 0 instructions: 78000000 cycles: 96072056 heartbeat IPC: 0.672953 cumulative IPC: 0.409178 (Simulation time: 2 hr 38 min 4 sec) 

Region of Interest Statistics
cpu0_DTLB TOTAL     ACCESS:   12927655  HIT:   12728263  MISS:     199392
cpu0_DTLB LOAD      ACCESS:   11799547  HIT:   11601581  MISS:     197966
cpu0_DTLB RFO       ACCESS:    1128108  HIT:    1126682  MISS:       1426
cpu0_DTLB PREFETCH  ACCESS:          0  HIT:          0  MISS:          0
cpu0_DTLB WRITEBACK ACCESS:          0  HIT:          0  MISS:          0
cpu0_ITLB TOTAL     ACCESS:     420459  HIT:     420458  MISS:          1
cpu0_ITLB LOAD      ACCESS:     420459  HIT:     420458  MISS:          1
cpu0_ITLB RFO       ACCESS:          0  HIT:          0  MISS:          0
cpu0_ITLB PREFETCH  ACCESS:          0  HIT:          0  MISS:          0
cpu0_ITLB WRITEBACK ACCESS:          0  HIT:          0  MISS:          0
cpu0_L1I TOTAL     ACCESS:    2307202  HIT:    2307114  MISS:         88
cpu0_L1I LOAD      ACCESS:    2307202  HIT:    2307114  MISS:         88
cpu0_L1I RFO       ACCESS:          0  HIT:          0  MISS:          0
cpu0_L1I PREFETCH  ACCESS:          0  HIT:          0  MISS:          0
cpu0_L1I WRITEBACK ACCESS:          0  HIT:          0  MISS:          0
cpu0_STLB TOTAL     ACCESS:     199393  HIT:      51076  MISS:     148317
cpu0_STLB LOAD      ACCESS:     197967  HIT:      49655  MISS:     148312
cpu0_STLB RFO       ACCESS:       1426  HIT:       1421  MISS:          5
cpu0_STLB PREFETCH  ACCESS:          0  HIT:          0  MISS:          0
cpu0_STLB WRITEBACK ACCESS:          0  HIT:          0  MISS:          0
cpu0_L1D TOTAL     ACCESS:   15272134  HIT:   14603586  MISS:     668548
cpu0_L1D LOAD      ACCESS:   13311141  HIT:   12643186  MISS:     667955
cpu0_L1D RFO       ACCESS:    1812834  HIT:    1812825  MISS:          9
cpu0_L1D PREFETCH  ACCESS:          0  HIT:          0  MISS:          0
cpu0_L1D WRITEBACK ACCESS:          0  HIT:          0  MISS:          0
cpu0_L2C TOTAL     ACCESS:     955808  HIT:     420550  MISS:     535258
cpu0_L2C LOAD      ACCESS:     668043  HIT:     132939  MISS:     535104
cpu0_L2C RFO       ACCESS:          9  HIT:          0  MISS:          9
cpu0_L2C PREFETCH  ACCESS:          0  HIT:          0  MISS:          0
cpu0_L2C WRITEBACK ACCESS:     287172  HIT:     287166  MISS:          6
LLC TOTAL     ACCESS:     821762  HIT:     289988  MISS:     531774
LLC LOAD      ACCESS:     535104  HIT:       7025  MISS:     528079
LLC RFO       ACCESS:          9  HIT:          0  MISS:          9
LLC PREFETCH  ACCESS:          0  HIT:          0  MISS:          0
LLC WRITEBACK ACCESS:     286510  HIT:     282884  MISS:       3626
Heartbeat CPU 0 instructions: 80000002 cycles: 99042089 heartbeat IPC: 0.673394 cumulative IPC: 0.420168 (Simulation time: 2 hr 42 min 27 sec) 

Region of Interest Statistics
cpu0_DTLB TOTAL     ACCESS:   13837237  HIT:   13634376  MISS:     202861
cpu0_DTLB LOAD      ACCESS:   12621674  HIT:   12420330  MISS:     201344
cpu0_DTLB RFO       ACCESS:    1215563  HIT:    1214046  MISS:       1517
cpu0_DTLB PREFETCH  ACCESS:          0  HIT:          0  MISS:          0
cpu0_DTLB WRITEBACK ACCESS:          0  HIT:          0  MISS:          0
cpu0_ITLB TOTAL     ACCESS:     458437  HIT:     458436  MISS:          1
cpu0_ITLB LOAD      ACCESS:     458437  HIT:     458436  MISS:          1
cpu0_ITLB RFO       ACCESS:          0  HIT:          0  MISS:          0
cpu0_ITLB PREFETCH  ACCESS:          0  HIT:          0  MISS:          0
cpu0_ITLB WRITEBACK ACCESS:          0  HIT:          0  MISS:          0
cpu0_L1I TOTAL     ACCESS:    2529597  HIT:    2529509  MISS:         88
cpu0_L1I LOAD      ACCESS:    2529597  HIT:    2529509  MISS:         88
cpu0_L1I RFO       ACCESS:          0  HIT:          0  MISS:          0
cpu0_L1I PREFETCH  ACCESS:          0  HIT:          0  MISS:          0
cpu0_L1I WRITEBACK ACCESS:          0  HIT:          0  MISS:          0
cpu0_STLB TOTAL     ACCESS:     202862  HIT:      52379  MISS:     150483
cpu0_STLB LOAD      ACCESS:     201345  HIT:      50867  MISS:     150478
cpu0_STLB RFO       ACCESS:       1517  HIT:       1512  MISS:          5
cpu0_STLB PREFETCH  ACCESS:          0  HIT:          0  MISS:          0
cpu0_STLB WRITEBACK ACCESS:          0  HIT:          0  MISS:          0
cpu0_L1D TOTAL     ACCESS:   16357201  HIT:   15670081  MISS:     687120
cpu0_L1D LOAD      ACCESS:   14240677  HIT:   13554189  MISS:     686488
cpu0_L1D RFO       ACCESS:    1966205  HIT:    1966196  MISS:          9
cpu0_L1D PREFETCH  ACCESS:          0  HIT:          0  MISS:          0
cpu0_L1D WRITEBACK ACCESS:          0  HIT:          0  MISS:          0
cpu0_L2C TOTAL     ACCESS:     983536  HIT:     432874  MISS:     550662
cpu0_L2C LOAD      ACCESS:     686576  HIT:     136069  MISS:     550507
cpu0_L2C RFO       ACCESS:          9  HIT:          0  MISS:          9
cpu0_L2C PREFETCH  ACCESS:          0  HIT:          0  MISS:          0
cpu0_L2C WRITEBACK ACCESS:     296328  HIT:     296322  MISS:          6
LLC TOTAL     ACCESS:     846368  HIT:     299754  MISS:     546614
LLC LOAD      ACCESS:     550507  HIT:       7722  MISS:     542785
LLC RFO       ACCESS:          9  HIT:          0  MISS:          9
LLC PREFETCH  ACCESS:          0  HIT:          0  MISS:          0
LLC WRITEBACK ACCESS:     295712  HIT:     291953  MISS:       3759
Heartbeat CPU 0 instructions: 82000001 cycles: 102011834 heartbeat IPC: 0.673458 cumulative IPC: 0.430283 (Simulation time: 2 hr 46 min 56 sec) 

Region of Interest Statistics
cpu0_DTLB TOTAL     ACCESS:   14745944  HIT:   14539300  MISS:     206644
cpu0_DTLB LOAD      ACCESS:   13442948  HIT:   13237942  MISS:     205006
cpu0_DTLB RFO       ACCESS:    1302996  HIT:    1301358  MISS:       1638
cpu0_DTLB PREFETCH  ACCESS:          0  HIT:          0  MISS:          0
cpu0_DTLB WRITEBACK ACCESS:          0  HIT:          0  MISS:          0
cpu0_ITLB TOTAL     ACCESS:     496427  HIT:     496426  MISS:          1
cpu0_ITLB LOAD      ACCESS:     496427  HIT:     496426  MISS:          1
cpu0_ITLB RFO       ACCESS:          0  HIT:          0  MISS:          0
cpu0_ITLB PREFETCH  ACCESS:          0  HIT:          0  MISS:          0
cpu0_ITLB WRITEBACK ACCESS:          0  HIT:          0  MISS:          0
cpu0_L1I TOTAL     ACCESS:    2751882  HIT:    2751794  MISS:         88
cpu0_L1I LOAD      ACCESS:    2751882  HIT:    2751794  MISS:         88
cpu0_L1I RFO       ACCESS:          0  HIT:          0  MISS:          0
cpu0_L1I PREFETCH  ACCESS:          0  HIT:          0  MISS:          0
cpu0_L1I WRITEBACK ACCESS:          0  HIT:          0  MISS:          0
cpu0_STLB TOTAL     ACCESS:     206645  HIT:      53998  MISS:     152647
cpu0_STLB LOAD      ACCESS:     205007  HIT:      52365  MISS:     152642
cpu0_STLB RFO       ACCESS:       1638  HIT:       1633  MISS:          5
cpu0_STLB PREFETCH  ACCESS:          0  HIT:          0  MISS:          0
cpu0_STLB WRITEBACK ACCESS:          0  HIT:          0  MISS:          0
cpu0_L1D TOTAL     ACCESS:   17441538  HIT:   16735849  MISS:     705689
cpu0_L1D LOAD      ACCESS:   15169485  HIT:   14464469  MISS:     705016
cpu0_L1D RFO       ACCESS:    2119575  HIT:    2119566  MISS:          9
cpu0_L1D PREFETCH  ACCESS:          0  HIT:          0  MISS:          0
cpu0_L1D WRITEBACK ACCESS:          0  HIT:          0  MISS:          0
cpu0_L2C TOTAL     ACCESS:    1011252  HIT:     445015  MISS:     566237
cpu0_L2C LOAD      ACCESS:     705104  HIT:     139023  MISS:     566081
cpu0_L2C RFO       ACCESS:          9  HIT:          0  MISS:          9
cpu0_L2C PREFETCH  ACCESS:          0  HIT:          0  MISS:          0
cpu0_L2C WRITEBACK ACCESS:     305475  HIT:     305469  MISS:          6
LLC TOTAL     ACCESS:     871159  HIT:     309495  MISS:     561664
LLC LOAD      ACCESS:     566081  HIT:       8586  MISS:     557495
LLC RFO       ACCESS:          9  HIT:          0  MISS:          9
LLC PREFETCH  ACCESS:          0  HIT:          0  MISS:          0
LLC WRITEBACK ACCESS:     304928  HIT:     300829  MISS:       4099
Heartbeat CPU 0 instructions: 84000000 cycles: 104980915 heartbeat IPC: 0.673609 cumulative IPC: 0.439624 (Simulation time: 2 hr 51 min 25 sec) 

Region of Interest Statistics
cpu0_DTLB TOTAL     ACCESS:   15655350  HIT:   15445169  MISS:     210181
cpu0_DTLB LOAD      ACCESS:   14264930  HIT:   14056459  MISS:     208471
cpu0_DTLB RFO       ACCESS:    1390420  HIT:    1388710  MISS:       1710
cpu0_DTLB PREFETCH  ACCESS:          0  HIT:          0  MISS:          0
cpu0_DTLB WRITEBACK ACCESS:          0  HIT:          0  MISS:          0
cpu0_ITLB TOTAL     ACCESS:     534419  HIT:     534418  MISS:          1
cpu0_ITLB LOAD      ACCESS:     534419  HIT:     534418  MISS:          1
cpu0_ITLB RFO       ACCESS:          0  HIT:          0  MISS:          0
cpu0_ITLB PREFETCH  ACCESS:          0  HIT:          0  MISS:          0
cpu0_ITLB WRITEBACK ACCESS:          0  HIT:          0  MISS:          0
cpu0_L1I TOTAL     ACCESS:    2974055  HIT:    2973967  MISS:         88
cpu0_L1I LOAD      ACCESS:    2974055  HIT:    2973967  MISS:         88
cpu0_L1I RFO       ACCESS:          0  HIT:          0  MISS:          0
cpu0_L1I PREFETCH  ACCESS:          0  HIT:          0  MISS:          0
cpu0_L1I WRITEBACK ACCESS:          0  HIT:          0  MISS:          0
cpu0_STLB TOTAL     ACCESS:     210182  HIT:      55372  MISS:     154810
cpu0_STLB LOAD      ACCESS:     208472  HIT:      53667  MISS:     154805
cpu0_STLB RFO       ACCESS:       1710  HIT:       1705  MISS:          5
cpu0_STLB PREFETCH  ACCESS:          0  HIT:          0  MISS:          0
cpu0_STLB WRITEBACK ACCESS:          0  HIT:          0  MISS:          0
cpu0_L1D TOTAL     ACCESS:   18526294  HIT:   17802032  MISS:     724262
cpu0_L1D LOAD      ACCESS:   16098715  HIT:   15375163  MISS:     723552
cpu0_L1D RFO       ACCESS:    2272944  HIT:    2272935  MISS:          9
cpu0_L1D PREFETCH  ACCESS:          0  HIT:          0  MISS:          0
cpu0_L1D WRITEBACK ACCESS:          0  HIT:          0  MISS:          0
cpu0_L2C TOTAL     ACCESS:    1039004  HIT:     457416  MISS:     581588
cpu0_L2C LOAD      ACCESS:     723640  HIT:     142209  MISS:     581431
cpu0_L2C RFO       ACCESS:          9  HIT:          0  MISS:          9
cpu0_L2C PREFETCH  ACCESS:          0  HIT:          0  MISS:          0
cpu0_L2C WRITEBACK ACCESS:     314654  HIT:     314648  MISS:          6
LLC TOTAL     ACCESS:     895694  HIT:     319221  MISS:     576473
LLC LOAD      ACCESS:     581431  HIT:       9212  MISS:     572219
LLC RFO       ACCESS:          9  HIT:          0  MISS:          9
LLC PREFETCH  ACCESS:          0  HIT:          0  MISS:          0
LLC WRITEBACK ACCESS:     314112  HIT:     309929  MISS:       4183
Heartbeat CPU 0 instructions: 86000002 cycles: 107952772 heartbeat IPC: 0.672981 cumulative IPC: 0.44826 (Simulation time: 2 hr 55 min 55 sec) 

Region of Interest Statistics
cpu0_DTLB TOTAL     ACCESS:   16564805  HIT:   16350984  MISS:     213821
cpu0_DTLB LOAD      ACCESS:   15086957  HIT:   14874945  MISS:     212012
cpu0_DTLB RFO       ACCESS:    1477848  HIT:    1476039  MISS:       1809
cpu0_DTLB PREFETCH  ACCESS:          0  HIT:          0  MISS:          0
cpu0_DTLB WRITEBACK ACCESS:          0  HIT:          0  MISS:          0
cpu0_ITLB TOTAL     ACCESS:     572394  HIT:     572393  MISS:          1
cpu0_ITLB LOAD      ACCESS:     572394  HIT:     572393  MISS:          1
cpu0_ITLB RFO       ACCESS:          0  HIT:          0  MISS:          0
cpu0_ITLB PREFETCH  ACCESS:          0  HIT:          0  MISS:          0
cpu0_ITLB WRITEBACK ACCESS:          0  HIT:          0  MISS:          0
cpu0_L1I TOTAL     ACCESS:    3196186  HIT:    3196098  MISS:         88
cpu0_L1I LOAD      ACCESS:    3196186  HIT:    3196098  MISS:         88
cpu0_L1I RFO       ACCESS:          0  HIT:          0  MISS:          0
cpu0_L1I PREFETCH  ACCESS:          0  HIT:          0  MISS:          0
cpu0_L1I WRITEBACK ACCESS:          0  HIT:          0  MISS:          0
cpu0_STLB TOTAL     ACCESS:     213822  HIT:      56846  MISS:     156976
cpu0_STLB LOAD      ACCESS:     212013  HIT:      55042  MISS:     156971
cpu0_STLB RFO       ACCESS:       1809  HIT:       1804  MISS:          5
cpu0_STLB PREFETCH  ACCESS:          0  HIT:          0  MISS:          0
cpu0_STLB WRITEBACK ACCESS:          0  HIT:          0  MISS:          0
cpu0_L1D TOTAL     ACCESS:   19611167  HIT:   18868353  MISS:     742814
cpu0_L1D LOAD      ACCESS:   17028049  HIT:   16285981  MISS:     742068
cpu0_L1D RFO       ACCESS:    2426322  HIT:    2426313  MISS:          9
cpu0_L1D PREFETCH  ACCESS:          0  HIT:          0  MISS:          0
cpu0_L1D WRITEBACK ACCESS:          0  HIT:          0  MISS:          0
cpu0_L2C TOTAL     ACCESS:    1066719  HIT:     469810  MISS:     596909
cpu0_L2C LOAD      ACCESS:     742156  HIT:     145404  MISS:     596752
cpu0_L2C RFO       ACCESS:          9  HIT:          0  MISS:          9
cpu0_L2C PREFETCH  ACCESS:          0  HIT:          0  MISS:          0
cpu0_L2C WRITEBACK ACCESS:     323817  HIT:     323811  MISS:          6
LLC TOTAL     ACCESS:     920066  HIT:     328802  MISS:     591264
LLC LOAD      ACCESS:     596752  HIT:       9818  MISS:     586934
LLC RFO       ACCESS:          9  HIT:          0  MISS:          9
LLC PREFETCH  ACCESS:          0  HIT:          0  MISS:          0
LLC WRITEBACK ACCESS:     323163  HIT:     318904  MISS:       4259
Heartbeat CPU 0 instructions: 88000002 cycles: 110929073 heartbeat IPC: 0.671975 cumulative IPC: 0.456254 (Simulation time: 3 hr 0 min 24 sec) 

Region of Interest Statistics
cpu0_DTLB TOTAL     ACCESS:   17474174  HIT:   17256566  MISS:     217608
cpu0_DTLB LOAD      ACCESS:   15908844  HIT:   15693160  MISS:     215684
cpu0_DTLB RFO       ACCESS:    1565330  HIT:    1563406  MISS:       1924
cpu0_DTLB PREFETCH  ACCESS:          0  HIT:          0  MISS:          0
cpu0_DTLB WRITEBACK ACCESS:          0  HIT:          0  MISS:          0
cpu0_ITLB TOTAL     ACCESS:     610387  HIT:     610386  MISS:          1
cpu0_ITLB LOAD      ACCESS:     610387  HIT:     610386  MISS:          1
cpu0_ITLB RFO       ACCESS:          0  HIT:          0  MISS:          0
cpu0_ITLB PREFETCH  ACCESS:          0  HIT:          0  MISS:          0
cpu0_ITLB WRITEBACK ACCESS:          0  HIT:          0  MISS:          0
cpu0_L1I TOTAL     ACCESS:    3418438  HIT:    3418350  MISS:         88
cpu0_L1I LOAD      ACCESS:    3418438  HIT:    3418350  MISS:         88
cpu0_L1I RFO       ACCESS:          0  HIT:          0  MISS:          0
cpu0_L1I PREFETCH  ACCESS:          0  HIT:          0  MISS:          0
cpu0_L1I WRITEBACK ACCESS:          0  HIT:          0  MISS:          0
cpu0_STLB TOTAL     ACCESS:     217609  HIT:      58470  MISS:     159139
cpu0_STLB LOAD      ACCESS:     215685  HIT:      56551  MISS:     159134
cpu0_STLB RFO       ACCESS:       1924  HIT:       1919  MISS:          5
cpu0_STLB PREFETCH  ACCESS:          0  HIT:          0  MISS:          0
cpu0_STLB WRITEBACK ACCESS:          0  HIT:          0  MISS:          0
cpu0_L1D TOTAL     ACCESS:   20695982  HIT:   19934582  MISS:     761400
cpu0_L1D LOAD      ACCESS:   17957334  HIT:   17196716  MISS:     760618
cpu0_L1D RFO       ACCESS:    2579694  HIT:    2579685  MISS:          9
cpu0_L1D PREFETCH  ACCESS:          0  HIT:          0  MISS:          0
cpu0_L1D WRITEBACK ACCESS:          0  HIT:          0  MISS:          0
cpu0_L2C TOTAL     ACCESS:    1094463  HIT:     482159  MISS:     612304
cpu0_L2C LOAD      ACCESS:     760706  HIT:     148560  MISS:     612146
cpu0_L2C RFO       ACCESS:          9  HIT:          0  MISS:          9
cpu0_L2C PREFETCH  ACCESS:          0  HIT:          0  MISS:          0
cpu0_L2C WRITEBACK ACCESS:     332975  HIT:     332969  MISS:          6
LLC TOTAL     ACCESS:     944683  HIT:     337946  MISS:     606737
LLC LOAD      ACCESS:     612146  HIT:      10486  MISS:     601660
LLC RFO       ACCESS:          9  HIT:          0  MISS:          9
LLC PREFETCH  ACCESS:          0  HIT:          0  MISS:          0
LLC WRITEBACK ACCESS:     332385  HIT:     327380  MISS:       5005
Heartbeat CPU 0 instructions: 90000002 cycles: 113903086 heartbeat IPC: 0.672492 cumulative IPC: 0.463709 (Simulation time: 3 hr 4 min 50 sec) 

Region of Interest Statistics
cpu0_DTLB TOTAL     ACCESS:   18383813  HIT:   18162741  MISS:     221072
cpu0_DTLB LOAD      ACCESS:   16731022  HIT:   16511956  MISS:     219066
cpu0_DTLB RFO       ACCESS:    1652791  HIT:    1650785  MISS:       2006
cpu0_DTLB PREFETCH  ACCESS:          0  HIT:          0  MISS:          0
cpu0_DTLB WRITEBACK ACCESS:          0  HIT:          0  MISS:          0
cpu0_ITLB TOTAL     ACCESS:     648370  HIT:     648369  MISS:          1
cpu0_ITLB LOAD      ACCESS:     648370  HIT:     648369  MISS:          1
cpu0_ITLB RFO       ACCESS:          0  HIT:          0  MISS:          0
cpu0_ITLB PREFETCH  ACCESS:          0  HIT:          0  MISS:          0
cpu0_ITLB WRITEBACK ACCESS:          0  HIT:          0  MISS:          0
cpu0_L1I TOTAL     ACCESS:    3640828  HIT:    3640740  MISS:         88
cpu0_L1I LOAD      ACCESS:    3640828  HIT:    3640740  MISS:         88
cpu0_L1I RFO       ACCESS:          0  HIT:          0  MISS:          0
cpu0_L1I PREFETCH  ACCESS:          0  HIT:          0  MISS:          0
cpu0_L1I WRITEBACK ACCESS:          0  HIT:          0  MISS:          0
cpu0_STLB TOTAL     ACCESS:     221073  HIT:      59764  MISS:     161309
cpu0_STLB LOAD      ACCESS:     219067  HIT:      57763  MISS:     161304
cpu0_STLB RFO       ACCESS:       2006  HIT:       2001  MISS:          5
cpu0_STLB PREFETCH  ACCESS:          0  HIT:          0  MISS:          0
cpu0_STLB WRITEBACK ACCESS:          0  HIT:          0  MISS:          0
cpu0_L1D TOTAL     ACCESS:   21781163  HIT:   21001199  MISS:     779964
cpu0_L1D LOAD      ACCESS:   18886981  HIT:   18107838  MISS:     779143
cpu0_L1D RFO       ACCESS:    2733063  HIT:    2733054  MISS:          9
cpu0_L1D PREFETCH  ACCESS:          0  HIT:          0  MISS:          0
cpu0_L1D WRITEBACK ACCESS:          0  HIT:          0  MISS:          0
cpu0_L2C TOTAL     ACCESS:    1122181  HIT:     494405  MISS:     627776
cpu0_L2C LOAD      ACCESS:     779231  HIT:     151615  MISS:     627616
cpu0_L2C RFO       ACCESS:          9  HIT:          0  MISS:          9
cpu0_L2C PREFETCH  ACCESS:          0  HIT:          0  MISS:          0
cpu0_L2C WRITEBACK ACCESS:     342129  HIT:     342123  MISS:          6
LLC TOTAL     ACCESS:     969343  HIT:     347647  MISS:     621696
LLC LOAD      ACCESS:     627616  HIT:      11176  MISS:     616440
LLC RFO       ACCESS:          9  HIT:          0  MISS:          9
LLC PREFETCH  ACCESS:          0  HIT:          0  MISS:          0
LLC WRITEBACK ACCESS:     341573  HIT:     336390  MISS:       5183
Heartbeat CPU 0 instructions: 92000000 cycles: 116871383 heartbeat IPC: 0.673786 cumulative IPC: 0.470698 (Simulation time: 3 hr 9 min 15 sec) 

Region of Interest Statistics
cpu0_DTLB TOTAL     ACCESS:   19292781  HIT:   19068234  MISS:     224547
cpu0_DTLB LOAD      ACCESS:   17552533  HIT:   17330066  MISS:     222467
cpu0_DTLB RFO       ACCESS:    1740248  HIT:    1738168  MISS:       2080
cpu0_DTLB PREFETCH  ACCESS:          0  HIT:          0  MISS:          0
cpu0_DTLB WRITEBACK ACCESS:          0  HIT:          0  MISS:          0
cpu0_ITLB TOTAL     ACCESS:     686352  HIT:     686351  MISS:          1
cpu0_ITLB LOAD      ACCESS:     686352  HIT:     686351  MISS:          1
cpu0_ITLB RFO       ACCESS:          0  HIT:          0  MISS:          0
cpu0_ITLB PREFETCH  ACCESS:          0  HIT:          0  MISS:          0
cpu0_ITLB WRITEBACK ACCESS:          0  HIT:          0  MISS:          0
cpu0_L1I TOTAL     ACCESS:    3863199  HIT:    3863111  MISS:         88
cpu0_L1I LOAD      ACCESS:    3863199  HIT:    3863111  MISS:         88
cpu0_L1I RFO       ACCESS:          0  HIT:          0  MISS:          0
cpu0_L1I PREFETCH  ACCESS:          0  HIT:          0  MISS:          0
cpu0_L1I WRITEBACK ACCESS:          0  HIT:          0  MISS:          0
cpu0_STLB TOTAL     ACCESS:     224548  HIT:      61077  MISS:     163471
cpu0_STLB LOAD      ACCESS:     222468  HIT:      59002  MISS:     163466
cpu0_STLB RFO       ACCESS:       2080  HIT:       2075  MISS:          5
cpu0_STLB PREFETCH  ACCESS:          0  HIT:          0  MISS:          0
cpu0_STLB WRITEBACK ACCESS:          0  HIT:          0  MISS:          0
cpu0_L1D TOTAL     ACCESS:   22865838  HIT:   22067307  MISS:     798531
cpu0_L1D LOAD      ACCESS:   19816130  HIT:   19018457  MISS:     797673
cpu0_L1D RFO       ACCESS:    2886433  HIT:    2886424  MISS:          9
cpu0_L1D PREFETCH  ACCESS:          0  HIT:          0  MISS:          0
cpu0_L1D WRITEBACK ACCESS:          0  HIT:          0  MISS:          0
cpu0_L2C TOTAL     ACCESS:    1149920  HIT:     506718  MISS:     643202
cpu0_L2C LOAD      ACCESS:     797761  HIT:     154721  MISS:     643040
cpu0_L2C RFO       ACCESS:          9  HIT:          0  MISS:          9
cpu0_L2C PREFETCH  ACCESS:          0  HIT:          0  MISS:          0
cpu0_L2C WRITEBACK ACCESS:     351301  HIT:     351295  MISS:          6
LLC TOTAL     ACCESS:     993966  HIT:     357272  MISS:     636694
LLC LOAD      ACCESS:     643040  HIT:      11880  MISS:     631160
LLC RFO       ACCESS:          9  HIT:          0  MISS:          9
LLC PREFETCH  ACCESS:          0  HIT:          0  MISS:          0
LLC WRITEBACK ACCESS:     350770  HIT:     345310  MISS:       5460
Heartbeat CPU 0 instructions: 94000000 cycles: 119847164 heartbeat IPC: 0.672092 cumulative IPC: 0.477197 (Simulation time: 3 hr 13 min 46 sec) 

Region of Interest Statistics
cpu0_DTLB TOTAL     ACCESS:   20202192  HIT:   19973996  MISS:     228196
cpu0_DTLB LOAD      ACCESS:   18374505  HIT:   18148499  MISS:     226006
cpu0_DTLB RFO       ACCESS:    1827687  HIT:    1825497  MISS:       2190
cpu0_DTLB PREFETCH  ACCESS:          0  HIT:          0  MISS:          0
cpu0_DTLB WRITEBACK ACCESS:          0  HIT:          0  MISS:          0
cpu0_ITLB TOTAL     ACCESS:     724358  HIT:     724357  MISS:          1
cpu0_ITLB LOAD      ACCESS:     724358  HIT:     724357  MISS:          1
cpu0_ITLB RFO       ACCESS:          0  HIT:          0  MISS:          0
cpu0_ITLB PREFETCH  ACCESS:          0  HIT:          0  MISS:          0
cpu0_ITLB WRITEBACK ACCESS:          0  HIT:          0  MISS:          0
cpu0_L1I TOTAL     ACCESS:    4085446  HIT:    4085358  MISS:         88
cpu0_L1I LOAD      ACCESS:    4085446  HIT:    4085358  MISS:         88
cpu0_L1I RFO       ACCESS:          0  HIT:          0  MISS:          0
cpu0_L1I PREFETCH  ACCESS:          0  HIT:          0  MISS:          0
cpu0_L1I WRITEBACK ACCESS:          0  HIT:          0  MISS:          0
cpu0_STLB TOTAL     ACCESS:     228197  HIT:      62554  MISS:     165643
cpu0_STLB LOAD      ACCESS:     226007  HIT:      60369  MISS:     165638
cpu0_STLB RFO       ACCESS:       2190  HIT:       2185  MISS:          5
cpu0_STLB PREFETCH  ACCESS:          0  HIT:          0  MISS:          0
cpu0_STLB WRITEBACK ACCESS:          0  HIT:          0  MISS:          0
cpu0_L1D TOTAL     ACCESS:   23950652  HIT:   23133548  MISS:     817104
cpu0_L1D LOAD      ACCESS:   20745407  HIT:   19929200  MISS:     816207
cpu0_L1D RFO       ACCESS:    3039804  HIT:    3039795  MISS:          9
cpu0_L1D PREFETCH  ACCESS:          0  HIT:          0  MISS:          0
cpu0_L1D WRITEBACK ACCESS:          0  HIT:          0  MISS:          0
cpu0_L2C TOTAL     ACCESS:    1177660  HIT:     519082  MISS:     658578
cpu0_L2C LOAD      ACCESS:     816295  HIT:     157880  MISS:     658415
cpu0_L2C RFO       ACCESS:          9  HIT:          0  MISS:          9
cpu0_L2C PREFETCH  ACCESS:          0  HIT:          0  MISS:          0
cpu0_L2C WRITEBACK ACCESS:     360468  HIT:     360462  MISS:          6
LLC TOTAL     ACCESS:    1018487  HIT:     366408  MISS:     652079
LLC LOAD      ACCESS:     658415  HIT:      12467  MISS:     645948
LLC RFO       ACCESS:          9  HIT:          0  MISS:          9
LLC PREFETCH  ACCESS:          0  HIT:          0  MISS:          0
LLC WRITEBACK ACCESS:     359915  HIT:     353859  MISS:       6056
Heartbeat CPU 0 instructions: 96000004 cycles: 122819829 heartbeat IPC: 0.672798 cumulative IPC: 0.483307 (Simulation time: 3 hr 18 min 10 sec) 

Region of Interest Statistics
cpu0_DTLB TOTAL     ACCESS:   21111589  HIT:   20879885  MISS:     231704
cpu0_DTLB LOAD      ACCESS:   19196483  HIT:   18967052  MISS:     229431
cpu0_DTLB RFO       ACCESS:    1915106  HIT:    1912833  MISS:       2273
cpu0_DTLB PREFETCH  ACCESS:          0  HIT:          0  MISS:          0
cpu0_DTLB WRITEBACK ACCESS:          0  HIT:          0  MISS:          0
cpu0_ITLB TOTAL     ACCESS:     762353  HIT:     762352  MISS:          1
cpu0_ITLB LOAD      ACCESS:     762353  HIT:     762352  MISS:          1
cpu0_ITLB RFO       ACCESS:          0  HIT:          0  MISS:          0
cpu0_ITLB PREFETCH  ACCESS:          0  HIT:          0  MISS:          0
cpu0_ITLB WRITEBACK ACCESS:          0  HIT:          0  MISS:          0
cpu0_L1I TOTAL     ACCESS:    4307626  HIT:    4307538  MISS:         88
cpu0_L1I LOAD      ACCESS:    4307626  HIT:    4307538  MISS:         88
cpu0_L1I RFO       ACCESS:          0  HIT:          0  MISS:          0
cpu0_L1I PREFETCH  ACCESS:          0  HIT:          0  MISS:          0
cpu0_L1I WRITEBACK ACCESS:          0  HIT:          0  MISS:          0
cpu0_STLB TOTAL     ACCESS:     231705  HIT:      63904  MISS:     167801
cpu0_STLB LOAD      ACCESS:     229432  HIT:      61636  MISS:     167796
cpu0_STLB RFO       ACCESS:       2273  HIT:       2268  MISS:          5
cpu0_STLB PREFETCH  ACCESS:          0  HIT:          0  MISS:          0
cpu0_STLB WRITEBACK ACCESS:          0  HIT:          0  MISS:          0
cpu0_L1D TOTAL     ACCESS:   25035256  HIT:   24199586  MISS:     835670
cpu0_L1D LOAD      ACCESS:   21674489  HIT:   20839755  MISS:     834734
cpu0_L1D RFO       ACCESS:    3193174  HIT:    3193165  MISS:          9
cpu0_L1D PREFETCH  ACCESS:          0  HIT:          0  MISS:          0
cpu0_L1D WRITEBACK ACCESS:          0  HIT:          0  MISS:          0
cpu0_L2C TOTAL     ACCESS:    1205386  HIT:     531551  MISS:     673835
cpu0_L2C LOAD      ACCESS:     834822  HIT:     161152  MISS:     673670
cpu0_L2C RFO       ACCESS:          9  HIT:          0  MISS:          9
cpu0_L2C PREFETCH  ACCESS:          0  HIT:          0  MISS:          0
cpu0_L2C WRITEBACK ACCESS:     369628  HIT:     369622  MISS:          6
LLC TOTAL     ACCESS:    1042849  HIT:     376003  MISS:     666846
LLC LOAD      ACCESS:     673670  HIT:      12985  MISS:     660685
LLC RFO       ACCESS:          9  HIT:          0  MISS:          9
LLC PREFETCH  ACCESS:          0  HIT:          0  MISS:          0
LLC WRITEBACK ACCESS:     369020  HIT:     362935  MISS:       6085
Heartbeat CPU 0 instructions: 98000002 cycles: 125795017 heartbeat IPC: 0.672226 cumulative IPC: 0.489033 (Simulation time: 3 hr 22 min 38 sec) 

Region of Interest Statistics
cpu0_DTLB TOTAL     ACCESS:   22020862  HIT:   21785248  MISS:     235614
cpu0_DTLB LOAD      ACCESS:   20018283  HIT:   19785067  MISS:     233216
cpu0_DTLB RFO       ACCESS:    2002579  HIT:    2000181  MISS:       2398
cpu0_DTLB PREFETCH  ACCESS:          0  HIT:          0  MISS:          0
cpu0_DTLB WRITEBACK ACCESS:          0  HIT:          0  MISS:          0
cpu0_ITLB TOTAL     ACCESS:     800356  HIT:     800355  MISS:          1
cpu0_ITLB LOAD      ACCESS:     800356  HIT:     800355  MISS:          1
cpu0_ITLB RFO       ACCESS:          0  HIT:          0  MISS:          0
cpu0_ITLB PREFETCH  ACCESS:          0  HIT:          0  MISS:          0
cpu0_ITLB WRITEBACK ACCESS:          0  HIT:          0  MISS:          0
cpu0_L1I TOTAL     ACCESS:    4529819  HIT:    4529731  MISS:         88
cpu0_L1I LOAD      ACCESS:    4529819  HIT:    4529731  MISS:         88
cpu0_L1I RFO       ACCESS:          0  HIT:          0  MISS:          0
cpu0_L1I PREFETCH  ACCESS:          0  HIT:          0  MISS:          0
cpu0_L1I WRITEBACK ACCESS:          0  HIT:          0  MISS:          0
cpu0_STLB TOTAL     ACCESS:     235615  HIT:      65643  MISS:     169972
cpu0_STLB LOAD      ACCESS:     233217  HIT:      63250  MISS:     169967
cpu0_STLB RFO       ACCESS:       2398  HIT:       2393  MISS:          5
cpu0_STLB PREFETCH  ACCESS:          0  HIT:          0  MISS:          0
cpu0_STLB WRITEBACK ACCESS:          0  HIT:          0  MISS:          0
cpu0_L1D TOTAL     ACCESS:   26119983  HIT:   25265734  MISS:     854249
cpu0_L1D LOAD      ACCESS:   22603682  HIT:   21750409  MISS:     853273
cpu0_L1D RFO       ACCESS:    3346543  HIT:    3346534  MISS:          9
cpu0_L1D PREFETCH  ACCESS:          0  HIT:          0  MISS:          0
cpu0_L1D WRITEBACK ACCESS:          0  HIT:          0  MISS:          0
cpu0_L2C TOTAL     ACCESS:    1233121  HIT:     543903  MISS:     689218
cpu0_L2C LOAD      ACCESS:     853361  HIT:     164311  MISS:     689050
cpu0_L2C RFO       ACCESS:          9  HIT:          0  MISS:          9
cpu0_L2C PREFETCH  ACCESS:          0  HIT:          0  MISS:          0
cpu0_L2C WRITEBACK ACCESS:     378784  HIT:     378778  MISS:          6
LLC TOTAL     ACCESS:    1067379  HIT:     385596  MISS:     681783
LLC LOAD      ACCESS:     689050  HIT:      13627  MISS:     675423
LLC RFO       ACCESS:          9  HIT:          0  MISS:          9
LLC PREFETCH  ACCESS:          0  HIT:          0  MISS:          0
LLC WRITEBACK ACCESS:     378167  HIT:     371884  MISS:       6283
Heartbeat CPU 0 instructions: 100000002 cycles: 128772582 heartbeat IPC: 0.67169 cumulative IPC: 0.494411 (Simulation time: 3 hr 27 min 5 sec) 

Region of Interest Statistics
cpu0_DTLB TOTAL     ACCESS:   22930313  HIT:   22690786  MISS:     239527
cpu0_DTLB LOAD      ACCESS:   20840282  HIT:   20603293  MISS:     236989
cpu0_DTLB RFO       ACCESS:    2090031  HIT:    2087493  MISS:       2538
cpu0_DTLB PREFETCH  ACCESS:          0  HIT:          0  MISS:          0
cpu0_DTLB WRITEBACK ACCESS:          0  HIT:          0  MISS:          0
cpu0_ITLB TOTAL     ACCESS:     838351  HIT:     838350  MISS:          1
cpu0_ITLB LOAD      ACCESS:     838351  HIT:     838350  MISS:          1
cpu0_ITLB RFO       ACCESS:          0  HIT:          0  MISS:          0
cpu0_ITLB PREFETCH  ACCESS:          0  HIT:          0  MISS:          0
cpu0_ITLB WRITEBACK ACCESS:          0  HIT:          0  MISS:          0
cpu0_L1I TOTAL     ACCESS:    4751966  HIT:    4751878  MISS:         88
cpu0_L1I LOAD      ACCESS:    4751966  HIT:    4751878  MISS:         88
cpu0_L1I RFO       ACCESS:          0  HIT:          0  MISS:          0
cpu0_L1I PREFETCH  ACCESS:          0  HIT:          0  MISS:          0
cpu0_L1I WRITEBACK ACCESS:          0  HIT:          0  MISS:          0
cpu0_STLB TOTAL     ACCESS:     239528  HIT:      67399  MISS:     172129
cpu0_STLB LOAD      ACCESS:     236990  HIT:      64866  MISS:     172124
cpu0_STLB RFO       ACCESS:       2538  HIT:       2533  MISS:          5
cpu0_STLB PREFETCH  ACCESS:          0  HIT:          0  MISS:          0
cpu0_STLB WRITEBACK ACCESS:          0  HIT:          0  MISS:          0
cpu0_L1D TOTAL     ACCESS:   27205007  HIT:   26332202  MISS:     872805
cpu0_L1D LOAD      ACCESS:   23533194  HIT:   22661399  MISS:     871795
cpu0_L1D RFO       ACCESS:    3499903  HIT:    3499894  MISS:          9
cpu0_L1D PREFETCH  ACCESS:          0  HIT:          0  MISS:          0
cpu0_L1D WRITEBACK ACCESS:          0  HIT:          0  MISS:          0
cpu0_L2C TOTAL     ACCESS:    1260854  HIT:     556321  MISS:     704533
cpu0_L2C LOAD      ACCESS:     871883  HIT:     167518  MISS:     704365
cpu0_L2C RFO       ACCESS:          9  HIT:          0  MISS:          9
cpu0_L2C PREFETCH  ACCESS:          0  HIT:          0  MISS:          0
cpu0_L2C WRITEBACK ACCESS:     387961  HIT:     387955  MISS:          6
LLC TOTAL     ACCESS:    1091867  HIT:     395242  MISS:     696625
LLC LOAD      ACCESS:     704365  HIT:      14221  MISS:     690144
LLC RFO       ACCESS:          9  HIT:          0  MISS:          9
LLC PREFETCH  ACCESS:          0  HIT:          0  MISS:          0
LLC WRITEBACK ACCESS:     387340  HIT:     380936  MISS:       6404
Heartbeat CPU 0 instructions: 102000001 cycles: 131742035 heartbeat IPC: 0.673524 cumulative IPC: 0.49952 (Simulation time: 3 hr 31 min 33 sec) 

Region of Interest Statistics
cpu0_DTLB TOTAL     ACCESS:   23839409  HIT:   23596597  MISS:     242812
cpu0_DTLB LOAD      ACCESS:   21661900  HIT:   21421683  MISS:     240217
cpu0_DTLB RFO       ACCESS:    2177509  HIT:    2174914  MISS:       2595
cpu0_DTLB PREFETCH  ACCESS:          0  HIT:          0  MISS:          0
cpu0_DTLB WRITEBACK ACCESS:          0  HIT:          0  MISS:          0
cpu0_ITLB TOTAL     ACCESS:     876323  HIT:     876322  MISS:          1
cpu0_ITLB LOAD      ACCESS:     876323  HIT:     876322  MISS:          1
cpu0_ITLB RFO       ACCESS:          0  HIT:          0  MISS:          0
cpu0_ITLB PREFETCH  ACCESS:          0  HIT:          0  MISS:          0
cpu0_ITLB WRITEBACK ACCESS:          0  HIT:          0  MISS:          0
cpu0_L1I TOTAL     ACCESS:    4974311  HIT:    4974223  MISS:         88
cpu0_L1I LOAD      ACCESS:    4974311  HIT:    4974223  MISS:         88
cpu0_L1I RFO       ACCESS:          0  HIT:          0  MISS:          0
cpu0_L1I PREFETCH  ACCESS:          0  HIT:          0  MISS:          0
cpu0_L1I WRITEBACK ACCESS:          0  HIT:          0  MISS:          0
cpu0_STLB TOTAL     ACCESS:     242813  HIT:      68512  MISS:     174301
cpu0_STLB LOAD      ACCESS:     240218  HIT:      65922  MISS:     174296
cpu0_STLB RFO       ACCESS:       2595  HIT:       2590  MISS:          5
cpu0_STLB PREFETCH  ACCESS:          0  HIT:          0  MISS:          0
cpu0_STLB WRITEBACK ACCESS:          0  HIT:          0  MISS:          0
cpu0_L1D TOTAL     ACCESS:   28289920  HIT:   27398542  MISS:     891378
cpu0_L1D LOAD      ACCESS:   24462559  HIT:   23572228  MISS:     890331
cpu0_L1D RFO       ACCESS:    3653284  HIT:    3653275  MISS:          9
cpu0_L1D PREFETCH  ACCESS:          0  HIT:          0  MISS:          0
cpu0_L1D WRITEBACK ACCESS:          0  HIT:          0  MISS:          0
cpu0_L2C TOTAL     ACCESS:    1288593  HIT:     568603  MISS:     719990
cpu0_L2C LOAD      ACCESS:     890419  HIT:     170598  MISS:     719821
cpu0_L2C RFO       ACCESS:          9  HIT:          0  MISS:          9
cpu0_L2C PREFETCH  ACCESS:          0  HIT:          0  MISS:          0
cpu0_L2C WRITEBACK ACCESS:     397127  HIT:     397121  MISS:          6
LLC TOTAL     ACCESS:    1116478  HIT:     404674  MISS:     711804
LLC LOAD      ACCESS:     719821  HIT:      14937  MISS:     704884
LLC RFO       ACCESS:          9  HIT:          0  MISS:          9
LLC PREFETCH  ACCESS:          0  HIT:          0  MISS:          0
LLC WRITEBACK ACCESS:     396494  HIT:     389652  MISS:       6842
Heartbeat CPU 0 instructions: 104000003 cycles: 134714429 heartbeat IPC: 0.672859 cumulative IPC: 0.504332 (Simulation time: 3 hr 35 min 59 sec) 

Region of Interest Statistics
cpu0_DTLB TOTAL     ACCESS:   24748699  HIT:   24502318  MISS:     246381
cpu0_DTLB LOAD      ACCESS:   22483758  HIT:   22240065  MISS:     243693
cpu0_DTLB RFO       ACCESS:    2264941  HIT:    2262253  MISS:       2688
cpu0_DTLB PREFETCH  ACCESS:          0  HIT:          0  MISS:          0
cpu0_DTLB WRITEBACK ACCESS:          0  HIT:          0  MISS:          0
cpu0_ITLB TOTAL     ACCESS:     914319  HIT:     914318  MISS:          1
cpu0_ITLB LOAD      ACCESS:     914319  HIT:     914318  MISS:          1
cpu0_ITLB RFO       ACCESS:          0  HIT:          0  MISS:          0
cpu0_ITLB PREFETCH  ACCESS:          0  HIT:          0  MISS:          0
cpu0_ITLB WRITEBACK ACCESS:          0  HIT:          0  MISS:          0
cpu0_L1I TOTAL     ACCESS:    5196561  HIT:    5196473  MISS:         88
cpu0_L1I LOAD      ACCESS:    5196561  HIT:    5196473  MISS:         88
cpu0_L1I RFO       ACCESS:          0  HIT:          0  MISS:          0
cpu0_L1I PREFETCH  ACCESS:          0  HIT:          0  MISS:          0
cpu0_L1I WRITEBACK ACCESS:          0  HIT:          0  MISS:          0
cpu0_STLB TOTAL     ACCESS:     246382  HIT:      69917  MISS:     176465
cpu0_STLB LOAD      ACCESS:     243694  HIT:      67234  MISS:     176460
cpu0_STLB RFO       ACCESS:       2688  HIT:       2683  MISS:          5
cpu0_STLB PREFETCH  ACCESS:          0  HIT:          0  MISS:          0
cpu0_STLB WRITEBACK ACCESS:          0  HIT:          0  MISS:          0
cpu0_L1D TOTAL     ACCESS:   29374597  HIT:   28464648  MISS:     909949
cpu0_L1D LOAD      ACCESS:   25391706  HIT:   24482842  MISS:     908864
cpu0_L1D RFO       ACCESS:    3806657  HIT:    3806648  MISS:          9
cpu0_L1D PREFETCH  ACCESS:          0  HIT:          0  MISS:          0
cpu0_L1D WRITEBACK ACCESS:          0  HIT:          0  MISS:          0
cpu0_L2C TOTAL     ACCESS:    1316305  HIT:     580855  MISS:     735450
cpu0_L2C LOAD      ACCESS:     908952  HIT:     173672  MISS:     735280
cpu0_L2C RFO       ACCESS:          9  HIT:          0  MISS:          9
cpu0_L2C PREFETCH  ACCESS:          0  HIT:          0  MISS:          0
cpu0_L2C WRITEBACK ACCESS:     406268  HIT:     406262  MISS:          6
LLC TOTAL     ACCESS:    1141091  HIT:     414431  MISS:     726660
LLC LOAD      ACCESS:     735280  HIT:      15641  MISS:     719639
LLC RFO       ACCESS:          9  HIT:          0  MISS:          9
LLC PREFETCH  ACCESS:          0  HIT:          0  MISS:          0
LLC WRITEBACK ACCESS:     405647  HIT:     398704  MISS:       6943
Heartbeat CPU 0 instructions: 106000004 cycles: 137683588 heartbeat IPC: 0.673592 cumulative IPC: 0.508899 (Simulation time: 3 hr 40 min 23 sec) 

Region of Interest Statistics
cpu0_DTLB TOTAL     ACCESS:   25657793  HIT:   25407749  MISS:     250044
cpu0_DTLB LOAD      ACCESS:   23305438  HIT:   23058172  MISS:     247266
cpu0_DTLB RFO       ACCESS:    2352355  HIT:    2349577  MISS:       2778
cpu0_DTLB PREFETCH  ACCESS:          0  HIT:          0  MISS:          0
cpu0_DTLB WRITEBACK ACCESS:          0  HIT:          0  MISS:          0
cpu0_ITLB TOTAL     ACCESS:     952299  HIT:     952298  MISS:          1
cpu0_ITLB LOAD      ACCESS:     952299  HIT:     952298  MISS:          1
cpu0_ITLB RFO       ACCESS:          0  HIT:          0  MISS:          0
cpu0_ITLB PREFETCH  ACCESS:          0  HIT:          0  MISS:          0
cpu0_ITLB WRITEBACK ACCESS:          0  HIT:          0  MISS:          0
cpu0_L1I TOTAL     ACCESS:    5418770  HIT:    5418682  MISS:         88
cpu0_L1I LOAD      ACCESS:    5418770  HIT:    5418682  MISS:         88
cpu0_L1I RFO       ACCESS:          0  HIT:          0  MISS:          0
cpu0_L1I PREFETCH  ACCESS:          0  HIT:          0  MISS:          0
cpu0_L1I WRITEBACK ACCESS:          0  HIT:          0  MISS:          0
cpu0_STLB TOTAL     ACCESS:     250045  HIT:      71416  MISS:     178629
cpu0_STLB LOAD      ACCESS:     247267  HIT:      68643  MISS:     178624
cpu0_STLB RFO       ACCESS:       2778  HIT:       2773  MISS:          5
cpu0_STLB PREFETCH  ACCESS:          0  HIT:          0  MISS:          0
cpu0_STLB WRITEBACK ACCESS:          0  HIT:          0  MISS:          0
cpu0_L1D TOTAL     ACCESS:   30459240  HIT:   29530734  MISS:     928506
cpu0_L1D LOAD      ACCESS:   26320835  HIT:   25393452  MISS:     927383
cpu0_L1D RFO       ACCESS:    3960013  HIT:    3960004  MISS:          9
cpu0_L1D PREFETCH  ACCESS:          0  HIT:          0  MISS:          0
cpu0_L1D WRITEBACK ACCESS:          0  HIT:          0  MISS:          0
cpu0_L2C TOTAL     ACCESS:    1344032  HIT:     593164  MISS:     750868
cpu0_L2C LOAD      ACCESS:     927471  HIT:     176775  MISS:     750696
cpu0_L2C RFO       ACCESS:          9  HIT:          0  MISS:          9
cpu0_L2C PREFETCH  ACCESS:          0  HIT:          0  MISS:          0
cpu0_L2C WRITEBACK ACCESS:     415438  HIT:     415432  MISS:          6
LLC TOTAL     ACCESS:    1165713  HIT:     423967  MISS:     741746
LLC LOAD      ACCESS:     750696  HIT:      16354  MISS:     734342
LLC RFO       ACCESS:          9  HIT:          0  MISS:          9
LLC PREFETCH  ACCESS:          0  HIT:          0  MISS:          0
[...]
LLC PREFETCH  ACCESS:          0  HIT:          0  MISS:          0
LLC WRITEBACK ACCESS:    6978182  HIT:    6936758  MISS:      41424
Finished CPU 0 instructions: 1500000003 cycles: 2296511363 cumulative IPC: 0.653165 (Simulation time: 24 hr 1 min 54 sec) 

ChampSim completed all CPUs

Region of Interest Statistics

CPU 0 cumulative IPC: 0.653165 instructions: 1500000003 cycles: 2296511363
cpu0_DTLB TOTAL     ACCESS:  579348667  HIT:  571895271  MISS:    7453396
cpu0_DTLB LOAD      ACCESS:  519820178  HIT:  513158568  MISS:    6661610
cpu0_DTLB RFO       ACCESS:   59528489  HIT:   58736703  MISS:     791786
cpu0_DTLB PREFETCH  ACCESS:          0  HIT:          0  MISS:          0
cpu0_DTLB WRITEBACK ACCESS:          0  HIT:          0  MISS:          0
cpu0_DTLB TRANSLATION ACCESS:          0  HIT:          0  MISS:          0
cpu0_DTLB PREFETCH  REQUESTED:          0  ISSUED:          0  USEFUL:          0  USELESS:          0
cpu0_DTLB AVERAGE MISS LATENCY: 15.2671 cycles
cpu0_ITLB TOTAL     ACCESS:   21705475  HIT:   21705444  MISS:         31
cpu0_ITLB LOAD      ACCESS:   21705475  HIT:   21705444  MISS:         31
cpu0_ITLB RFO       ACCESS:          0  HIT:          0  MISS:          0
cpu0_ITLB PREFETCH  ACCESS:          0  HIT:          0  MISS:          0
cpu0_ITLB WRITEBACK ACCESS:          0  HIT:          0  MISS:          0
cpu0_ITLB TRANSLATION ACCESS:          0  HIT:          0  MISS:          0
cpu0_ITLB PREFETCH  REQUESTED:          0  ISSUED:          0  USEFUL:          0  USELESS:          0
cpu0_ITLB AVERAGE MISS LATENCY: 245.484 cycles
cpu0_L1I TOTAL     ACCESS:  111075171  HIT:  111074144  MISS:       1027
cpu0_L1I LOAD      ACCESS:  111075171  HIT:  111074144  MISS:       1027
cpu0_L1I RFO       ACCESS:          0  HIT:          0  MISS:          0
cpu0_L1I PREFETCH  ACCESS:          0  HIT:          0  MISS:          0
cpu0_L1I WRITEBACK ACCESS:          0  HIT:          0  MISS:          0
cpu0_L1I TRANSLATION ACCESS:          0  HIT:          0  MISS:          0
cpu0_L1I PREFETCH  REQUESTED:          0  ISSUED:          0  USEFUL:          0  USELESS:          0
cpu0_L1I AVERAGE MISS LATENCY: 342.955 cycles
cpu0_STLB TOTAL     ACCESS:    7453427  HIT:    6406518  MISS:    1046909
cpu0_STLB LOAD      ACCESS:    6661641  HIT:    5617337  MISS:    1044304
cpu0_STLB RFO       ACCESS:     791786  HIT:     789181  MISS:       2605
cpu0_STLB PREFETCH  ACCESS:          0  HIT:          0  MISS:          0
cpu0_STLB WRITEBACK ACCESS:          0  HIT:          0  MISS:          0
cpu0_STLB TRANSLATION ACCESS:          0  HIT:          0  MISS:          0
cpu0_STLB PREFETCH  REQUESTED:          0  ISSUED:          0  USEFUL:          0  USELESS:          0
cpu0_STLB AVERAGE MISS LATENCY: 44.5707 cycles
cpu0_L1D TOTAL     ACCESS:  643096617  HIT:  615556059  MISS:   27540558
cpu0_L1D LOAD      ACCESS:  553486752  HIT:  526175954  MISS:   27310798
cpu0_L1D RFO       ACCESS:   88604736  HIT:   88447054  MISS:     157682
cpu0_L1D PREFETCH  ACCESS:          0  HIT:          0  MISS:          0
cpu0_L1D WRITEBACK ACCESS:          0  HIT:          0  MISS:          0
cpu0_L1D TRANSLATION ACCESS:    1005129  HIT:     933051  MISS:      72078
cpu0_L1D PREFETCH  REQUESTED:          0  ISSUED:          0  USEFUL:          0  USELESS:          0
cpu0_L1D AVERAGE MISS LATENCY: 269.92 cycles
cpu0_L2C TOTAL     ACCESS:   36221101  HIT:   18866888  MISS:   17354213
cpu0_L2C LOAD      ACCESS:   27311824  HIT:   10092821  MISS:   17219003
cpu0_L2C RFO       ACCESS:     157682  HIT:      24641  MISS:     133041
cpu0_L2C PREFETCH  ACCESS:          0  HIT:          0  MISS:          0
cpu0_L2C WRITEBACK ACCESS:    8679517  HIT:    8678974  MISS:        543
cpu0_L2C TRANSLATION ACCESS:      72078  HIT:      70452  MISS:       1626
cpu0_L2C PREFETCH  REQUESTED:          0  ISSUED:          0  USEFUL:          0  USELESS:          0
cpu0_L2C AVERAGE MISS LATENCY: 410.874 cycles
LLC TOTAL     ACCESS:   24331842  HIT:    8875688  MISS:   15456154
LLC LOAD      ACCESS:   17218993  HIT:    1824325  MISS:   15394668
LLC RFO       ACCESS:     133041  HIT:     113681  MISS:      19360
LLC PREFETCH  ACCESS:          0  HIT:          0  MISS:          0
LLC WRITEBACK ACCESS:    6978182  HIT:    6936758  MISS:      41424
LLC TRANSLATION ACCESS:       1626  HIT:        924  MISS:        702
LLC PREFETCH  REQUESTED:          0  ISSUED:          0  USEFUL:          0  USELESS:          0
LLC AVERAGE MISS LATENCY: 437.751 cycles
~~~~~~~~~~Reuse Distance Profiler output~~~~~~~~~~
0	25174016	3249488
1	9972144	6406288
2	10785584	9062256
3	14697312	12729664
4	16746624	14440800
5	20224944	16697968
6	24915248	19504192
7	25457392	19721584
8	24246832	19684480
9	21251264	18023568
10	19074816	17403664
11	16508416	15064032
12	15036288	14075184
13	14065760	13337904
14	14094640	13484640
15	12946672	12184144
16	11358112	10827040
17	9298496	8723600
18	8678224	8181648
19	7838384	7311328
20	7177488	6749680
21	7165104	6724192
22	6138912	5711824
23	7174336	6533456
24	5236432	4817792
25	5055456	4677824
26	5077600	4697776
27	4774112	4355536
28	4771088	4343104
29	4709792	4343008
30	4796816	4457872
31	4704560	4329440
32	4323664	3903392
33	3942416	3478368
34	3597024	3161184
35	3476256	3006832
36	3039840	2580384
37	2888288	2461488
38	2923504	2503696
39	2729168	2294144
40	2597200	2152192
41	2411888	2013984
42	2502432	2105024
43	2440032	2077872
44	2335728	1873328
45	2376848	1992944
46	2260464	1927184
47	2155936	1824096
48	2121264	1789360
49	1985776	1688000
50	2002160	1701392
51	1927552	1596752
52	2069888	1777008
53	2032464	1748816
54	2096192	1837328
55	2036160	1805504
56	2131360	1880688
57	2217008	1982320
58	2308800	2097872
59	2312032	2122496
60	2118592	1932896
61	2179520	1992960
62	2108032	1963360
63	2148848	1959664
64	4273792	3937760
66	4293648	4024864
68	4204576	3947824
70	4249952	4004352
72	4314400	4077232
74	4231408	3973904
76	4060096	3779840
78	3891360	3668304
80	4236560	3986752
82	4281424	3997888
84	4532944	4277536
86	4415168	4156336
88	4443264	4181264
90	4708272	4450016
92	5005696	4677184
94	5109648	4758208
96	5465072	5014304
98	5600096	5051344
100	6072288	5417424
102	6168688	5305472
104	6238560	5363984
106	5926960	5052528
108	6060672	5202816
110	5640256	4848224
112	5532032	4870432
114	4288752	3769248
116	3339984	2917024
118	2564848	2266240
120	2160544	1880432
122	1740032	1506208
124	1610160	1381888
126	1442992	1255664
128	2263168	1978032
132	1956304	1731888
136	1557600	1389424
140	1405744	1289120
144	1367376	1290928
148	1349888	1298384
152	1327520	1299248
156	1253920	1235376
160	1195360	1180768
164	1052864	1028272
168	994912	951472
172	867936	831328
176	825328	786464
180	773248	726608
184	673952	658080
188	693856	687216
192	618496	615296
196	602336	601616
200	544384	544064
204	485312	485280
208	470656	470544
212	436752	436672
216	397632	397568
220	325600	325536
224	244192	243968
228	226240	226192
232	186032	186016
236	148112	148096
240	114336	114336
244	103568	103568
248	72288	72288
252	54784	54784
256	80768	80768
264	68880	68880
272	49200	49200
280	32592	32592
288	21712	21712
296	10176	10176
304	6464	6464
312	2576	2576
320	1088	1088
328	1024	1024
336	816	816
344	4144	4144
352	1504	1504
360	752	752
368	528	528
376	960	960
384	704	704
392	848	848
400	928	928
408	624	624
416	848	848
424	2240	2240
432	2112	2112
440	3168	3168
448	5136	5136
456	10176	10176
464	10448	10448
472	18752	18752
480	21600	21600
488	22800	22800
496	27840	27840
504	8384	8384
512	20400	20400
528	41376	41376
544	48048	48048
560	43968	43968
576	53680	53680
592	63648	63648
608	43344	43344
624	12176	12176
640	4672	4672
656	6544	6544
672	23312	23312
688	25776	25776
704	39984	39984
720	27808	27808
736	11504	11504
752	11296	11296
768	18480	18480
784	24848	24848
800	32304	32304
816	39584	39584
832	59744	59744
848	51952	51952
864	18608	18608
880	17328	17328
896	19408	19408
912	14240	14240
928	7008	7008
944	12320	12320
960	4256	4256
976	6688	6688
992	21360	21360
1008	23712	23712
1024	20912	20912
1056	103136	103136
1088	69776	69776
1120	63984	63984
1152	58480	58480
1184	23920	23920
1216	52448	52448
1248	110352	110352
1280	245920	245920
1312	87424	87424
1344	50736	50736
1376	207344	207344
1408	485792	485632
1440	15728	15568
1472	288	288
1504	800	800
1536	32	32
1568	0	0
1600	144	144
1632	832	832
1664	3312	3312
1696	11824	11824
1728	40144	40144
1760	85136	85136
1792	132896	132896
1824	210896	210896
1856	292464	292464
1888	372256	372256
1920	356464	356464
1952	276288	276288
1984	205584	205584
2016	187424	187424
2048	340096	340096
2112	70784	70784
2176	11488	11488
2240	0	0
2304	0	0
2368	0	0
2432	0	0
2496	0	0
2560	0	0
2624	0	0
2688	0	0
2752	0	0
2816	0	0
2880	0	0
2944	0	0
3008	0	0
3072	0	0
3136	0	0
3200	0	0
3264	0	0
3328	0	0
3392	0	0
3456	0	0
3520	0	0
3584	0	0
3648	0	0
3712	0	0
3776	0	0
3840	0	0
3904	0	0
3968	0	0
4032	0	0
4096	0	0
4224	0	0
4352	0	0
4480	4960	4960
4608	1712	1712
4736	0	0
4864	0	0
4992	0	0
5120	0	0
5248	32	0
5376	0	0
5504	0	0
5632	0	0
5760	0	0
5888	32	0
6016	0	0
6144	16	0
6272	2512	2512
6400	17424	17408
6528	37360	37360
6656	28864	28864
6784	12928	12912
6912	2320	2304
7040	544	544
7168	128	128
7296	16	0
7424	0	0
7552	0	0
7680	16	16
7808	0	0
7936	32	16
8064	0	0
8192	32	0
8448	0	0
8704	0	0
8960	144	112
9216	17328	17312
9472	52064	52048
9728	128	128
9984	0	0
10240	64	0
10496	16	0
10752	0	0
11008	16	0
11264	0	0
11520	16	0
11776	16	16
12032	16	0
12288	0	0
12544	80	48
12800	80	64
13056	192	192
13312	256	208
13568	208	192
13824	192	192
14080	208	192
14336	144	144
14592	12752	12736
14848	10448	10416
15104	39008	38992
15360	7568	7536
15616	160	160
15872	224	224
16128	176	144
16384	432	432
16896	320	288
17408	496	480
17920	480	432
18432	496	448
18944	448	432
19456	320	304
19968	320	272
20480	560	512
20992	304	288
21504	464	448
22016	562144	562128
22528	926720	926688
23040	208176	208112
23552	28544	28544
24064	640	608
24576	432	384
25088	400	320
25600	400	368
26112	400	384
26624	336	336
27136	400	384
27648	336	320
28160	416	384
28672	320	320
29184	368	352
29696	1840	1792
30208	624592	624528
30720	1366224	1365808
31232	874272	873648
31744	1912192	1911840
32256	1619040	1618480
32768	10960	9968
33792	1184	320
34816	1280	208
35840	1472	288
36864	1280	224
37888	1312	320
38912	1216	288
39936	1264	256
40960	1084368	1083264
41984	1740144	1739040
43008	1232	384
44032	1440	384
45056	1504	272
46080	1104	272
47104	1376	288
48128	1328	256
49152	1344	256
50176	1264	336
51200	1232	288
52224	1184	304
53248	1120	224
54272	1136	240
55296	1280	256
56320	1232	224
57344	1088	128
58368	1072	112
59392	1552	64
60416	1424	128
61440	1280	112
62464	1456	160
63488	1472	160
64512	1472	96
65536	2464	112
67584	2768	128
69632	3424	528
71680	4480	112
73728	4752	128
75776	1632	128
77824	736	160
79872	752	128
81920	976	256
83968	640	144
86016	912	96
88064	896	160
90112	1104	400
92160	2048	1440
94208	672	160
96256	640	80
98304	624	96
100352	800	240
102400	992	480
104448	1968	496
106496	2144	384
108544	2464	512
110592	1696	224
112640	256	64
114688	272	160
116736	784	672
118784	304	176
120832	240	144
122880	192	160
124928	304	160
126976	672	592
129024	720	624
131072	1552	640
135168	1136	400
139264	1280	784
143360	1376	848
147456	768	336
151552	1008	512
155648	432	288
159744	928	256
163840	1280	512
167936	1024	464
172032	1008	224
176128	544	272
180224	848	304
184320	1280	1072
188416	784	320
192512	928	544
196608	496	336
200704	752	528
204800	672	432
208896	1168	944
212992	1520	976
217088	928	704
221184	752	512
225280	656	384
229376	20976	20448
233472	44784	44576
237568	448	224
241664	1408	896
245760	784	560
249856	4784	4176
253952	141584	140656
258048	1008	464
262144	2480	1504
270336	79664	78704
278528	2864	1920
286720	10432	9968
294912	90704	89168
303104	2080	816
311296	10896	10480
319488	41488	41104
327680	463184	462752
335872	1360	912
344064	2176	1280
352256	2000	752
360448	1808	832
368640	1712	624
376832	1888	880
385024	2192	624
393216	832	368
401408	3344	2912
409600	19952	19488
417792	2353328	2352704
425984	14848	14288
434176	2256	1808
442368	2064	1168
450560	1920	1200
458752	2032	1168
466944	2416	1200
475136	1536	432
483328	2720	1072
491520	1584	816
499712	2384	608
507904	2336	848
516096	1136	320
524288	4368	2544
540672	3216	1792
557056	3728	2352
573440	2736	688
589824	2768	1024
606208	3968	1808
622592	2944	1680
638976	3440	2352
655360	3152	2080
671744	10512	9712
688128	1856	256
704512	3968	2640
720896	3216	2256
737280	4112	3552
753664	2192	1968
770048	768	208
786432	672	144
802816	1184	624
819200	752	576
835584	320	144
851968	1072	528
868352	1056	512
884736	80	80
901120	400	16
917504	384	64
933888	48	16
950272	32	32
966656	16	16
983040	32	32
999424	0	0
1015808	16	16
1032192	0	0
1048576	32	32
1081344	16	16
1114112	32	32
1146880	64	64
1179648	32	32
1212416	32	32
1245184	32	32
1277952	16	16
1310720	32	32
1343488	32	32
1376256	640	640
1409024	11504	11504
1441792	160	160
1474560	80	80
1507328	96	96
1540096	80	80
1572864	128	128
1605632	96	96
1638400	64	64
1671168	128	128
1703936	64	64
1736704	224	224
1769472	48	48
1802240	32	32
1835008	64	64
1867776	96	96
1900544	80	80
1933312	48	48
1966080	80	80
1998848	32	32
2031616	48	48
2064384	64	64
2097152	144	144
2162688	80	80
2228224	112	112
2293760	240	240
2359296	368	368
2424832	416	416
2490368	432	432
2555904	368	368
2621440	224	224
2686976	304	304
2752512	528	528
2818048	400	400
2883584	400	400
2949120	368	368
3014656	496	496
3080192	928	928
3145728	848	832
3211264	288	288
3276800	416	416
3342336	352	352
3407872	448	448
3473408	448	448
3538944	240	240
3604480	512	512
3670016	368	368
3735552	400	400
3801088	512	512
3866624	544	544
3932160	368	368
3997696	368	368
4063232	432	432
4128768	352	352
4194304	1296	1296
4325376	864	864
4456448	736	736
4587520	1872	1872
4718592	1744	1744
4849664	199664	199664
4980736	44800	44800
5111808	3280	3280
5242880	5824	5824
5373952	5408	5408
5505024	5712	5696
5636096	3552	3552
5767168	1568	1568
5898240	1456	1456
6029312	1648	1648
6160384	1536	1536
6291456	1392	1392
6422528	1008	1008
6553600	1408	1408
6684672	1440	1440
6815744	1552	1552
6946816	7360	7360
7077888	1744	1744
7208960	4448	4448
7340032	4432	4432
7471104	3520	3520
7602176	1936	1936
7733248	2064	2064
7864320	2192	2192
7995392	2288	2288
8126464	2208	2208
8257536	2032	2032
8388608	4048	4048
8650752	3968	3968
8912896	3728	3728
9175040	3648	3648
9437184	3824	3824
9699328	4272	4272
9961472	4272	4272
10223616	4064	4064
10485760	4128	4128
10747904	3392	3392
11010048	3488	3472
11272192	3216	3216
11534336	4240	4240
11796480	3872	3872
12058624	3840	3840
12320768	3520	3520
12582912	3952	3952
12845056	3440	3440
13107200	3984	3984
13369344	4192	4192
13631488	3536	3536
13893632	4176	4176
14155776	3968	3968
14417920	4096	4096
14680064	4032	4032
14942208	3968	3968
15204352	4656	4656
15466496	4048	4048
15728640	3968	3968
15990784	3856	3856
16252928	3984	3984
16515072	3904	3904
16777216	8880	8880
17301504	6752	6752
17825792	7568	7568
18350080	7680	7680
18874368	5632	5632
19398656	6240	6240
19922944	5968	5968
20447232	6784	6784
20971520	6208	6208
21495808	5472	5472
22020096	5648	5648
22544384	6096	6096
23068672	5440	5440
23592960	5440	5440
24117248	5424	5424
24641536	5456	5456
25165824	5696	5696
25690112	5008	5008
26214400	5360	5360
26738688	5328	5328
27262976	3504	3504
27787264	2656	2656
28311552	2784	2784
28835840	2784	2784
29360128	3456	3456
29884416	1152	1152
30408704	1728	1728
30932992	1680	1680
31457280	1232	1232
31981568	1744	1744
32505856	1536	1536
33030144	1344	1344
33554432	2800	2800
34603008	3456	3456
35651584	3488	3488
36700160	3472	3472
37748736	994816	994816
38797312	4704	4704
39845888	4848	4848
40894464	5536	5536
41943040	6192	6192
42991616	6288	6288
44040192	6208	6208
45088768	6384	6384
46137344	6448	6448
47185920	6336	6336
48234496	6464	6464
49283072	6256	6256
50331648	6352	6352
51380224	5952	5952
52428800	6672	6672
53477376	7360	7360
54525952	10032	10032
55574528	9168	9168
56623104	9920	9920
57671680	6176	6176
58720256	6128	6112
59768832	6400	6400
60817408	6640	6640
61865984	7024	7024
62914560	7280	7264
63963136	7856	7856
65011712	6064	6064
66060288	6496	6496
67108864	13328	13328
69206016	14080	14080
71303168	12912	12912
73400320	12864	12864
75497472	28768	28768
77594624	33232	33232
79691776	61200	61200
81788928	47552	47552
83886080	34880	34880
85983232	35616	35616
88080384	35536	35504
90177536	34720	34720
92274688	13952	13952
94371840	11168	11168
96468992	9424	9424
98566144	7648	7648
100663296	7952	7952
102760448	7616	7616
104857600	7536	7536
106954752	7472	7472
109051904	6912	6912
111149056	5552	5552
113246208	4224	4224
115343360	2720	2720
117440512	1184	1184
119537664	96	96
121634816	80	80
123731968	144	144
125829120	80	80
127926272	880	864
130023424	3136	3136
132120576	2560	2560
134217728	5904	5904
138412032	4704	4688
142606336	5696	5696
146800640	128	128
150994944	224	208
155189248	9760	9760
159383552	1536	1536
163577856	6512	6512
167772160	6416	6416
171966464	6624	6624
176160768	6368	6368
180355072	6320	6320
184549376	6544	6528
188743680	8192	8192
192937984	11344	11344
197132288	9856	9856
201326592	9040	9040
205520896	8640	8640
209715200	13008	13008
213909504	8992	8992
218103808	11696	11696
222298112	33664	33664
226492416	8656	8656
230686720	8720	8720
234881024	18016	18016
239075328	8752	8752
243269632	4032	4032
247463936	1248	1232
251658240	1104	1104
255852544	1488	1488
260046848	112	112
264241152	704	704
268435456	1088	1088
276824064	2160	2160
285212672	1904	1904
293601280	2032	2032
301989888	25216	25216
310378496	2720	2720
318767104	4320	4320
327155712	3184	3184
335544320	3920	3920
343932928	10256	10256
352321536	11360	11360
360710144	11344	11344
369098752	4720	4720
377487360	3056	3056
385875968	2864	2864
394264576	2400	2400
402653184	3184	3184
411041792	2912	2912
419430400	2896	2896
427819008	5856	5856
436207616	8384	8384
444596224	224	224
452984832	80	80
461373440	112	112
469762048	192	192
478150656	52400	52400
486539264	116416	116416
494927872	112304	112304
503316480	28592	28592
511705088	22224	22224
520093696	21552	21552
528482304	22096	22096
536870912	42640	42640
553648128	42400	42400
570425344	234304	234304
587202560	13744	13744
603979776	14752	14752
620756992	14752	14752
637534208	1936	1936
654311424	31376	31376
671088640	0	0
687865856	0	0
704643072	0	0
721420288	0	0
738197504	0	0
754974720	0	0
771751936	0	0
788529152	0	0
805306368	0	0
822083584	0	0
838860800	0	0
855638016	0	0
872415232	0	0
889192448	0	0
905969664	0	0
922746880	0	0
939524096	0	0
956301312	0	0
973078528	0	0
989855744	0	0
1006632960	0	0
1023410176	0	0
1040187392	0	0
1056964608	0	0
1073741824	0	0
1107296256	0	0
1140850688	0	0
1174405120	0	0
1207959552	0	0
1241513984	0	0
1275068416	0	0
1308622848	0	0
1342177280	0	0
1375731712	0	0
1409286144	0	0
1442840576	0	0
1476395008	0	0
1509949440	0	0
1543503872	0	0
1577058304	0	0
1610612736	0	0
1644167168	0	0
1677721600	0	0
1711276032	0	0
1744830464	0	0
1778384896	0	0
1811939328	0	0
1845493760	0	0
1879048192	0	0
1912602624	0	0
1946157056	0	0
1979711488	0	0
2013265920	0	0
2046820352	0	0
2080374784	0	0
2113929216	0	0
2147483648	0	0
2214592512	0	0
2281701376	0	0
2348810240	0	0
2415919104	0	0
2483027968	0	0
2550136832	0	0
2617245696	0	0
2684354560	0	0
2751463424	0	0
2818572288	0	0
2885681152	0	0
2952790016	0	0
3019898880	0	0
3087007744	0	0
3154116608	0	0
3221225472	0	0
3288334336	0	0
3355443200	0	0
3422552064	0	0
3489660928	0	0
3556769792	0	0
3623878656	0	0
3690987520	0	0
3758096384	0	0
3825205248	0	0
3892314112	0	0
3959422976	0	0
4026531840	0	0
4093640704	0	0
4160749568	0	0
4227858432	0	0
~~~~~~~~~~Reuse Distance Profiler output end~~~~~~~~~~

Sampler size:735065

DRAM Statistics
 CHANNEL 0
 RQ ROW_BUFFER_HIT:      56065  ROW_BUFFER_MISS:   15358656
 DBUS AVG_CONGESTED_CYCLE:    3.98664
 WQ ROW_BUFFER_HIT:     322274  ROW_BUFFER_MISS:    6522652  FULL:          0


CPU 0 Branch Prediction Accuracy: 98.3159% MPKI: 0.227499 Average ROB Occupancy at Mispredict: 340.331
Branch type MPKI
BRANCH_DIRECT_JUMP: 2.26667e-05
BRANCH_INDIRECT: 1.33333e-06
BRANCH_CONDITIONAL: 0.227343
BRANCH_DIRECT_CALL: 6.66667e-05
BRANCH_INDIRECT_CALL: 0
BRANCH_RETURN: 6.46667e-05

