
*** ChampSim Multicore Out-of-Order Simulator ***

Warmup Instructions: 50000000
Simulation Instructions: 1500000000
Number of CPUs: 1
Off-chip DRAM Size: 4 GiB Channels: 1 Width: 64-bit Data Rate: 3200 MT/s

VirtualMemory physical capacity: 8588881920 num_ppages: 2096895
VirtualMemory page size: 4096 log2_page_size: 12

CPU 0 runs /s/traces/champsim_traces/459.GemsFDTD-1169B.champsimtrace.xz
CPU 0 Bimodal branch predictor
Basic BTB sets: 1024 ways: 8 indirect buffer size: 4096 RAS size: 64
Initializing LRU.
Initializing LRU.
Initializing LRU.
Initializing LRU.
Initializing rdLRU.
Initializing LRU.
Heartbeat CPU 0 instructions: 2000003 cycles: 500068 heartbeat IPC: 3.99946 cumulative IPC: 3.99946 (Simulation time: 0 hr 0 min 41 sec) 
Heartbeat CPU 0 instructions: 4000003 cycles: 1000068 heartbeat IPC: 4 cumulative IPC: 3.99973 (Simulation time: 0 hr 1 min 33 sec) 
Heartbeat CPU 0 instructions: 6000003 cycles: 1500068 heartbeat IPC: 4 cumulative IPC: 3.99982 (Simulation time: 0 hr 2 min 23 sec) 
Heartbeat CPU 0 instructions: 8000003 cycles: 2000068 heartbeat IPC: 4 cumulative IPC: 3.99987 (Simulation time: 0 hr 3 min 10 sec) 
Heartbeat CPU 0 instructions: 10000003 cycles: 2500068 heartbeat IPC: 4 cumulative IPC: 3.99989 (Simulation time: 0 hr 4 min 2 sec) 
Heartbeat CPU 0 instructions: 12000003 cycles: 3000068 heartbeat IPC: 4 cumulative IPC: 3.99991 (Simulation time: 0 hr 4 min 55 sec) 
Heartbeat CPU 0 instructions: 14000001 cycles: 3657477 heartbeat IPC: 3.04224 cumulative IPC: 3.82778 (Simulation time: 0 hr 6 min 13 sec) 
Heartbeat CPU 0 instructions: 16000001 cycles: 4692988 heartbeat IPC: 1.93141 cumulative IPC: 3.40934 (Simulation time: 0 hr 8 min 57 sec) 
Heartbeat CPU 0 instructions: 18000000 cycles: 5728511 heartbeat IPC: 1.93139 cumulative IPC: 3.14218 (Simulation time: 0 hr 11 min 34 sec) 
Heartbeat CPU 0 instructions: 20000001 cycles: 6764032 heartbeat IPC: 1.9314 cumulative IPC: 2.95682 (Simulation time: 0 hr 14 min 14 sec) 
Heartbeat CPU 0 instructions: 22000002 cycles: 7799534 heartbeat IPC: 1.93143 cumulative IPC: 2.82068 (Simulation time: 0 hr 16 min 53 sec) 
Heartbeat CPU 0 instructions: 24000001 cycles: 8835051 heartbeat IPC: 1.9314 cumulative IPC: 2.71645 (Simulation time: 0 hr 19 min 30 sec) 
Heartbeat CPU 0 instructions: 26000004 cycles: 9869287 heartbeat IPC: 1.9338 cumulative IPC: 2.63444 (Simulation time: 0 hr 22 min 3 sec) 
Heartbeat CPU 0 instructions: 28000002 cycles: 10899145 heartbeat IPC: 1.94201 cumulative IPC: 2.56901 (Simulation time: 0 hr 24 min 42 sec) 
Heartbeat CPU 0 instructions: 30000004 cycles: 11929008 heartbeat IPC: 1.94201 cumulative IPC: 2.51488 (Simulation time: 0 hr 27 min 20 sec) 
Heartbeat CPU 0 instructions: 32000004 cycles: 12958868 heartbeat IPC: 1.94201 cumulative IPC: 2.46935 (Simulation time: 0 hr 29 min 54 sec) 
Heartbeat CPU 0 instructions: 34000000 cycles: 13988730 heartbeat IPC: 1.942 cumulative IPC: 2.43053 (Simulation time: 0 hr 32 min 26 sec) 
Heartbeat CPU 0 instructions: 36000001 cycles: 15018590 heartbeat IPC: 1.94201 cumulative IPC: 2.39703 (Simulation time: 0 hr 35 min 1 sec) 
Heartbeat CPU 0 instructions: 38000002 cycles: 16049336 heartbeat IPC: 1.94034 cumulative IPC: 2.3677 (Simulation time: 0 hr 37 min 37 sec) 
Heartbeat CPU 0 instructions: 40000002 cycles: 17084169 heartbeat IPC: 1.93268 cumulative IPC: 2.34135 (Simulation time: 0 hr 40 min 9 sec) 
Heartbeat CPU 0 instructions: 42000002 cycles: 18119006 heartbeat IPC: 1.93267 cumulative IPC: 2.31801 (Simulation time: 0 hr 42 min 43 sec) 
Heartbeat CPU 0 instructions: 44000001 cycles: 19153835 heartbeat IPC: 1.93269 cumulative IPC: 2.29719 (Simulation time: 0 hr 45 min 14 sec) 
Heartbeat CPU 0 instructions: 46000000 cycles: 20188673 heartbeat IPC: 1.93267 cumulative IPC: 2.27851 (Simulation time: 0 hr 47 min 50 sec) 
Heartbeat CPU 0 instructions: 48000003 cycles: 21223515 heartbeat IPC: 1.93267 cumulative IPC: 2.26164 (Simulation time: 0 hr 50 min 27 sec) 
Heartbeat CPU 0 instructions: 50000004 cycles: 22258709 heartbeat IPC: 1.93201 cumulative IPC: 2.24631 (Simulation time: 0 hr 52 min 59 sec) 

Warmup complete CPU 0 instructions: 50000004 cycles: 22258709 (Simulation time: 0 hr 52 min 59 sec) 

Heartbeat CPU 0 instructions: 52000004 cycles: 23900485 heartbeat IPC: 1.21819 cumulative IPC: 1.21819 (Simulation time: 0 hr 55 min 58 sec) 

Region of Interest Statistics
cpu0_DTLB TOTAL     ACCESS:     789158  HIT:     755105  MISS:      34053
cpu0_DTLB LOAD      ACCESS:     726847  HIT:     692810  MISS:      34037
cpu0_DTLB RFO       ACCESS:      62311  HIT:      62295  MISS:         16
cpu0_DTLB PREFETCH  ACCESS:          0  HIT:          0  MISS:          0
cpu0_DTLB WRITEBACK ACCESS:          0  HIT:          0  MISS:          0
cpu0_ITLB TOTAL     ACCESS:      36021  HIT:      36021  MISS:          0
cpu0_ITLB LOAD      ACCESS:      36021  HIT:      36021  MISS:          0
cpu0_ITLB RFO       ACCESS:          0  HIT:          0  MISS:          0
cpu0_ITLB PREFETCH  ACCESS:          0  HIT:          0  MISS:          0
cpu0_ITLB WRITEBACK ACCESS:          0  HIT:          0  MISS:          0
cpu0_L1I TOTAL     ACCESS:     198120  HIT:     198120  MISS:          0
cpu0_L1I LOAD      ACCESS:     198120  HIT:     198120  MISS:          0
cpu0_L1I RFO       ACCESS:          0  HIT:          0  MISS:          0
cpu0_L1I PREFETCH  ACCESS:          0  HIT:          0  MISS:          0
cpu0_L1I WRITEBACK ACCESS:          0  HIT:          0  MISS:          0
cpu0_STLB TOTAL     ACCESS:      34053  HIT:      25597  MISS:       8456
cpu0_STLB LOAD      ACCESS:      34037  HIT:      25581  MISS:       8456
cpu0_STLB RFO       ACCESS:         16  HIT:         16  MISS:          0
cpu0_STLB PREFETCH  ACCESS:          0  HIT:          0  MISS:          0
cpu0_STLB WRITEBACK ACCESS:          0  HIT:          0  MISS:          0
cpu0_L1D TOTAL     ACCESS:     969807  HIT:     884486  MISS:      85321
cpu0_L1D LOAD      ACCESS:     896261  HIT:     811452  MISS:      84809
cpu0_L1D RFO       ACCESS:      65131  HIT:      65131  MISS:          0
cpu0_L1D PREFETCH  ACCESS:          0  HIT:          0  MISS:          0
cpu0_L1D WRITEBACK ACCESS:          0  HIT:          0  MISS:          0
cpu0_L2C TOTAL     ACCESS:     105076  HIT:      97984  MISS:       7092
cpu0_L2C LOAD      ACCESS:      84809  HIT:      77717  MISS:       7092
cpu0_L2C RFO       ACCESS:          0  HIT:          0  MISS:          0
cpu0_L2C PREFETCH  ACCESS:          0  HIT:          0  MISS:          0
cpu0_L2C WRITEBACK ACCESS:      19755  HIT:      19755  MISS:          0
LLC TOTAL     ACCESS:       7123  HIT:        245  MISS:       6878
LLC LOAD      ACCESS:       7092  HIT:        219  MISS:       6873
LLC RFO       ACCESS:          0  HIT:          0  MISS:          0
LLC PREFETCH  ACCESS:          0  HIT:          0  MISS:          0
LLC WRITEBACK ACCESS:         31  HIT:         26  MISS:          5
Heartbeat CPU 0 instructions: 54000001 cycles: 25539494 heartbeat IPC: 1.22025 cumulative IPC: 1.21922 (Simulation time: 0 hr 58 min 52 sec) 

Region of Interest Statistics
cpu0_DTLB TOTAL     ACCESS:    1577928  HIT:    1509725  MISS:      68203
cpu0_DTLB LOAD      ACCESS:    1453245  HIT:    1385083  MISS:      68162
cpu0_DTLB RFO       ACCESS:     124683  HIT:     124642  MISS:         41
cpu0_DTLB PREFETCH  ACCESS:          0  HIT:          0  MISS:          0
cpu0_DTLB WRITEBACK ACCESS:          0  HIT:          0  MISS:          0
cpu0_ITLB TOTAL     ACCESS:      72040  HIT:      72040  MISS:          0
cpu0_ITLB LOAD      ACCESS:      72040  HIT:      72040  MISS:          0
cpu0_ITLB RFO       ACCESS:          0  HIT:          0  MISS:          0
cpu0_ITLB PREFETCH  ACCESS:          0  HIT:          0  MISS:          0
cpu0_ITLB WRITEBACK ACCESS:          0  HIT:          0  MISS:          0
cpu0_L1I TOTAL     ACCESS:     396298  HIT:     396298  MISS:          0
cpu0_L1I LOAD      ACCESS:     396298  HIT:     396298  MISS:          0
cpu0_L1I RFO       ACCESS:          0  HIT:          0  MISS:          0
cpu0_L1I PREFETCH  ACCESS:          0  HIT:          0  MISS:          0
cpu0_L1I WRITEBACK ACCESS:          0  HIT:          0  MISS:          0
cpu0_STLB TOTAL     ACCESS:      68203  HIT:      50434  MISS:      17769
cpu0_STLB LOAD      ACCESS:      68162  HIT:      50393  MISS:      17769
cpu0_STLB RFO       ACCESS:         41  HIT:         41  MISS:          0
cpu0_STLB PREFETCH  ACCESS:          0  HIT:          0  MISS:          0
cpu0_STLB WRITEBACK ACCESS:          0  HIT:          0  MISS:          0
cpu0_L1D TOTAL     ACCESS:    1940213  HIT:    1769593  MISS:     170620
cpu0_L1D LOAD      ACCESS:    1792269  HIT:    1622659  MISS:     169610
cpu0_L1D RFO       ACCESS:     130267  HIT:     130267  MISS:          0
cpu0_L1D PREFETCH  ACCESS:          0  HIT:          0  MISS:          0
cpu0_L1D WRITEBACK ACCESS:          0  HIT:          0  MISS:          0
cpu0_L2C TOTAL     ACCESS:     210127  HIT:     195905  MISS:      14222
cpu0_L2C LOAD      ACCESS:     169610  HIT:     155389  MISS:      14221
cpu0_L2C RFO       ACCESS:          0  HIT:          0  MISS:          0
cpu0_L2C PREFETCH  ACCESS:          0  HIT:          0  MISS:          0
cpu0_L2C WRITEBACK ACCESS:      39507  HIT:      39507  MISS:          0
LLC TOTAL     ACCESS:      14343  HIT:        760  MISS:      13583
LLC LOAD      ACCESS:      14220  HIT:        652  MISS:      13568
LLC RFO       ACCESS:          0  HIT:          0  MISS:          0
LLC PREFETCH  ACCESS:          0  HIT:          0  MISS:          0
LLC WRITEBACK ACCESS:        122  HIT:        107  MISS:         15
Heartbeat CPU 0 instructions: 56000003 cycles: 27183337 heartbeat IPC: 1.21666 cumulative IPC: 1.21837 (Simulation time: 1 hr 1 min 48 sec) 

Region of Interest Statistics
cpu0_DTLB TOTAL     ACCESS:    2367127  HIT:    2264667  MISS:     102460
cpu0_DTLB LOAD      ACCESS:    2180128  HIT:    2077743  MISS:     102385
cpu0_DTLB RFO       ACCESS:     186999  HIT:     186924  MISS:         75
cpu0_DTLB PREFETCH  ACCESS:          0  HIT:          0  MISS:          0
cpu0_DTLB WRITEBACK ACCESS:          0  HIT:          0  MISS:          0
cpu0_ITLB TOTAL     ACCESS:     108065  HIT:     108065  MISS:          0
cpu0_ITLB LOAD      ACCESS:     108065  HIT:     108065  MISS:          0
cpu0_ITLB RFO       ACCESS:          0  HIT:          0  MISS:          0
cpu0_ITLB PREFETCH  ACCESS:          0  HIT:          0  MISS:          0
cpu0_ITLB WRITEBACK ACCESS:          0  HIT:          0  MISS:          0
cpu0_L1I TOTAL     ACCESS:     594450  HIT:     594450  MISS:          0
cpu0_L1I LOAD      ACCESS:     594450  HIT:     594450  MISS:          0
cpu0_L1I RFO       ACCESS:          0  HIT:          0  MISS:          0
cpu0_L1I PREFETCH  ACCESS:          0  HIT:          0  MISS:          0
cpu0_L1I WRITEBACK ACCESS:          0  HIT:          0  MISS:          0
cpu0_STLB TOTAL     ACCESS:     102460  HIT:      76193  MISS:      26267
cpu0_STLB LOAD      ACCESS:     102385  HIT:      76118  MISS:      26267
cpu0_STLB RFO       ACCESS:         75  HIT:         75  MISS:          0
cpu0_STLB PREFETCH  ACCESS:          0  HIT:          0  MISS:          0
cpu0_STLB WRITEBACK ACCESS:          0  HIT:          0  MISS:          0
cpu0_L1D TOTAL     ACCESS:    2909502  HIT:    2653577  MISS:     255925
cpu0_L1D LOAD      ACCESS:    2687977  HIT:    2433571  MISS:     254406
cpu0_L1D RFO       ACCESS:     195402  HIT:     195402  MISS:          0
cpu0_L1D PREFETCH  ACCESS:          0  HIT:          0  MISS:          0
cpu0_L1D WRITEBACK ACCESS:          0  HIT:          0  MISS:          0
cpu0_L2C TOTAL     ACCESS:     315187  HIT:     293554  MISS:      21633
cpu0_L2C LOAD      ACCESS:     254406  HIT:     232775  MISS:      21631
cpu0_L2C RFO       ACCESS:          0  HIT:          0  MISS:          0
cpu0_L2C PREFETCH  ACCESS:          0  HIT:          0  MISS:          0
cpu0_L2C WRITEBACK ACCESS:      59262  HIT:      59262  MISS:          0
LLC TOTAL     ACCESS:      21875  HIT:       1408  MISS:      20467
LLC LOAD      ACCESS:      21630  HIT:       1188  MISS:      20442
LLC RFO       ACCESS:          0  HIT:          0  MISS:          0
LLC PREFETCH  ACCESS:          0  HIT:          0  MISS:          0
LLC WRITEBACK ACCESS:        243  HIT:        218  MISS:         25
Heartbeat CPU 0 instructions: 58000004 cycles: 28816362 heartbeat IPC: 1.22472 cumulative IPC: 1.21995 (Simulation time: 1 hr 4 min 40 sec) 

Region of Interest Statistics
cpu0_DTLB TOTAL     ACCESS:    3155997  HIT:    3019263  MISS:     136734
cpu0_DTLB LOAD      ACCESS:    2906629  HIT:    2769993  MISS:     136636
cpu0_DTLB RFO       ACCESS:     249368  HIT:     249270  MISS:         98
cpu0_DTLB PREFETCH  ACCESS:          0  HIT:          0  MISS:          0
cpu0_DTLB WRITEBACK ACCESS:          0  HIT:          0  MISS:          0
cpu0_ITLB TOTAL     ACCESS:     144082  HIT:     144082  MISS:          0
cpu0_ITLB LOAD      ACCESS:     144082  HIT:     144082  MISS:          0
cpu0_ITLB RFO       ACCESS:          0  HIT:          0  MISS:          0
cpu0_ITLB PREFETCH  ACCESS:          0  HIT:          0  MISS:          0
cpu0_ITLB WRITEBACK ACCESS:          0  HIT:          0  MISS:          0
cpu0_L1I TOTAL     ACCESS:     792730  HIT:     792730  MISS:          0
cpu0_L1I LOAD      ACCESS:     792730  HIT:     792730  MISS:          0
cpu0_L1I RFO       ACCESS:          0  HIT:          0  MISS:          0
cpu0_L1I PREFETCH  ACCESS:          0  HIT:          0  MISS:          0
cpu0_L1I WRITEBACK ACCESS:          0  HIT:          0  MISS:          0
cpu0_STLB TOTAL     ACCESS:     136734  HIT:     101949  MISS:      34785
cpu0_STLB LOAD      ACCESS:     136636  HIT:     101851  MISS:      34785
cpu0_STLB RFO       ACCESS:         98  HIT:         98  MISS:          0
cpu0_STLB PREFETCH  ACCESS:          0  HIT:          0  MISS:          0
cpu0_STLB WRITEBACK ACCESS:          0  HIT:          0  MISS:          0
cpu0_L1D TOTAL     ACCESS:    3878627  HIT:    3537395  MISS:     341232
cpu0_L1D LOAD      ACCESS:    3583491  HIT:    3244279  MISS:     339212
cpu0_L1D RFO       ACCESS:     260537  HIT:     260537  MISS:          0
cpu0_L1D PREFETCH  ACCESS:          0  HIT:          0  MISS:          0
cpu0_L1D WRITEBACK ACCESS:          0  HIT:          0  MISS:          0
cpu0_L2C TOTAL     ACCESS:     420252  HIT:     391697  MISS:      28555
cpu0_L2C LOAD      ACCESS:     339212  HIT:     310659  MISS:      28553
cpu0_L2C RFO       ACCESS:          0  HIT:          0  MISS:          0
cpu0_L2C PREFETCH  ACCESS:          0  HIT:          0  MISS:          0
cpu0_L2C WRITEBACK ACCESS:      79020  HIT:      79020  MISS:          0
LLC TOTAL     ACCESS:      28849  HIT:       1681  MISS:      27168
LLC LOAD      ACCESS:      28552  HIT:       1418  MISS:      27134
LLC RFO       ACCESS:          0  HIT:          0  MISS:          0
LLC PREFETCH  ACCESS:          0  HIT:          0  MISS:          0
LLC WRITEBACK ACCESS:        295  HIT:        261  MISS:         34
Heartbeat CPU 0 instructions: 60000001 cycles: 30463238 heartbeat IPC: 1.21442 cumulative IPC: 1.21884 (Simulation time: 1 hr 7 min 35 sec) 

Region of Interest Statistics
cpu0_DTLB TOTAL     ACCESS:    3945436  HIT:    3774468  MISS:     170968
cpu0_DTLB LOAD      ACCESS:    3633752  HIT:    3462901  MISS:     170851
cpu0_DTLB RFO       ACCESS:     311684  HIT:     311567  MISS:        117
cpu0_DTLB PREFETCH  ACCESS:          0  HIT:          0  MISS:          0
cpu0_DTLB WRITEBACK ACCESS:          0  HIT:          0  MISS:          0
cpu0_ITLB TOTAL     ACCESS:     180101  HIT:     180101  MISS:          0
cpu0_ITLB LOAD      ACCESS:     180101  HIT:     180101  MISS:          0
cpu0_ITLB RFO       ACCESS:          0  HIT:          0  MISS:          0
cpu0_ITLB PREFETCH  ACCESS:          0  HIT:          0  MISS:          0
cpu0_ITLB WRITEBACK ACCESS:          0  HIT:          0  MISS:          0
cpu0_L1I TOTAL     ACCESS:     990704  HIT:     990704  MISS:          0
cpu0_L1I LOAD      ACCESS:     990704  HIT:     990704  MISS:          0
cpu0_L1I RFO       ACCESS:          0  HIT:          0  MISS:          0
cpu0_L1I PREFETCH  ACCESS:          0  HIT:          0  MISS:          0
cpu0_L1I WRITEBACK ACCESS:          0  HIT:          0  MISS:          0
cpu0_STLB TOTAL     ACCESS:     170968  HIT:     127564  MISS:      43404
cpu0_STLB LOAD      ACCESS:     170851  HIT:     127447  MISS:      43404
cpu0_STLB RFO       ACCESS:        117  HIT:        117  MISS:          0
cpu0_STLB PREFETCH  ACCESS:          0  HIT:          0  MISS:          0
cpu0_STLB WRITEBACK ACCESS:          0  HIT:          0  MISS:          0
cpu0_L1D TOTAL     ACCESS:    4847906  HIT:    4421389  MISS:     426517
cpu0_L1D LOAD      ACCESS:    4479064  HIT:    4055051  MISS:     424013
cpu0_L1D RFO       ACCESS:     325672  HIT:     325672  MISS:          0
cpu0_L1D PREFETCH  ACCESS:          0  HIT:          0  MISS:          0
cpu0_L1D WRITEBACK ACCESS:          0  HIT:          0  MISS:          0
cpu0_L2C TOTAL     ACCESS:     525290  HIT:     489454  MISS:      35836
cpu0_L2C LOAD      ACCESS:     424013  HIT:     388179  MISS:      35834
cpu0_L2C RFO       ACCESS:          0  HIT:          0  MISS:          0
cpu0_L2C PREFETCH  ACCESS:          0  HIT:          0  MISS:          0
cpu0_L2C WRITEBACK ACCESS:      98773  HIT:      98773  MISS:          0
LLC TOTAL     ACCESS:      36223  HIT:       2163  MISS:      34060
LLC LOAD      ACCESS:      35833  HIT:       1820  MISS:      34013
LLC RFO       ACCESS:          0  HIT:          0  MISS:          0
LLC PREFETCH  ACCESS:          0  HIT:          0  MISS:          0
LLC WRITEBACK ACCESS:        388  HIT:        341  MISS:         47
Heartbeat CPU 0 instructions: 62000000 cycles: 32006122 heartbeat IPC: 1.29627 cumulative IPC: 1.2311 (Simulation time: 1 hr 10 min 27 sec) 

Region of Interest Statistics
cpu0_DTLB TOTAL     ACCESS:    4732693  HIT:    4527628  MISS:     205065
cpu0_DTLB LOAD      ACCESS:    4358740  HIT:    4153802  MISS:     204938
cpu0_DTLB RFO       ACCESS:     373953  HIT:     373826  MISS:        127
cpu0_DTLB PREFETCH  ACCESS:          0  HIT:          0  MISS:          0
cpu0_DTLB WRITEBACK ACCESS:          0  HIT:          0  MISS:          0
cpu0_ITLB TOTAL     ACCESS:     216147  HIT:     216147  MISS:          0
cpu0_ITLB LOAD      ACCESS:     216147  HIT:     216147  MISS:          0
cpu0_ITLB RFO       ACCESS:          0  HIT:          0  MISS:          0
cpu0_ITLB PREFETCH  ACCESS:          0  HIT:          0  MISS:          0
cpu0_ITLB WRITEBACK ACCESS:          0  HIT:          0  MISS:          0
cpu0_L1I TOTAL     ACCESS:    1188815  HIT:    1188815  MISS:          0
cpu0_L1I LOAD      ACCESS:    1188815  HIT:    1188815  MISS:          0
cpu0_L1I RFO       ACCESS:          0  HIT:          0  MISS:          0
cpu0_L1I PREFETCH  ACCESS:          0  HIT:          0  MISS:          0
cpu0_L1I WRITEBACK ACCESS:          0  HIT:          0  MISS:          0
cpu0_STLB TOTAL     ACCESS:     205065  HIT:     152900  MISS:      52165
cpu0_STLB LOAD      ACCESS:     204938  HIT:     152773  MISS:      52165
cpu0_STLB RFO       ACCESS:        127  HIT:        127  MISS:          0
cpu0_STLB PREFETCH  ACCESS:          0  HIT:          0  MISS:          0
cpu0_STLB WRITEBACK ACCESS:          0  HIT:          0  MISS:          0
cpu0_L1D TOTAL     ACCESS:    5814881  HIT:    5303048  MISS:     511833
cpu0_L1D LOAD      ACCESS:    5372178  HIT:    4863366  MISS:     508812
cpu0_L1D RFO       ACCESS:     390807  HIT:     390807  MISS:          0
cpu0_L1D PREFETCH  ACCESS:          0  HIT:          0  MISS:          0
cpu0_L1D WRITEBACK ACCESS:          0  HIT:          0  MISS:          0
cpu0_L2C TOTAL     ACCESS:     630363  HIT:     587338  MISS:      43025
cpu0_L2C LOAD      ACCESS:     508812  HIT:     465793  MISS:      43019
cpu0_L2C RFO       ACCESS:          0  HIT:          0  MISS:          0
cpu0_L2C PREFETCH  ACCESS:          0  HIT:          0  MISS:          0
cpu0_L2C WRITEBACK ACCESS:     118530  HIT:     118530  MISS:          0
LLC TOTAL     ACCESS:      43490  HIT:       3825  MISS:      39665
LLC LOAD      ACCESS:      43016  HIT:       3407  MISS:      39609
LLC RFO       ACCESS:          0  HIT:          0  MISS:          0
LLC PREFETCH  ACCESS:          0  HIT:          0  MISS:          0
LLC WRITEBACK ACCESS:        468  HIT:        412  MISS:         56
Heartbeat CPU 0 instructions: 64000003 cycles: 33700475 heartbeat IPC: 1.18039 cumulative IPC: 1.22359 (Simulation time: 1 hr 13 min 28 sec) 

Region of Interest Statistics
cpu0_DTLB TOTAL     ACCESS:    5527713  HIT:    5303017  MISS:     224696
cpu0_DTLB LOAD      ACCESS:    5086319  HIT:    4861868  MISS:     224451
cpu0_DTLB RFO       ACCESS:     441394  HIT:     441149  MISS:        245
cpu0_DTLB PREFETCH  ACCESS:          0  HIT:          0  MISS:          0
cpu0_DTLB WRITEBACK ACCESS:          0  HIT:          0  MISS:          0
cpu0_ITLB TOTAL     ACCESS:     252080  HIT:     252079  MISS:          1
cpu0_ITLB LOAD      ACCESS:     252080  HIT:     252079  MISS:          1
cpu0_ITLB RFO       ACCESS:          0  HIT:          0  MISS:          0
cpu0_ITLB PREFETCH  ACCESS:          0  HIT:          0  MISS:          0
cpu0_ITLB WRITEBACK ACCESS:          0  HIT:          0  MISS:          0
cpu0_L1I TOTAL     ACCESS:    1386320  HIT:    1386279  MISS:         41
cpu0_L1I LOAD      ACCESS:    1386320  HIT:    1386279  MISS:         41
cpu0_L1I RFO       ACCESS:          0  HIT:          0  MISS:          0
cpu0_L1I PREFETCH  ACCESS:          0  HIT:          0  MISS:          0
cpu0_L1I WRITEBACK ACCESS:          0  HIT:          0  MISS:          0
cpu0_STLB TOTAL     ACCESS:     224697  HIT:     171702  MISS:      52995
cpu0_STLB LOAD      ACCESS:     224452  HIT:     171457  MISS:      52995
cpu0_STLB RFO       ACCESS:        245  HIT:        245  MISS:          0
cpu0_STLB PREFETCH  ACCESS:          0  HIT:          0  MISS:          0
cpu0_STLB WRITEBACK ACCESS:          0  HIT:          0  MISS:          0
cpu0_L1D TOTAL     ACCESS:    6806972  HIT:    6243173  MISS:     563799
cpu0_L1D LOAD      ACCESS:    6294737  HIT:    5733975  MISS:     560762
cpu0_L1D RFO       ACCESS:     459509  HIT:     459509  MISS:          0
cpu0_L1D PREFETCH  ACCESS:          0  HIT:          0  MISS:          0
cpu0_L1D WRITEBACK ACCESS:          0  HIT:          0  MISS:          0
cpu0_L2C TOTAL     ACCESS:     682801  HIT:     632404  MISS:      50397
cpu0_L2C LOAD      ACCESS:     560803  HIT:     510417  MISS:      50386
cpu0_L2C RFO       ACCESS:          0  HIT:          0  MISS:          0
cpu0_L2C PREFETCH  ACCESS:          0  HIT:          0  MISS:          0
cpu0_L2C WRITEBACK ACCESS:     118961  HIT:     118961  MISS:          0
LLC TOTAL     ACCESS:      51215  HIT:       4045  MISS:      47170
LLC LOAD      ACCESS:      50383  HIT:       3453  MISS:      46930
LLC RFO       ACCESS:          0  HIT:          0  MISS:          0
LLC PREFETCH  ACCESS:          0  HIT:          0  MISS:          0
LLC WRITEBACK ACCESS:        821  HIT:        585  MISS:        236
Heartbeat CPU 0 instructions: 66000004 cycles: 35263679 heartbeat IPC: 1.27942 cumulative IPC: 1.2303 (Simulation time: 1 hr 16 min 13 sec) 

Region of Interest Statistics
cpu0_DTLB TOTAL     ACCESS:    6323600  HIT:    6079341  MISS:     244259
cpu0_DTLB LOAD      ACCESS:    5814767  HIT:    5570881  MISS:     243886
cpu0_DTLB RFO       ACCESS:     508833  HIT:     508460  MISS:        373
cpu0_DTLB PREFETCH  ACCESS:          0  HIT:          0  MISS:          0
cpu0_DTLB WRITEBACK ACCESS:          0  HIT:          0  MISS:          0
cpu0_ITLB TOTAL     ACCESS:     288085  HIT:     288084  MISS:          1
cpu0_ITLB LOAD      ACCESS:     288085  HIT:     288084  MISS:          1
cpu0_ITLB RFO       ACCESS:          0  HIT:          0  MISS:          0
cpu0_ITLB PREFETCH  ACCESS:          0  HIT:          0  MISS:          0
cpu0_ITLB WRITEBACK ACCESS:          0  HIT:          0  MISS:          0
cpu0_L1I TOTAL     ACCESS:    1584033  HIT:    1583992  MISS:         41
cpu0_L1I LOAD      ACCESS:    1584033  HIT:    1583992  MISS:         41
cpu0_L1I RFO       ACCESS:          0  HIT:          0  MISS:          0
cpu0_L1I PREFETCH  ACCESS:          0  HIT:          0  MISS:          0
cpu0_L1I WRITEBACK ACCESS:          0  HIT:          0  MISS:          0
cpu0_STLB TOTAL     ACCESS:     244260  HIT:     191265  MISS:      52995
cpu0_STLB LOAD      ACCESS:     243887  HIT:     190892  MISS:      52995
cpu0_STLB RFO       ACCESS:        373  HIT:        373  MISS:          0
cpu0_STLB PREFETCH  ACCESS:          0  HIT:          0  MISS:          0
cpu0_STLB WRITEBACK ACCESS:          0  HIT:          0  MISS:          0
cpu0_L1D TOTAL     ACCESS:    7799336  HIT:    7184048  MISS:     615288
cpu0_L1D LOAD      ACCESS:    7218359  HIT:    6606108  MISS:     612251
cpu0_L1D RFO       ACCESS:     528251  HIT:     528251  MISS:          0
cpu0_L1D PREFETCH  ACCESS:          0  HIT:          0  MISS:          0
cpu0_L1D WRITEBACK ACCESS:          0  HIT:          0  MISS:          0
cpu0_L2C TOTAL     ACCESS:     734290  HIT:     678478  MISS:      55812
cpu0_L2C LOAD      ACCESS:     612292  HIT:     556491  MISS:      55801
cpu0_L2C RFO       ACCESS:          0  HIT:          0  MISS:          0
cpu0_L2C PREFETCH  ACCESS:          0  HIT:          0  MISS:          0
cpu0_L2C WRITEBACK ACCESS:     118961  HIT:     118961  MISS:          0
LLC TOTAL     ACCESS:      56897  HIT:       4197  MISS:      52700
LLC LOAD      ACCESS:      55798  HIT:       3493  MISS:      52305
LLC RFO       ACCESS:          0  HIT:          0  MISS:          0
LLC PREFETCH  ACCESS:          0  HIT:          0  MISS:          0
LLC WRITEBACK ACCESS:       1088  HIT:        697  MISS:        391
Heartbeat CPU 0 instructions: 68000001 cycles: 36824502 heartbeat IPC: 1.28137 cumulative IPC: 1.23577 (Simulation time: 1 hr 18 min 56 sec) 

Region of Interest Statistics
cpu0_DTLB TOTAL     ACCESS:    7119463  HIT:    6855673  MISS:     263790
cpu0_DTLB LOAD      ACCESS:    6543197  HIT:    6279919  MISS:     263278
cpu0_DTLB RFO       ACCESS:     576266  HIT:     575754  MISS:        512
cpu0_DTLB PREFETCH  ACCESS:          0  HIT:          0  MISS:          0
cpu0_DTLB WRITEBACK ACCESS:          0  HIT:          0  MISS:          0
cpu0_ITLB TOTAL     ACCESS:     324088  HIT:     324087  MISS:          1
cpu0_ITLB LOAD      ACCESS:     324088  HIT:     324087  MISS:          1
cpu0_ITLB RFO       ACCESS:          0  HIT:          0  MISS:          0
cpu0_ITLB PREFETCH  ACCESS:          0  HIT:          0  MISS:          0
cpu0_ITLB WRITEBACK ACCESS:          0  HIT:          0  MISS:          0
cpu0_L1I TOTAL     ACCESS:    1781716  HIT:    1781675  MISS:         41
cpu0_L1I LOAD      ACCESS:    1781716  HIT:    1781675  MISS:         41
cpu0_L1I RFO       ACCESS:          0  HIT:          0  MISS:          0
cpu0_L1I PREFETCH  ACCESS:          0  HIT:          0  MISS:          0
cpu0_L1I WRITEBACK ACCESS:          0  HIT:          0  MISS:          0
cpu0_STLB TOTAL     ACCESS:     263791  HIT:     210796  MISS:      52995
cpu0_STLB LOAD      ACCESS:     263279  HIT:     210284  MISS:      52995
cpu0_STLB RFO       ACCESS:        512  HIT:        512  MISS:          0
cpu0_STLB PREFETCH  ACCESS:          0  HIT:          0  MISS:          0
cpu0_STLB WRITEBACK ACCESS:          0  HIT:          0  MISS:          0
cpu0_L1D TOTAL     ACCESS:    8791913  HIT:    8125137  MISS:     666776
cpu0_L1D LOAD      ACCESS:    8142191  HIT:    7478452  MISS:     663739
cpu0_L1D RFO       ACCESS:     596996  HIT:     596996  MISS:          0
cpu0_L1D PREFETCH  ACCESS:          0  HIT:          0  MISS:          0
cpu0_L1D WRITEBACK ACCESS:          0  HIT:          0  MISS:          0
cpu0_L2C TOTAL     ACCESS:     785778  HIT:     724572  MISS:      61206
cpu0_L2C LOAD      ACCESS:     663780  HIT:     602585  MISS:      61195
cpu0_L2C RFO       ACCESS:          0  HIT:          0  MISS:          0
cpu0_L2C PREFETCH  ACCESS:          0  HIT:          0  MISS:          0
cpu0_L2C WRITEBACK ACCESS:     118961  HIT:     118961  MISS:          0
LLC TOTAL     ACCESS:      62332  HIT:       4275  MISS:      58057
LLC LOAD      ACCESS:      61192  HIT:       3553  MISS:      57639
LLC RFO       ACCESS:          0  HIT:          0  MISS:          0
LLC PREFETCH  ACCESS:          0  HIT:          0  MISS:          0
LLC WRITEBACK ACCESS:       1129  HIT:        715  MISS:        414
Heartbeat CPU 0 instructions: 70000000 cycles: 38387465 heartbeat IPC: 1.27962 cumulative IPC: 1.24002 (Simulation time: 1 hr 21 min 41 sec) 

Region of Interest Statistics
cpu0_DTLB TOTAL     ACCESS:    7915525  HIT:    7632237  MISS:     283288
cpu0_DTLB LOAD      ACCESS:    7271885  HIT:    6989251  MISS:     282634
cpu0_DTLB RFO       ACCESS:     643640  HIT:     642986  MISS:        654
cpu0_DTLB PREFETCH  ACCESS:          0  HIT:          0  MISS:          0
cpu0_DTLB WRITEBACK ACCESS:          0  HIT:          0  MISS:          0
cpu0_ITLB TOTAL     ACCESS:     360091  HIT:     360090  MISS:          1
cpu0_ITLB LOAD      ACCESS:     360091  HIT:     360090  MISS:          1
cpu0_ITLB RFO       ACCESS:          0  HIT:          0  MISS:          0
cpu0_ITLB PREFETCH  ACCESS:          0  HIT:          0  MISS:          0
cpu0_ITLB WRITEBACK ACCESS:          0  HIT:          0  MISS:          0
cpu0_L1I TOTAL     ACCESS:    1979385  HIT:    1979344  MISS:         41
cpu0_L1I LOAD      ACCESS:    1979385  HIT:    1979344  MISS:         41
cpu0_L1I RFO       ACCESS:          0  HIT:          0  MISS:          0
cpu0_L1I PREFETCH  ACCESS:          0  HIT:          0  MISS:          0
cpu0_L1I WRITEBACK ACCESS:          0  HIT:          0  MISS:          0
cpu0_STLB TOTAL     ACCESS:     283289  HIT:     230294  MISS:      52995
cpu0_STLB LOAD      ACCESS:     282635  HIT:     229640  MISS:      52995
cpu0_STLB RFO       ACCESS:        654  HIT:        654  MISS:          0
cpu0_STLB PREFETCH  ACCESS:          0  HIT:          0  MISS:          0
cpu0_STLB WRITEBACK ACCESS:          0  HIT:          0  MISS:          0
cpu0_L1D TOTAL     ACCESS:    9784584  HIT:    9066325  MISS:     718259
cpu0_L1D LOAD      ACCESS:    9066121  HIT:    8350899  MISS:     715222
cpu0_L1D RFO       ACCESS:     665737  HIT:     665737  MISS:          0
cpu0_L1D PREFETCH  ACCESS:          0  HIT:          0  MISS:          0
cpu0_L1D WRITEBACK ACCESS:          0  HIT:          0  MISS:          0
cpu0_L2C TOTAL     ACCESS:     837261  HIT:     770606  MISS:      66655
cpu0_L2C LOAD      ACCESS:     715263  HIT:     648619  MISS:      66644
cpu0_L2C RFO       ACCESS:          0  HIT:          0  MISS:          0
cpu0_L2C PREFETCH  ACCESS:          0  HIT:          0  MISS:          0
cpu0_L2C WRITEBACK ACCESS:     118961  HIT:     118961  MISS:          0
LLC TOTAL     ACCESS:      67781  HIT:       4383  MISS:      63398
LLC LOAD      ACCESS:      66641  HIT:       3661  MISS:      62980
LLC RFO       ACCESS:          0  HIT:          0  MISS:          0
LLC PREFETCH  ACCESS:          0  HIT:          0  MISS:          0
LLC WRITEBACK ACCESS:       1129  HIT:        715  MISS:        414
Heartbeat CPU 0 instructions: 72000001 cycles: 39949428 heartbeat IPC: 1.28044 cumulative IPC: 1.24359 (Simulation time: 1 hr 24 min 24 sec) 

Region of Interest Statistics
cpu0_DTLB TOTAL     ACCESS:    8712013  HIT:    8409202  MISS:     302811
cpu0_DTLB LOAD      ACCESS:    8000899  HIT:    7698878  MISS:     302021
cpu0_DTLB RFO       ACCESS:     711114  HIT:     710324  MISS:        790
cpu0_DTLB PREFETCH  ACCESS:          0  HIT:          0  MISS:          0
cpu0_DTLB WRITEBACK ACCESS:          0  HIT:          0  MISS:          0
cpu0_ITLB TOTAL     ACCESS:     396096  HIT:     396095  MISS:          1
cpu0_ITLB LOAD      ACCESS:     396096  HIT:     396095  MISS:          1
cpu0_ITLB RFO       ACCESS:          0  HIT:          0  MISS:          0
cpu0_ITLB PREFETCH  ACCESS:          0  HIT:          0  MISS:          0
cpu0_ITLB WRITEBACK ACCESS:          0  HIT:          0  MISS:          0
cpu0_L1I TOTAL     ACCESS:    2177184  HIT:    2177143  MISS:         41
cpu0_L1I LOAD      ACCESS:    2177184  HIT:    2177143  MISS:         41
cpu0_L1I RFO       ACCESS:          0  HIT:          0  MISS:          0
cpu0_L1I PREFETCH  ACCESS:          0  HIT:          0  MISS:          0
cpu0_L1I WRITEBACK ACCESS:          0  HIT:          0  MISS:          0
cpu0_STLB TOTAL     ACCESS:     302812  HIT:     249817  MISS:      52995
cpu0_STLB LOAD      ACCESS:     302022  HIT:     249027  MISS:      52995
cpu0_STLB RFO       ACCESS:        790  HIT:        790  MISS:          0
cpu0_STLB PREFETCH  ACCESS:          0  HIT:          0  MISS:          0
cpu0_STLB WRITEBACK ACCESS:          0  HIT:          0  MISS:          0
cpu0_L1D TOTAL     ACCESS:   10776879  HIT:   10007128  MISS:     769751
cpu0_L1D LOAD      ACCESS:    9989671  HIT:    9222957  MISS:     766714
cpu0_L1D RFO       ACCESS:     734482  HIT:     734482  MISS:          0
cpu0_L1D PREFETCH  ACCESS:          0  HIT:          0  MISS:          0
cpu0_L1D WRITEBACK ACCESS:          0  HIT:          0  MISS:          0
cpu0_L2C TOTAL     ACCESS:     888753  HIT:     816662  MISS:      72091
cpu0_L2C LOAD      ACCESS:     766755  HIT:     694675  MISS:      72080
cpu0_L2C RFO       ACCESS:          0  HIT:          0  MISS:          0
cpu0_L2C PREFETCH  ACCESS:          0  HIT:          0  MISS:          0
cpu0_L2C WRITEBACK ACCESS:     118961  HIT:     118961  MISS:          0
LLC TOTAL     ACCESS:      73217  HIT:       4441  MISS:      68776
LLC LOAD      ACCESS:      72077  HIT:       3719  MISS:      68358
LLC RFO       ACCESS:          0  HIT:          0  MISS:          0
LLC PREFETCH  ACCESS:          0  HIT:          0  MISS:          0
LLC WRITEBACK ACCESS:       1129  HIT:        715  MISS:        414
Heartbeat CPU 0 instructions: 74000001 cycles: 41511816 heartbeat IPC: 1.28009 cumulative IPC: 1.24655 (Simulation time: 1 hr 27 min 9 sec) 

Region of Interest Statistics
cpu0_DTLB TOTAL     ACCESS:    9507862  HIT:    9185598  MISS:     322264
cpu0_DTLB LOAD      ACCESS:    8729302  HIT:    8407959  MISS:     321343
cpu0_DTLB RFO       ACCESS:     778560  HIT:     777639  MISS:        921
cpu0_DTLB PREFETCH  ACCESS:          0  HIT:          0  MISS:          0
cpu0_DTLB WRITEBACK ACCESS:          0  HIT:          0  MISS:          0
cpu0_ITLB TOTAL     ACCESS:     432096  HIT:     432095  MISS:          1
cpu0_ITLB LOAD      ACCESS:     432096  HIT:     432095  MISS:          1
cpu0_ITLB RFO       ACCESS:          0  HIT:          0  MISS:          0
cpu0_ITLB PREFETCH  ACCESS:          0  HIT:          0  MISS:          0
cpu0_ITLB WRITEBACK ACCESS:          0  HIT:          0  MISS:          0
cpu0_L1I TOTAL     ACCESS:    2374932  HIT:    2374891  MISS:         41
cpu0_L1I LOAD      ACCESS:    2374932  HIT:    2374891  MISS:         41
cpu0_L1I RFO       ACCESS:          0  HIT:          0  MISS:          0
cpu0_L1I PREFETCH  ACCESS:          0  HIT:          0  MISS:          0
cpu0_L1I WRITEBACK ACCESS:          0  HIT:          0  MISS:          0
cpu0_STLB TOTAL     ACCESS:     322265  HIT:     269270  MISS:      52995
cpu0_STLB LOAD      ACCESS:     321344  HIT:     268349  MISS:      52995
cpu0_STLB RFO       ACCESS:        921  HIT:        921  MISS:          0
cpu0_STLB PREFETCH  ACCESS:          0  HIT:          0  MISS:          0
cpu0_STLB WRITEBACK ACCESS:          0  HIT:          0  MISS:          0
cpu0_L1D TOTAL     ACCESS:   11769495  HIT:   10948261  MISS:     821234
cpu0_L1D LOAD      ACCESS:   10913542  HIT:   10095345  MISS:     818197
cpu0_L1D RFO       ACCESS:     803227  HIT:     803227  MISS:          0
cpu0_L1D PREFETCH  ACCESS:          0  HIT:          0  MISS:          0
cpu0_L1D WRITEBACK ACCESS:          0  HIT:          0  MISS:          0
cpu0_L2C TOTAL     ACCESS:     940236  HIT:     862752  MISS:      77484
cpu0_L2C LOAD      ACCESS:     818238  HIT:     740765  MISS:      77473
cpu0_L2C RFO       ACCESS:          0  HIT:          0  MISS:          0
cpu0_L2C PREFETCH  ACCESS:          0  HIT:          0  MISS:          0
cpu0_L2C WRITEBACK ACCESS:     118961  HIT:     118961  MISS:          0
LLC TOTAL     ACCESS:      78610  HIT:       4453  MISS:      74157
LLC LOAD      ACCESS:      77470  HIT:       3731  MISS:      73739
LLC RFO       ACCESS:          0  HIT:          0  MISS:          0
LLC PREFETCH  ACCESS:          0  HIT:          0  MISS:          0
LLC WRITEBACK ACCESS:       1129  HIT:        715  MISS:        414
Heartbeat CPU 0 instructions: 76000002 cycles: 43072717 heartbeat IPC: 1.28131 cumulative IPC: 1.24916 (Simulation time: 1 hr 29 min 53 sec) 

Region of Interest Statistics
cpu0_DTLB TOTAL     ACCESS:   10303760  HIT:    9962298  MISS:     341462
cpu0_DTLB LOAD      ACCESS:    9457743  HIT:    9117304  MISS:     340439
cpu0_DTLB RFO       ACCESS:     846017  HIT:     844994  MISS:       1023
cpu0_DTLB PREFETCH  ACCESS:          0  HIT:          0  MISS:          0
cpu0_DTLB WRITEBACK ACCESS:          0  HIT:          0  MISS:          0
cpu0_ITLB TOTAL     ACCESS:     468090  HIT:     468089  MISS:          1
cpu0_ITLB LOAD      ACCESS:     468090  HIT:     468089  MISS:          1
cpu0_ITLB RFO       ACCESS:          0  HIT:          0  MISS:          0
cpu0_ITLB PREFETCH  ACCESS:          0  HIT:          0  MISS:          0
cpu0_ITLB WRITEBACK ACCESS:          0  HIT:          0  MISS:          0
cpu0_L1I TOTAL     ACCESS:    2572597  HIT:    2572556  MISS:         41
cpu0_L1I LOAD      ACCESS:    2572597  HIT:    2572556  MISS:         41
cpu0_L1I RFO       ACCESS:          0  HIT:          0  MISS:          0
cpu0_L1I PREFETCH  ACCESS:          0  HIT:          0  MISS:          0
cpu0_L1I WRITEBACK ACCESS:          0  HIT:          0  MISS:          0
cpu0_STLB TOTAL     ACCESS:     341463  HIT:     288468  MISS:      52995
cpu0_STLB LOAD      ACCESS:     340440  HIT:     287445  MISS:      52995
cpu0_STLB RFO       ACCESS:       1023  HIT:       1023  MISS:          0
cpu0_STLB PREFETCH  ACCESS:          0  HIT:          0  MISS:          0
cpu0_STLB WRITEBACK ACCESS:          0  HIT:          0  MISS:          0
cpu0_L1D TOTAL     ACCESS:   12762137  HIT:   11889416  MISS:     872721
cpu0_L1D LOAD      ACCESS:   11837442  HIT:   10967758  MISS:     869684
cpu0_L1D RFO       ACCESS:     871969  HIT:     871969  MISS:          0
cpu0_L1D PREFETCH  ACCESS:          0  HIT:          0  MISS:          0
cpu0_L1D WRITEBACK ACCESS:          0  HIT:          0  MISS:          0
cpu0_L2C TOTAL     ACCESS:     991723  HIT:     908878  MISS:      82845
cpu0_L2C LOAD      ACCESS:     869725  HIT:     786891  MISS:      82834
cpu0_L2C RFO       ACCESS:          0  HIT:          0  MISS:          0
cpu0_L2C PREFETCH  ACCESS:          0  HIT:          0  MISS:          0
cpu0_L2C WRITEBACK ACCESS:     118961  HIT:     118961  MISS:          0
LLC TOTAL     ACCESS:      83971  HIT:       4461  MISS:      79510
LLC LOAD      ACCESS:      82831  HIT:       3739  MISS:      79092
LLC RFO       ACCESS:          0  HIT:          0  MISS:          0
LLC PREFETCH  ACCESS:          0  HIT:          0  MISS:          0
LLC WRITEBACK ACCESS:       1129  HIT:        715  MISS:        414
Heartbeat CPU 0 instructions: 78000003 cycles: 44615949 heartbeat IPC: 1.29598 cumulative IPC: 1.25239 (Simulation time: 1 hr 32 min 38 sec) 

Region of Interest Statistics
cpu0_DTLB TOTAL     ACCESS:   11102311  HIT:   10741788  MISS:     360523
cpu0_DTLB LOAD      ACCESS:   10188871  HIT:    9829440  MISS:     359431
cpu0_DTLB RFO       ACCESS:     913440  HIT:     912348  MISS:       1092
cpu0_DTLB PREFETCH  ACCESS:          0  HIT:          0  MISS:          0
cpu0_DTLB WRITEBACK ACCESS:          0  HIT:          0  MISS:          0
cpu0_ITLB TOTAL     ACCESS:     504936  HIT:     504934  MISS:          2
cpu0_ITLB LOAD      ACCESS:     504936  HIT:     504934  MISS:          2
cpu0_ITLB RFO       ACCESS:          0  HIT:          0  MISS:          0
cpu0_ITLB PREFETCH  ACCESS:          0  HIT:          0  MISS:          0
cpu0_ITLB WRITEBACK ACCESS:          0  HIT:          0  MISS:          0
cpu0_L1I TOTAL     ACCESS:    2768178  HIT:    2768095  MISS:         83
cpu0_L1I LOAD      ACCESS:    2768178  HIT:    2768095  MISS:         83
cpu0_L1I RFO       ACCESS:          0  HIT:          0  MISS:          0
cpu0_L1I PREFETCH  ACCESS:          0  HIT:          0  MISS:          0
cpu0_L1I WRITEBACK ACCESS:          0  HIT:          0  MISS:          0
cpu0_STLB TOTAL     ACCESS:     360525  HIT:     306803  MISS:      53722
cpu0_STLB LOAD      ACCESS:     359433  HIT:     305711  MISS:      53722
cpu0_STLB RFO       ACCESS:       1092  HIT:       1092  MISS:          0
cpu0_STLB PREFETCH  ACCESS:          0  HIT:          0  MISS:          0
cpu0_STLB WRITEBACK ACCESS:          0  HIT:          0  MISS:          0
cpu0_L1D TOTAL     ACCESS:   13757590  HIT:   12833342  MISS:     924248
cpu0_L1D LOAD      ACCESS:   12763421  HIT:   11842223  MISS:     921198
cpu0_L1D RFO       ACCESS:     940717  HIT:     940717  MISS:          0
cpu0_L1D PREFETCH  ACCESS:          0  HIT:          0  MISS:          0
cpu0_L1D WRITEBACK ACCESS:          0  HIT:          0  MISS:          0
cpu0_L2C TOTAL     ACCESS:    1043293  HIT:     953045  MISS:      90248
cpu0_L2C LOAD      ACCESS:     921281  HIT:     831054  MISS:      90227
cpu0_L2C RFO       ACCESS:          0  HIT:          0  MISS:          0
cpu0_L2C PREFETCH  ACCESS:          0  HIT:          0  MISS:          0
cpu0_L2C WRITEBACK ACCESS:     118962  HIT:     118961  MISS:          1
LLC TOTAL     ACCESS:      91373  HIT:       5715  MISS:      85658
LLC LOAD      ACCESS:      90224  HIT:       4992  MISS:      85232
LLC RFO       ACCESS:          0  HIT:          0  MISS:          0
LLC PREFETCH  ACCESS:          0  HIT:          0  MISS:          0
LLC WRITEBACK ACCESS:       1129  HIT:        715  MISS:        414
Heartbeat CPU 0 instructions: 80000003 cycles: 46116870 heartbeat IPC: 1.33252 cumulative IPC: 1.25743 (Simulation time: 1 hr 35 min 32 sec) 

Region of Interest Statistics
cpu0_DTLB TOTAL     ACCESS:   11916880  HIT:   11537282  MISS:     379598
cpu0_DTLB LOAD      ACCESS:   10935977  HIT:   10557519  MISS:     378458
cpu0_DTLB RFO       ACCESS:     980903  HIT:     979763  MISS:       1140
cpu0_DTLB PREFETCH  ACCESS:          0  HIT:          0  MISS:          0
cpu0_DTLB WRITEBACK ACCESS:          0  HIT:          0  MISS:          0
cpu0_ITLB TOTAL     ACCESS:     543670  HIT:     543668  MISS:          2
cpu0_ITLB LOAD      ACCESS:     543670  HIT:     543668  MISS:          2
cpu0_ITLB RFO       ACCESS:          0  HIT:          0  MISS:          0
cpu0_ITLB PREFETCH  ACCESS:          0  HIT:          0  MISS:          0
cpu0_ITLB WRITEBACK ACCESS:          0  HIT:          0  MISS:          0
cpu0_L1I TOTAL     ACCESS:    2958403  HIT:    2958320  MISS:         83
cpu0_L1I LOAD      ACCESS:    2958403  HIT:    2958320  MISS:         83
cpu0_L1I RFO       ACCESS:          0  HIT:          0  MISS:          0
cpu0_L1I PREFETCH  ACCESS:          0  HIT:          0  MISS:          0
cpu0_L1I WRITEBACK ACCESS:          0  HIT:          0  MISS:          0
cpu0_STLB TOTAL     ACCESS:     379600  HIT:     325878  MISS:      53722
cpu0_STLB LOAD      ACCESS:     378460  HIT:     324738  MISS:      53722
cpu0_STLB RFO       ACCESS:       1140  HIT:       1140  MISS:          0
cpu0_STLB PREFETCH  ACCESS:          0  HIT:          0  MISS:          0
cpu0_STLB WRITEBACK ACCESS:          0  HIT:          0  MISS:          0
cpu0_L1D TOTAL     ACCESS:   14761153  HIT:   13785395  MISS:     975758
cpu0_L1D LOAD      ACCESS:   13698240  HIT:   12725532  MISS:     972708
cpu0_L1D RFO       ACCESS:    1009461  HIT:    1009461  MISS:          0
cpu0_L1D PREFETCH  ACCESS:          0  HIT:          0  MISS:          0
cpu0_L1D WRITEBACK ACCESS:          0  HIT:          0  MISS:          0
cpu0_L2C TOTAL     ACCESS:    1094803  HIT:     999130  MISS:      95673
cpu0_L2C LOAD      ACCESS:     972791  HIT:     877139  MISS:      95652
cpu0_L2C RFO       ACCESS:          0  HIT:          0  MISS:          0
cpu0_L2C PREFETCH  ACCESS:          0  HIT:          0  MISS:          0
cpu0_L2C WRITEBACK ACCESS:     118962  HIT:     118961  MISS:          1
LLC TOTAL     ACCESS:      96798  HIT:       5726  MISS:      91072
LLC LOAD      ACCESS:      95649  HIT:       5003  MISS:      90646
LLC RFO       ACCESS:          0  HIT:          0  MISS:          0
LLC PREFETCH  ACCESS:          0  HIT:          0  MISS:          0
LLC WRITEBACK ACCESS:       1129  HIT:        715  MISS:        414
Heartbeat CPU 0 instructions: 82000002 cycles: 47612347 heartbeat IPC: 1.33737 cumulative IPC: 1.26215 (Simulation time: 1 hr 38 min 19 sec) 

Region of Interest Statistics
cpu0_DTLB TOTAL     ACCESS:   12730874  HIT:   12332144  MISS:     398730
cpu0_DTLB LOAD      ACCESS:   11682466  HIT:   11284922  MISS:     397544
cpu0_DTLB RFO       ACCESS:    1048408  HIT:    1047222  MISS:       1186
cpu0_DTLB PREFETCH  ACCESS:          0  HIT:          0  MISS:          0
cpu0_DTLB WRITEBACK ACCESS:          0  HIT:          0  MISS:          0
cpu0_ITLB TOTAL     ACCESS:     582406  HIT:     582404  MISS:          2
cpu0_ITLB LOAD      ACCESS:     582406  HIT:     582404  MISS:          2
cpu0_ITLB RFO       ACCESS:          0  HIT:          0  MISS:          0
cpu0_ITLB PREFETCH  ACCESS:          0  HIT:          0  MISS:          0
cpu0_ITLB WRITEBACK ACCESS:          0  HIT:          0  MISS:          0
cpu0_L1I TOTAL     ACCESS:    3148569  HIT:    3148486  MISS:         83
cpu0_L1I LOAD      ACCESS:    3148569  HIT:    3148486  MISS:         83
cpu0_L1I RFO       ACCESS:          0  HIT:          0  MISS:          0
cpu0_L1I PREFETCH  ACCESS:          0  HIT:          0  MISS:          0
cpu0_L1I WRITEBACK ACCESS:          0  HIT:          0  MISS:          0
cpu0_STLB TOTAL     ACCESS:     398732  HIT:     345009  MISS:      53723
cpu0_STLB LOAD      ACCESS:     397546  HIT:     343823  MISS:      53723
cpu0_STLB RFO       ACCESS:       1186  HIT:       1186  MISS:          0
cpu0_STLB PREFETCH  ACCESS:          0  HIT:          0  MISS:          0
cpu0_STLB WRITEBACK ACCESS:          0  HIT:          0  MISS:          0
cpu0_L1D TOTAL     ACCESS:   15765111  HIT:   14737845  MISS:    1027266
cpu0_L1D LOAD      ACCESS:   14633455  HIT:   13609240  MISS:    1024215
cpu0_L1D RFO       ACCESS:    1078203  HIT:    1078203  MISS:          0
cpu0_L1D PREFETCH  ACCESS:          0  HIT:          0  MISS:          0
cpu0_L1D WRITEBACK ACCESS:          0  HIT:          0  MISS:          0
cpu0_L2C TOTAL     ACCESS:    1146311  HIT:    1045314  MISS:     100997
cpu0_L2C LOAD      ACCESS:    1024298  HIT:     923323  MISS:     100975
cpu0_L2C RFO       ACCESS:          0  HIT:          0  MISS:          0
cpu0_L2C PREFETCH  ACCESS:          0  HIT:          0  MISS:          0
cpu0_L2C WRITEBACK ACCESS:     118962  HIT:     118961  MISS:          1
LLC TOTAL     ACCESS:     102122  HIT:       5727  MISS:      96395
LLC LOAD      ACCESS:     100972  HIT:       5003  MISS:      95969
LLC RFO       ACCESS:          0  HIT:          0  MISS:          0
LLC PREFETCH  ACCESS:          0  HIT:          0  MISS:          0
LLC WRITEBACK ACCESS:       1129  HIT:        715  MISS:        414
Heartbeat CPU 0 instructions: 84000000 cycles: 49104972 heartbeat IPC: 1.33992 cumulative IPC: 1.26647 (Simulation time: 1 hr 41 min 5 sec) 

Region of Interest Statistics
cpu0_DTLB TOTAL     ACCESS:   13545258  HIT:   13127521  MISS:     417737
cpu0_DTLB LOAD      ACCESS:   12429386  HIT:   12012880  MISS:     416506
cpu0_DTLB RFO       ACCESS:    1115872  HIT:    1114641  MISS:       1231
cpu0_DTLB PREFETCH  ACCESS:          0  HIT:          0  MISS:          0
cpu0_DTLB WRITEBACK ACCESS:          0  HIT:          0  MISS:          0
cpu0_ITLB TOTAL     ACCESS:     621140  HIT:     621138  MISS:          2
cpu0_ITLB LOAD      ACCESS:     621140  HIT:     621138  MISS:          2
cpu0_ITLB RFO       ACCESS:          0  HIT:          0  MISS:          0
cpu0_ITLB PREFETCH  ACCESS:          0  HIT:          0  MISS:          0
cpu0_ITLB WRITEBACK ACCESS:          0  HIT:          0  MISS:          0
cpu0_L1I TOTAL     ACCESS:    3338788  HIT:    3338705  MISS:         83
cpu0_L1I LOAD      ACCESS:    3338788  HIT:    3338705  MISS:         83
cpu0_L1I RFO       ACCESS:          0  HIT:          0  MISS:          0
cpu0_L1I PREFETCH  ACCESS:          0  HIT:          0  MISS:          0
cpu0_L1I WRITEBACK ACCESS:          0  HIT:          0  MISS:          0
cpu0_STLB TOTAL     ACCESS:     417739  HIT:     364015  MISS:      53724
cpu0_STLB LOAD      ACCESS:     416508  HIT:     362784  MISS:      53724
cpu0_STLB RFO       ACCESS:       1231  HIT:       1231  MISS:          0
cpu0_STLB PREFETCH  ACCESS:          0  HIT:          0  MISS:          0
cpu0_STLB WRITEBACK ACCESS:          0  HIT:          0  MISS:          0
cpu0_L1D TOTAL     ACCESS:   16768915  HIT:   15690132  MISS:    1078783
cpu0_L1D LOAD      ACCESS:   15568515  HIT:   14492784  MISS:    1075731
cpu0_L1D RFO       ACCESS:    1146946  HIT:    1146946  MISS:          0
cpu0_L1D PREFETCH  ACCESS:          0  HIT:          0  MISS:          0
cpu0_L1D WRITEBACK ACCESS:          0  HIT:          0  MISS:          0
cpu0_L2C TOTAL     ACCESS:    1197828  HIT:    1091521  MISS:     106307
cpu0_L2C LOAD      ACCESS:    1075814  HIT:     969530  MISS:     106284
cpu0_L2C RFO       ACCESS:          0  HIT:          0  MISS:          0
cpu0_L2C PREFETCH  ACCESS:          0  HIT:          0  MISS:          0
cpu0_L2C WRITEBACK ACCESS:     118962  HIT:     118961  MISS:          1
LLC TOTAL     ACCESS:     107432  HIT:       5728  MISS:     101704
LLC LOAD      ACCESS:     106281  HIT:       5003  MISS:     101278
LLC RFO       ACCESS:          0  HIT:          0  MISS:          0
LLC PREFETCH  ACCESS:          0  HIT:          0  MISS:          0
LLC WRITEBACK ACCESS:       1129  HIT:        715  MISS:        414
Heartbeat CPU 0 instructions: 86000004 cycles: 50599120 heartbeat IPC: 1.33856 cumulative IPC: 1.27027 (Simulation time: 1 hr 43 min 44 sec) 

Region of Interest Statistics
cpu0_DTLB TOTAL     ACCESS:   14359532  HIT:   13922741  MISS:     436791
cpu0_DTLB LOAD      ACCESS:   13176176  HIT:   12740667  MISS:     435509
cpu0_DTLB RFO       ACCESS:    1183356  HIT:    1182074  MISS:       1282
cpu0_DTLB PREFETCH  ACCESS:          0  HIT:          0  MISS:          0
cpu0_DTLB WRITEBACK ACCESS:          0  HIT:          0  MISS:          0
cpu0_ITLB TOTAL     ACCESS:     659878  HIT:     659876  MISS:          2
cpu0_ITLB LOAD      ACCESS:     659878  HIT:     659876  MISS:          2
cpu0_ITLB RFO       ACCESS:          0  HIT:          0  MISS:          0
cpu0_ITLB PREFETCH  ACCESS:          0  HIT:          0  MISS:          0
cpu0_ITLB WRITEBACK ACCESS:          0  HIT:          0  MISS:          0
cpu0_L1I TOTAL     ACCESS:    3528921  HIT:    3528838  MISS:         83
cpu0_L1I LOAD      ACCESS:    3528921  HIT:    3528838  MISS:         83
cpu0_L1I RFO       ACCESS:          0  HIT:          0  MISS:          0
cpu0_L1I PREFETCH  ACCESS:          0  HIT:          0  MISS:          0
cpu0_L1I WRITEBACK ACCESS:          0  HIT:          0  MISS:          0
cpu0_STLB TOTAL     ACCESS:     436793  HIT:     383068  MISS:      53725
cpu0_STLB LOAD      ACCESS:     435511  HIT:     381786  MISS:      53725
cpu0_STLB RFO       ACCESS:       1282  HIT:       1282  MISS:          0
cpu0_STLB PREFETCH  ACCESS:          0  HIT:          0  MISS:          0
cpu0_STLB WRITEBACK ACCESS:          0  HIT:          0  MISS:          0
cpu0_L1D TOTAL     ACCESS:   17772982  HIT:   16642692  MISS:    1130290
cpu0_L1D LOAD      ACCESS:   16503836  HIT:   15376599  MISS:    1127237
cpu0_L1D RFO       ACCESS:    1215691  HIT:    1215691  MISS:          0
cpu0_L1D PREFETCH  ACCESS:          0  HIT:          0  MISS:          0
cpu0_L1D WRITEBACK ACCESS:          0  HIT:          0  MISS:          0
cpu0_L2C TOTAL     ACCESS:    1249335  HIT:    1137707  MISS:     111628
cpu0_L2C LOAD      ACCESS:    1127320  HIT:    1015716  MISS:     111604
cpu0_L2C RFO       ACCESS:          0  HIT:          0  MISS:          0
cpu0_L2C PREFETCH  ACCESS:          0  HIT:          0  MISS:          0
cpu0_L2C WRITEBACK ACCESS:     118962  HIT:     118961  MISS:          1
LLC TOTAL     ACCESS:     112753  HIT:       5739  MISS:     107014
LLC LOAD      ACCESS:     111601  HIT:       5013  MISS:     106588
LLC RFO       ACCESS:          0  HIT:          0  MISS:          0
LLC PREFETCH  ACCESS:          0  HIT:          0  MISS:          0
LLC WRITEBACK ACCESS:       1129  HIT:        715  MISS:        414
Heartbeat CPU 0 instructions: 88000002 cycles: 52098252 heartbeat IPC: 1.3341 cumulative IPC: 1.27348 (Simulation time: 1 hr 46 min 21 sec) 

Region of Interest Statistics
cpu0_DTLB TOTAL     ACCESS:   15173803  HIT:   14717677  MISS:     456126
cpu0_DTLB LOAD      ACCESS:   13922980  HIT:   13468191  MISS:     454789
cpu0_DTLB RFO       ACCESS:    1250823  HIT:    1249486  MISS:       1337
cpu0_DTLB PREFETCH  ACCESS:          0  HIT:          0  MISS:          0
cpu0_DTLB WRITEBACK ACCESS:          0  HIT:          0  MISS:          0
cpu0_ITLB TOTAL     ACCESS:     698610  HIT:     698608  MISS:          2
cpu0_ITLB LOAD      ACCESS:     698610  HIT:     698608  MISS:          2
cpu0_ITLB RFO       ACCESS:          0  HIT:          0  MISS:          0
cpu0_ITLB PREFETCH  ACCESS:          0  HIT:          0  MISS:          0
cpu0_ITLB WRITEBACK ACCESS:          0  HIT:          0  MISS:          0
cpu0_L1I TOTAL     ACCESS:    3719097  HIT:    3719014  MISS:         83
cpu0_L1I LOAD      ACCESS:    3719097  HIT:    3719014  MISS:         83
cpu0_L1I RFO       ACCESS:          0  HIT:          0  MISS:          0
cpu0_L1I PREFETCH  ACCESS:          0  HIT:          0  MISS:          0
cpu0_L1I WRITEBACK ACCESS:          0  HIT:          0  MISS:          0
cpu0_STLB TOTAL     ACCESS:     456128  HIT:     402403  MISS:      53725
cpu0_STLB LOAD      ACCESS:     454791  HIT:     401066  MISS:      53725
cpu0_STLB RFO       ACCESS:       1337  HIT:       1337  MISS:          0
cpu0_STLB PREFETCH  ACCESS:          0  HIT:          0  MISS:          0
cpu0_STLB WRITEBACK ACCESS:          0  HIT:          0  MISS:          0
cpu0_L1D TOTAL     ACCESS:   18776751  HIT:   17594952  MISS:    1181799
cpu0_L1D LOAD      ACCESS:   17438864  HIT:   16260118  MISS:    1178746
cpu0_L1D RFO       ACCESS:    1284432  HIT:    1284432  MISS:          0
cpu0_L1D PREFETCH  ACCESS:          0  HIT:          0  MISS:          0
cpu0_L1D WRITEBACK ACCESS:          0  HIT:          0  MISS:          0
cpu0_L2C TOTAL     ACCESS:    1300844  HIT:    1183792  MISS:     117052
cpu0_L2C LOAD      ACCESS:    1178829  HIT:    1061801  MISS:     117028
cpu0_L2C RFO       ACCESS:          0  HIT:          0  MISS:          0
cpu0_L2C PREFETCH  ACCESS:          0  HIT:          0  MISS:          0
cpu0_L2C WRITEBACK ACCESS:     118962  HIT:     118961  MISS:          1
LLC TOTAL     ACCESS:     118177  HIT:       5798  MISS:     112379
LLC LOAD      ACCESS:     117025  HIT:       5072  MISS:     111953
LLC RFO       ACCESS:          0  HIT:          0  MISS:          0
LLC PREFETCH  ACCESS:          0  HIT:          0  MISS:          0
LLC WRITEBACK ACCESS:       1129  HIT:        715  MISS:        414
Heartbeat CPU 0 instructions: 90000002 cycles: 53605180 heartbeat IPC: 1.3272 cumulative IPC: 1.27606 (Simulation time: 1 hr 49 min 3 sec) 

Region of Interest Statistics
cpu0_DTLB TOTAL     ACCESS:   15988146  HIT:   15512764  MISS:     475382
cpu0_DTLB LOAD      ACCESS:   14669864  HIT:   14195869  MISS:     473995
cpu0_DTLB RFO       ACCESS:    1318282  HIT:    1316895  MISS:       1387
cpu0_DTLB PREFETCH  ACCESS:          0  HIT:          0  MISS:          0
cpu0_DTLB WRITEBACK ACCESS:          0  HIT:          0  MISS:          0
cpu0_ITLB TOTAL     ACCESS:     737351  HIT:     737349  MISS:          2
cpu0_ITLB LOAD      ACCESS:     737351  HIT:     737349  MISS:          2
cpu0_ITLB RFO       ACCESS:          0  HIT:          0  MISS:          0
cpu0_ITLB PREFETCH  ACCESS:          0  HIT:          0  MISS:          0
cpu0_ITLB WRITEBACK ACCESS:          0  HIT:          0  MISS:          0
cpu0_L1I TOTAL     ACCESS:    3909223  HIT:    3909140  MISS:         83
cpu0_L1I LOAD      ACCESS:    3909223  HIT:    3909140  MISS:         83
cpu0_L1I RFO       ACCESS:          0  HIT:          0  MISS:          0
cpu0_L1I PREFETCH  ACCESS:          0  HIT:          0  MISS:          0
cpu0_L1I WRITEBACK ACCESS:          0  HIT:          0  MISS:          0
cpu0_STLB TOTAL     ACCESS:     475384  HIT:     421659  MISS:      53725
cpu0_STLB LOAD      ACCESS:     473997  HIT:     420272  MISS:      53725
cpu0_STLB RFO       ACCESS:       1387  HIT:       1387  MISS:          0
cpu0_STLB PREFETCH  ACCESS:          0  HIT:          0  MISS:          0
cpu0_STLB WRITEBACK ACCESS:          0  HIT:          0  MISS:          0
cpu0_L1D TOTAL     ACCESS:   19780386  HIT:   18547075  MISS:    1233311
cpu0_L1D LOAD      ACCESS:   18373755  HIT:   17143497  MISS:    1230258
cpu0_L1D RFO       ACCESS:    1353176  HIT:    1353176  MISS:          0
cpu0_L1D PREFETCH  ACCESS:          0  HIT:          0  MISS:          0
cpu0_L1D WRITEBACK ACCESS:          0  HIT:          0  MISS:          0
cpu0_L2C TOTAL     ACCESS:    1352357  HIT:    1229808  MISS:     122549
cpu0_L2C LOAD      ACCESS:    1230342  HIT:    1107817  MISS:     122525
cpu0_L2C RFO       ACCESS:          0  HIT:          0  MISS:          0
cpu0_L2C PREFETCH  ACCESS:          0  HIT:          0  MISS:          0
cpu0_L2C WRITEBACK ACCESS:     118962  HIT:     118961  MISS:          1
LLC TOTAL     ACCESS:     123674  HIT:       5881  MISS:     117793
LLC LOAD      ACCESS:     122522  HIT:       5155  MISS:     117367
LLC RFO       ACCESS:          0  HIT:          0  MISS:          0
LLC PREFETCH  ACCESS:          0  HIT:          0  MISS:          0
LLC WRITEBACK ACCESS:       1129  HIT:        715  MISS:        414
Heartbeat CPU 0 instructions: 92000003 cycles: 55078673 heartbeat IPC: 1.35732 cumulative IPC: 1.27971 (Simulation time: 1 hr 51 min 46 sec) 

Region of Interest Statistics
cpu0_DTLB TOTAL     ACCESS:   16802405  HIT:   16307911  MISS:     494494
cpu0_DTLB LOAD      ACCESS:   15416640  HIT:   14923576  MISS:     493064
cpu0_DTLB RFO       ACCESS:    1385765  HIT:    1384335  MISS:       1430
cpu0_DTLB PREFETCH  ACCESS:          0  HIT:          0  MISS:          0
cpu0_DTLB WRITEBACK ACCESS:          0  HIT:          0  MISS:          0
cpu0_ITLB TOTAL     ACCESS:     776089  HIT:     776087  MISS:          2
cpu0_ITLB LOAD      ACCESS:     776089  HIT:     776087  MISS:          2
cpu0_ITLB RFO       ACCESS:          0  HIT:          0  MISS:          0
cpu0_ITLB PREFETCH  ACCESS:          0  HIT:          0  MISS:          0
cpu0_ITLB WRITEBACK ACCESS:          0  HIT:          0  MISS:          0
cpu0_L1I TOTAL     ACCESS:    4099379  HIT:    4099296  MISS:         83
cpu0_L1I LOAD      ACCESS:    4099379  HIT:    4099296  MISS:         83
cpu0_L1I RFO       ACCESS:          0  HIT:          0  MISS:          0
cpu0_L1I PREFETCH  ACCESS:          0  HIT:          0  MISS:          0
cpu0_L1I WRITEBACK ACCESS:          0  HIT:          0  MISS:          0
cpu0_STLB TOTAL     ACCESS:     494496  HIT:     440771  MISS:      53725
cpu0_STLB LOAD      ACCESS:     493066  HIT:     439341  MISS:      53725
cpu0_STLB RFO       ACCESS:       1430  HIT:       1430  MISS:          0
cpu0_STLB PREFETCH  ACCESS:          0  HIT:          0  MISS:          0
cpu0_STLB WRITEBACK ACCESS:          0  HIT:          0  MISS:          0
cpu0_L1D TOTAL     ACCESS:   20783931  HIT:   19499109  MISS:    1284822
cpu0_L1D LOAD      ACCESS:   19308556  HIT:   18026787  MISS:    1281769
cpu0_L1D RFO       ACCESS:    1421920  HIT:    1421920  MISS:          0
cpu0_L1D PREFETCH  ACCESS:          0  HIT:          0  MISS:          0
cpu0_L1D WRITEBACK ACCESS:          0  HIT:          0  MISS:          0
cpu0_L2C TOTAL     ACCESS:    1403867  HIT:    1275898  MISS:     127969
cpu0_L2C LOAD      ACCESS:    1281852  HIT:    1153907  MISS:     127945
cpu0_L2C RFO       ACCESS:          0  HIT:          0  MISS:          0
cpu0_L2C PREFETCH  ACCESS:          0  HIT:          0  MISS:          0
cpu0_L2C WRITEBACK ACCESS:     118962  HIT:     118961  MISS:          1
LLC TOTAL     ACCESS:     129094  HIT:       6145  MISS:     122949
LLC LOAD      ACCESS:     127942  HIT:       5419  MISS:     122523
LLC RFO       ACCESS:          0  HIT:          0  MISS:          0
LLC PREFETCH  ACCESS:          0  HIT:          0  MISS:          0
LLC WRITEBACK ACCESS:       1129  HIT:        715  MISS:        414
Heartbeat CPU 0 instructions: 94000003 cycles: 56930288 heartbeat IPC: 1.08014 cumulative IPC: 1.26905 (Simulation time: 1 hr 54 min 51 sec) 

Region of Interest Statistics
cpu0_DTLB TOTAL     ACCESS:   17609251  HIT:   17089541  MISS:     519710
cpu0_DTLB LOAD      ACCESS:   16157405  HIT:   15639370  MISS:     518035
cpu0_DTLB RFO       ACCESS:    1451846  HIT:    1450171  MISS:       1675
cpu0_DTLB PREFETCH  ACCESS:          0  HIT:          0  MISS:          0
cpu0_DTLB WRITEBACK ACCESS:          0  HIT:          0  MISS:          0
cpu0_ITLB TOTAL     ACCESS:     814660  HIT:     814658  MISS:          2
cpu0_ITLB LOAD      ACCESS:     814660  HIT:     814658  MISS:          2
cpu0_ITLB RFO       ACCESS:          0  HIT:          0  MISS:          0
cpu0_ITLB PREFETCH  ACCESS:          0  HIT:          0  MISS:          0
cpu0_ITLB WRITEBACK ACCESS:          0  HIT:          0  MISS:          0
cpu0_L1I TOTAL     ACCESS:    4293782  HIT:    4293699  MISS:         83
cpu0_L1I LOAD      ACCESS:    4293782  HIT:    4293699  MISS:         83
cpu0_L1I RFO       ACCESS:          0  HIT:          0  MISS:          0
cpu0_L1I PREFETCH  ACCESS:          0  HIT:          0  MISS:          0
cpu0_L1I WRITEBACK ACCESS:          0  HIT:          0  MISS:          0
cpu0_STLB TOTAL     ACCESS:     519712  HIT:     461289  MISS:      58423
cpu0_STLB LOAD      ACCESS:     518037  HIT:     459614  MISS:      58423
cpu0_STLB RFO       ACCESS:       1675  HIT:       1675  MISS:          0
cpu0_STLB PREFETCH  ACCESS:          0  HIT:          0  MISS:          0
cpu0_STLB WRITEBACK ACCESS:          0  HIT:          0  MISS:          0
cpu0_L1D TOTAL     ACCESS:   21753880  HIT:   20395505  MISS:    1358375
cpu0_L1D LOAD      ACCESS:   20206953  HIT:   18851932  MISS:    1355021
cpu0_L1D RFO       ACCESS:    1488781  HIT:    1488781  MISS:          0
cpu0_L1D PREFETCH  ACCESS:          0  HIT:          0  MISS:          0
cpu0_L1D WRITEBACK ACCESS:          0  HIT:          0  MISS:          0
cpu0_L2C TOTAL     ACCESS:    1489970  HIT:    1341524  MISS:     148446
cpu0_L2C LOAD      ACCESS:    1355104  HIT:    1206716  MISS:     148388
cpu0_L2C RFO       ACCESS:          0  HIT:          0  MISS:          0
cpu0_L2C PREFETCH  ACCESS:          0  HIT:          0  MISS:          0
cpu0_L2C WRITEBACK ACCESS:     131512  HIT:     131496  MISS:         16
LLC TOTAL     ACCESS:     149600  HIT:       7394  MISS:     142206
LLC LOAD      ACCESS:     148385  HIT:       6619  MISS:     141766
LLC RFO       ACCESS:          0  HIT:          0  MISS:          0
LLC PREFETCH  ACCESS:          0  HIT:          0  MISS:          0
LLC WRITEBACK ACCESS:       1173  HIT:        757  MISS:        416
Heartbeat CPU 0 instructions: 96000001 cycles: 58951904 heartbeat IPC: 0.989307 cumulative IPC: 1.25364 (Simulation time: 1 hr 58 min 12 sec) 

Region of Interest Statistics
cpu0_DTLB TOTAL     ACCESS:   18412826  HIT:   17864196  MISS:     548630
cpu0_DTLB LOAD      ACCESS:   16895522  HIT:   16348947  MISS:     546575
cpu0_DTLB RFO       ACCESS:    1517304  HIT:    1515249  MISS:       2055
cpu0_DTLB PREFETCH  ACCESS:          0  HIT:          0  MISS:          0
cpu0_DTLB WRITEBACK ACCESS:          0  HIT:          0  MISS:          0
cpu0_ITLB TOTAL     ACCESS:     853124  HIT:     853122  MISS:          2
cpu0_ITLB LOAD      ACCESS:     853124  HIT:     853122  MISS:          2
cpu0_ITLB RFO       ACCESS:          0  HIT:          0  MISS:          0
cpu0_ITLB PREFETCH  ACCESS:          0  HIT:          0  MISS:          0
cpu0_ITLB WRITEBACK ACCESS:          0  HIT:          0  MISS:          0
cpu0_L1I TOTAL     ACCESS:    4490758  HIT:    4490675  MISS:         83
cpu0_L1I LOAD      ACCESS:    4490758  HIT:    4490675  MISS:         83
cpu0_L1I RFO       ACCESS:          0  HIT:          0  MISS:          0
cpu0_L1I PREFETCH  ACCESS:          0  HIT:          0  MISS:          0
cpu0_L1I WRITEBACK ACCESS:          0  HIT:          0  MISS:          0
cpu0_STLB TOTAL     ACCESS:     548632  HIT:     483902  MISS:      64730
cpu0_STLB LOAD      ACCESS:     546577  HIT:     481847  MISS:      64730
cpu0_STLB RFO       ACCESS:       2055  HIT:       2055  MISS:          0
cpu0_STLB PREFETCH  ACCESS:          0  HIT:          0  MISS:          0
cpu0_STLB WRITEBACK ACCESS:          0  HIT:          0  MISS:          0
cpu0_L1D TOTAL     ACCESS:   22701081  HIT:   21256313  MISS:    1444768
cpu0_L1D LOAD      ACCESS:   21082083  HIT:   19641142  MISS:    1440941
cpu0_L1D RFO       ACCESS:    1554545  HIT:    1554545  MISS:          0
cpu0_L1D PREFETCH  ACCESS:          0  HIT:          0  MISS:          0
cpu0_L1D WRITEBACK ACCESS:          0  HIT:          0  MISS:          0
cpu0_L2C TOTAL     ACCESS:    1596534  HIT:    1421937  MISS:     174597
cpu0_L2C LOAD      ACCESS:    1441024  HIT:    1266488  MISS:     174536
cpu0_L2C RFO       ACCESS:          0  HIT:          0  MISS:          0
cpu0_L2C PREFETCH  ACCESS:          0  HIT:          0  MISS:          0
cpu0_L2C WRITEBACK ACCESS:     151683  HIT:     151667  MISS:         16
LLC TOTAL     ACCESS:     175791  HIT:       7601  MISS:     168190
LLC LOAD      ACCESS:     174533  HIT:       6784  MISS:     167749
LLC RFO       ACCESS:          0  HIT:          0  MISS:          0
LLC PREFETCH  ACCESS:          0  HIT:          0  MISS:          0
LLC WRITEBACK ACCESS:       1213  HIT:        796  MISS:        417
Heartbeat CPU 0 instructions: 98000002 cycles: 60974076 heartbeat IPC: 0.989036 cumulative IPC: 1.23982 (Simulation time: 2 hr 1 min 27 sec) 

Region of Interest Statistics
cpu0_DTLB TOTAL     ACCESS:   19216743  HIT:   18639224  MISS:     577519
cpu0_DTLB LOAD      ACCESS:   17633974  HIT:   17058895  MISS:     575079
cpu0_DTLB RFO       ACCESS:    1582769  HIT:    1580329  MISS:       2440
cpu0_DTLB PREFETCH  ACCESS:          0  HIT:          0  MISS:          0
cpu0_DTLB WRITEBACK ACCESS:          0  HIT:          0  MISS:          0
cpu0_ITLB TOTAL     ACCESS:     891589  HIT:     891587  MISS:          2
cpu0_ITLB LOAD      ACCESS:     891589  HIT:     891587  MISS:          2
cpu0_ITLB RFO       ACCESS:          0  HIT:          0  MISS:          0
cpu0_ITLB PREFETCH  ACCESS:          0  HIT:          0  MISS:          0
cpu0_ITLB WRITEBACK ACCESS:          0  HIT:          0  MISS:          0
cpu0_L1I TOTAL     ACCESS:    4687731  HIT:    4687648  MISS:         83
cpu0_L1I LOAD      ACCESS:    4687731  HIT:    4687648  MISS:         83
cpu0_L1I RFO       ACCESS:          0  HIT:          0  MISS:          0
cpu0_L1I PREFETCH  ACCESS:          0  HIT:          0  MISS:          0
cpu0_L1I WRITEBACK ACCESS:          0  HIT:          0  MISS:          0
cpu0_STLB TOTAL     ACCESS:     577521  HIT:     506703  MISS:      70818
cpu0_STLB LOAD      ACCESS:     575081  HIT:     504263  MISS:      70818
cpu0_STLB RFO       ACCESS:       2440  HIT:       2440  MISS:          0
cpu0_STLB PREFETCH  ACCESS:          0  HIT:          0  MISS:          0
cpu0_STLB WRITEBACK ACCESS:          0  HIT:          0  MISS:          0
cpu0_L1D TOTAL     ACCESS:   23648201  HIT:   22117035  MISS:    1531166
cpu0_L1D LOAD      ACCESS:   21957351  HIT:   20430490  MISS:    1526861
cpu0_L1D RFO       ACCESS:    1620309  HIT:    1620309  MISS:          0
cpu0_L1D PREFETCH  ACCESS:          0  HIT:          0  MISS:          0
cpu0_L1D WRITEBACK ACCESS:          0  HIT:          0  MISS:          0
cpu0_L2C TOTAL     ACCESS:    1703082  HIT:    1502340  MISS:     200742
cpu0_L2C LOAD      ACCESS:    1526944  HIT:    1326268  MISS:     200676
cpu0_L2C RFO       ACCESS:          0  HIT:          0  MISS:          0
cpu0_L2C PREFETCH  ACCESS:          0  HIT:          0  MISS:          0
cpu0_L2C WRITEBACK ACCESS:     171833  HIT:     171817  MISS:         16
LLC TOTAL     ACCESS:     201979  HIT:       7798  MISS:     194181
LLC LOAD      ACCESS:     200673  HIT:       6940  MISS:     193733
LLC RFO       ACCESS:          0  HIT:          0  MISS:          0
LLC PREFETCH  ACCESS:          0  HIT:          0  MISS:          0
LLC WRITEBACK ACCESS:       1256  HIT:        832  MISS:        424
Heartbeat CPU 0 instructions: 100000001 cycles: 62993605 heartbeat IPC: 0.990329 cumulative IPC: 1.22745 (Simulation time: 2 hr 4 min 47 sec) 

Region of Interest Statistics
cpu0_DTLB TOTAL     ACCESS:   20020403  HIT:   19414047  MISS:     606356
cpu0_DTLB LOAD      ACCESS:   18372183  HIT:   17768632  MISS:     603551
cpu0_DTLB RFO       ACCESS:    1648220  HIT:    1645415  MISS:       2805
cpu0_DTLB PREFETCH  ACCESS:          0  HIT:          0  MISS:          0
cpu0_DTLB WRITEBACK ACCESS:          0  HIT:          0  MISS:          0
cpu0_ITLB TOTAL     ACCESS:     930054  HIT:     930052  MISS:          2
cpu0_ITLB LOAD      ACCESS:     930054  HIT:     930052  MISS:          2
cpu0_ITLB RFO       ACCESS:          0  HIT:          0  MISS:          0
cpu0_ITLB PREFETCH  ACCESS:          0  HIT:          0  MISS:          0
cpu0_ITLB WRITEBACK ACCESS:          0  HIT:          0  MISS:          0
cpu0_L1I TOTAL     ACCESS:    4884707  HIT:    4884624  MISS:         83
cpu0_L1I LOAD      ACCESS:    4884707  HIT:    4884624  MISS:         83
cpu0_L1I RFO       ACCESS:          0  HIT:          0  MISS:          0
cpu0_L1I PREFETCH  ACCESS:          0  HIT:          0  MISS:          0
cpu0_L1I WRITEBACK ACCESS:          0  HIT:          0  MISS:          0
cpu0_STLB TOTAL     ACCESS:     606358  HIT:     529406  MISS:      76952
cpu0_STLB LOAD      ACCESS:     603553  HIT:     526601  MISS:      76952
cpu0_STLB RFO       ACCESS:       2805  HIT:       2805  MISS:          0
cpu0_STLB PREFETCH  ACCESS:          0  HIT:          0  MISS:          0
cpu0_STLB WRITEBACK ACCESS:          0  HIT:          0  MISS:          0
cpu0_L1D TOTAL     ACCESS:   24595400  HIT:   22977831  MISS:    1617569
cpu0_L1D LOAD      ACCESS:   22832653  HIT:   21219871  MISS:    1612782
cpu0_L1D RFO       ACCESS:    1686073  HIT:    1686073  MISS:          0
cpu0_L1D PREFETCH  ACCESS:          0  HIT:          0  MISS:          0
cpu0_L1D WRITEBACK ACCESS:          0  HIT:          0  MISS:          0
cpu0_L2C TOTAL     ACCESS:    1809644  HIT:    1582628  MISS:     227016
cpu0_L2C LOAD      ACCESS:    1612865  HIT:    1385924  MISS:     226941
cpu0_L2C RFO       ACCESS:          0  HIT:          0  MISS:          0
cpu0_L2C PREFETCH  ACCESS:          0  HIT:          0  MISS:          0
cpu0_L2C WRITEBACK ACCESS:     191992  HIT:     191976  MISS:         16
LLC TOTAL     ACCESS:     228315  HIT:       8118  MISS:     220197
LLC LOAD      ACCESS:     226938  HIT:       7221  MISS:     219717
LLC RFO       ACCESS:          0  HIT:          0  MISS:          0
LLC PREFETCH  ACCESS:          0  HIT:          0  MISS:          0
LLC WRITEBACK ACCESS:       1318  HIT:        864  MISS:        454
Heartbeat CPU 0 instructions: 102000004 cycles: 65017518 heartbeat IPC: 0.988186 cumulative IPC: 1.21612 (Simulation time: 2 hr 8 min 1 sec) 

Region of Interest Statistics
cpu0_DTLB TOTAL     ACCESS:   20824211  HIT:   20189073  MISS:     635138
cpu0_DTLB LOAD      ACCESS:   19110539  HIT:   18478577  MISS:     631962
cpu0_DTLB RFO       ACCESS:    1713672  HIT:    1710496  MISS:       3176
cpu0_DTLB PREFETCH  ACCESS:          0  HIT:          0  MISS:          0
cpu0_DTLB WRITEBACK ACCESS:          0  HIT:          0  MISS:          0
cpu0_ITLB TOTAL     ACCESS:     968522  HIT:     968520  MISS:          2
cpu0_ITLB LOAD      ACCESS:     968522  HIT:     968520  MISS:          2
cpu0_ITLB RFO       ACCESS:          0  HIT:          0  MISS:          0
cpu0_ITLB PREFETCH  ACCESS:          0  HIT:          0  MISS:          0
cpu0_ITLB WRITEBACK ACCESS:          0  HIT:          0  MISS:          0
cpu0_L1I TOTAL     ACCESS:    5081681  HIT:    5081598  MISS:         83
cpu0_L1I LOAD      ACCESS:    5081681  HIT:    5081598  MISS:         83
cpu0_L1I RFO       ACCESS:          0  HIT:          0  MISS:          0
cpu0_L1I PREFETCH  ACCESS:          0  HIT:          0  MISS:          0
cpu0_L1I WRITEBACK ACCESS:          0  HIT:          0  MISS:          0
cpu0_STLB TOTAL     ACCESS:     635140  HIT:     551913  MISS:      83227
cpu0_STLB LOAD      ACCESS:     631964  HIT:     548737  MISS:      83227
cpu0_STLB RFO       ACCESS:       3176  HIT:       3176  MISS:          0
cpu0_STLB PREFETCH  ACCESS:          0  HIT:          0  MISS:          0
cpu0_STLB WRITEBACK ACCESS:          0  HIT:          0  MISS:          0
cpu0_L1D TOTAL     ACCESS:   25542992  HIT:   23839025  MISS:    1703967
cpu0_L1D LOAD      ACCESS:   23708209  HIT:   22009510  MISS:    1698699
cpu0_L1D RFO       ACCESS:    1751837  HIT:    1751837  MISS:          0
cpu0_L1D PREFETCH  ACCESS:          0  HIT:          0  MISS:          0
cpu0_L1D WRITEBACK ACCESS:          0  HIT:          0  MISS:          0
cpu0_L2C TOTAL     ACCESS:    1916197  HIT:    1662822  MISS:     253375
cpu0_L2C LOAD      ACCESS:    1698782  HIT:    1445489  MISS:     253293
cpu0_L2C RFO       ACCESS:          0  HIT:          0  MISS:          0
cpu0_L2C PREFETCH  ACCESS:          0  HIT:          0  MISS:          0
cpu0_L2C WRITEBACK ACCESS:     212147  HIT:     212131  MISS:         16
LLC TOTAL     ACCESS:     254738  HIT:       8493  MISS:     246245
LLC LOAD      ACCESS:     253290  HIT:       7548  MISS:     245742
LLC RFO       ACCESS:          0  HIT:          0  MISS:          0
LLC PREFETCH  ACCESS:          0  HIT:          0  MISS:          0
LLC WRITEBACK ACCESS:       1382  HIT:        908  MISS:        474
Heartbeat CPU 0 instructions: 104000002 cycles: 67046667 heartbeat IPC: 0.985634 cumulative IPC: 1.20568 (Simulation time: 2 hr 11 min 18 sec) 

Region of Interest Statistics
cpu0_DTLB TOTAL     ACCESS:   21627947  HIT:   20963954  MISS:     663993
cpu0_DTLB LOAD      ACCESS:   19848842  HIT:   19188375  MISS:     660467
cpu0_DTLB RFO       ACCESS:    1779105  HIT:    1775579  MISS:       3526
cpu0_DTLB PREFETCH  ACCESS:          0  HIT:          0  MISS:          0
cpu0_DTLB WRITEBACK ACCESS:          0  HIT:          0  MISS:          0
cpu0_ITLB TOTAL     ACCESS:    1006987  HIT:    1006985  MISS:          2
cpu0_ITLB LOAD      ACCESS:    1006987  HIT:    1006985  MISS:          2
cpu0_ITLB RFO       ACCESS:          0  HIT:          0  MISS:          0
cpu0_ITLB PREFETCH  ACCESS:          0  HIT:          0  MISS:          0
cpu0_ITLB WRITEBACK ACCESS:          0  HIT:          0  MISS:          0
cpu0_L1I TOTAL     ACCESS:    5278641  HIT:    5278558  MISS:         83
cpu0_L1I LOAD      ACCESS:    5278641  HIT:    5278558  MISS:         83
cpu0_L1I RFO       ACCESS:          0  HIT:          0  MISS:          0
cpu0_L1I PREFETCH  ACCESS:          0  HIT:          0  MISS:          0
cpu0_L1I WRITEBACK ACCESS:          0  HIT:          0  MISS:          0
cpu0_STLB TOTAL     ACCESS:     663995  HIT:     574456  MISS:      89539
cpu0_STLB LOAD      ACCESS:     660469  HIT:     570930  MISS:      89539
cpu0_STLB RFO       ACCESS:       3526  HIT:       3526  MISS:          0
cpu0_STLB PREFETCH  ACCESS:          0  HIT:          0  MISS:          0
cpu0_STLB WRITEBACK ACCESS:          0  HIT:          0  MISS:          0
cpu0_L1D TOTAL     ACCESS:   26490457  HIT:   24700090  MISS:    1790367
cpu0_L1D LOAD      ACCESS:   24583599  HIT:   22798975  MISS:    1784624
cpu0_L1D RFO       ACCESS:    1817600  HIT:    1817600  MISS:          0
cpu0_L1D PREFETCH  ACCESS:          0  HIT:          0  MISS:          0
cpu0_L1D WRITEBACK ACCESS:          0  HIT:          0  MISS:          0
cpu0_L2C TOTAL     ACCESS:    2022757  HIT:    1743073  MISS:     279684
cpu0_L2C LOAD      ACCESS:    1784707  HIT:    1505109  MISS:     279598
cpu0_L2C RFO       ACCESS:          0  HIT:          0  MISS:          0
cpu0_L2C PREFETCH  ACCESS:          0  HIT:          0  MISS:          0
cpu0_L2C WRITEBACK ACCESS:     232307  HIT:     232291  MISS:         16
LLC TOTAL     ACCESS:     281098  HIT:       8758  MISS:     272340
LLC LOAD      ACCESS:     279595  HIT:       7793  MISS:     271802
LLC RFO       ACCESS:          0  HIT:          0  MISS:          0
LLC PREFETCH  ACCESS:          0  HIT:          0  MISS:          0
LLC WRITEBACK ACCESS:       1433  HIT:        925  MISS:        508
Heartbeat CPU 0 instructions: 106000004 cycles: 69171646 heartbeat IPC: 0.941187 cumulative IPC: 1.1937 (Simulation time: 2 hr 14 min 38 sec) 

Region of Interest Statistics
cpu0_DTLB TOTAL     ACCESS:   22422541  HIT:   21728539  MISS:     694002
cpu0_DTLB LOAD      ACCESS:   20579984  HIT:   19890133  MISS:     689851
cpu0_DTLB RFO       ACCESS:    1842557  HIT:    1838406  MISS:       4151
cpu0_DTLB PREFETCH  ACCESS:          0  HIT:          0  MISS:          0
cpu0_DTLB WRITEBACK ACCESS:          0  HIT:          0  MISS:          0
cpu0_ITLB TOTAL     ACCESS:    1043747  HIT:    1043745  MISS:          2
cpu0_ITLB LOAD      ACCESS:    1043747  HIT:    1043745  MISS:          2
cpu0_ITLB RFO       ACCESS:          0  HIT:          0  MISS:          0
cpu0_ITLB PREFETCH  ACCESS:          0  HIT:          0  MISS:          0
cpu0_ITLB WRITEBACK ACCESS:          0  HIT:          0  MISS:          0
cpu0_L1I TOTAL     ACCESS:    5474364  HIT:    5474281  MISS:         83
cpu0_L1I LOAD      ACCESS:    5474364  HIT:    5474281  MISS:         83
cpu0_L1I RFO       ACCESS:          0  HIT:          0  MISS:          0
cpu0_L1I PREFETCH  ACCESS:          0  HIT:          0  MISS:          0
cpu0_L1I WRITEBACK ACCESS:          0  HIT:          0  MISS:          0
cpu0_STLB TOTAL     ACCESS:     694004  HIT:     597855  MISS:      96149
cpu0_STLB LOAD      ACCESS:     689853  HIT:     593704  MISS:      96149
cpu0_STLB RFO       ACCESS:       4151  HIT:       4151  MISS:          0
cpu0_STLB PREFETCH  ACCESS:          0  HIT:          0  MISS:          0
cpu0_STLB WRITEBACK ACCESS:          0  HIT:          0  MISS:          0
cpu0_L1D TOTAL     ACCESS:   27443373  HIT:   25566915  MISS:    1876458
cpu0_L1D LOAD      ACCESS:   25464363  HIT:   23594119  MISS:    1870244
cpu0_L1D RFO       ACCESS:    1883146  HIT:    1883145  MISS:          1
cpu0_L1D PREFETCH  ACCESS:          0  HIT:          0  MISS:          0
cpu0_L1D WRITEBACK ACCESS:          0  HIT:          0  MISS:          0
cpu0_L2C TOTAL     ACCESS:    2128924  HIT:    1821817  MISS:     307107
cpu0_L2C LOAD      ACCESS:    1870327  HIT:    1563324  MISS:     307003
cpu0_L2C RFO       ACCESS:          1  HIT:          0  MISS:          1
cpu0_L2C PREFETCH  ACCESS:          0  HIT:          0  MISS:          0
cpu0_L2C WRITEBACK ACCESS:     252383  HIT:     252367  MISS:         16
[...]
LLC TOTAL     ACCESS:   23860881  HIT:    8813249  MISS:   15047632
LLC LOAD      ACCESS:   16788665  HIT:    1805042  MISS:   14983623
LLC RFO       ACCESS:     123664  HIT:     114096  MISS:       9568
LLC PREFETCH  ACCESS:          0  HIT:          0  MISS:          0
LLC WRITEBACK ACCESS:    6947327  HIT:    6893464  MISS:      53863
Finished CPU 0 instructions: 1500000000 cycles: 2320659150 cumulative IPC: 0.646368 (Simulation time: 23 hr 54 min 50 sec) 

ChampSim completed all CPUs

Region of Interest Statistics

CPU 0 cumulative IPC: 0.646368 instructions: 1500000000 cycles: 2320659150
cpu0_DTLB TOTAL     ACCESS:  577360020  HIT:  569743044  MISS:    7616976
cpu0_DTLB LOAD      ACCESS:  516780322  HIT:  510176032  MISS:    6604290
cpu0_DTLB RFO       ACCESS:   60579698  HIT:   59567012  MISS:    1012686
cpu0_DTLB PREFETCH  ACCESS:          0  HIT:          0  MISS:          0
cpu0_DTLB WRITEBACK ACCESS:          0  HIT:          0  MISS:          0
cpu0_DTLB TRANSLATION ACCESS:          0  HIT:          0  MISS:          0
cpu0_DTLB PREFETCH  REQUESTED:          0  ISSUED:          0  USEFUL:          0  USELESS:          0
cpu0_DTLB AVERAGE MISS LATENCY: 16.0507 cycles
cpu0_ITLB TOTAL     ACCESS:   24039771  HIT:   24039752  MISS:         19
cpu0_ITLB LOAD      ACCESS:   24039771  HIT:   24039752  MISS:         19
cpu0_ITLB RFO       ACCESS:          0  HIT:          0  MISS:          0
cpu0_ITLB PREFETCH  ACCESS:          0  HIT:          0  MISS:          0
cpu0_ITLB WRITEBACK ACCESS:          0  HIT:          0  MISS:          0
cpu0_ITLB TRANSLATION ACCESS:          0  HIT:          0  MISS:          0
cpu0_ITLB PREFETCH  REQUESTED:          0  ISSUED:          0  USEFUL:          0  USELESS:          0
cpu0_ITLB AVERAGE MISS LATENCY: 259.263 cycles
cpu0_L1I TOTAL     ACCESS:  112528685  HIT:  112528011  MISS:        674
cpu0_L1I LOAD      ACCESS:  112528685  HIT:  112528011  MISS:        674
cpu0_L1I RFO       ACCESS:          0  HIT:          0  MISS:          0
cpu0_L1I PREFETCH  ACCESS:          0  HIT:          0  MISS:          0
cpu0_L1I WRITEBACK ACCESS:          0  HIT:          0  MISS:          0
cpu0_L1I TRANSLATION ACCESS:          0  HIT:          0  MISS:          0
cpu0_L1I PREFETCH  REQUESTED:          0  ISSUED:          0  USEFUL:          0  USELESS:          0
cpu0_L1I AVERAGE MISS LATENCY: 339.653 cycles
cpu0_STLB TOTAL     ACCESS:    7616995  HIT:    6646509  MISS:     970486
cpu0_STLB LOAD      ACCESS:    6604309  HIT:    5634514  MISS:     969795
cpu0_STLB RFO       ACCESS:    1012686  HIT:    1011995  MISS:        691
cpu0_STLB PREFETCH  ACCESS:          0  HIT:          0  MISS:          0
cpu0_STLB WRITEBACK ACCESS:          0  HIT:          0  MISS:          0
cpu0_STLB TRANSLATION ACCESS:          0  HIT:          0  MISS:          0
cpu0_STLB PREFETCH  REQUESTED:          0  ISSUED:          0  USEFUL:          0  USELESS:          0
cpu0_STLB AVERAGE MISS LATENCY: 55.2852 cycles
cpu0_L1D TOTAL     ACCESS:  645555902  HIT:  619615981  MISS:   25939921
cpu0_L1D LOAD      ACCESS:  552775918  HIT:  527051172  MISS:   25724746
cpu0_L1D RFO       ACCESS:   91851278  HIT:   91700141  MISS:     151137
cpu0_L1D PREFETCH  ACCESS:          0  HIT:          0  MISS:          0
cpu0_L1D WRITEBACK ACCESS:          0  HIT:          0  MISS:          0
cpu0_L1D TRANSLATION ACCESS:     928706  HIT:     864668  MISS:      64038
cpu0_L1D PREFETCH  REQUESTED:          0  ISSUED:          0  USEFUL:          0  USELESS:          0
cpu0_L1D AVERAGE MISS LATENCY: 269.185 cycles
cpu0_L2C TOTAL     ACCESS:   34241045  HIT:   17327093  MISS:   16913952
cpu0_L2C LOAD      ACCESS:   25725420  HIT:    8936748  MISS:   16788672
cpu0_L2C RFO       ACCESS:     151137  HIT:      27473  MISS:     123664
cpu0_L2C PREFETCH  ACCESS:          0  HIT:          0  MISS:          0
cpu0_L2C WRITEBACK ACCESS:    8300450  HIT:    8300059  MISS:        391
cpu0_L2C TRANSLATION ACCESS:      64038  HIT:      62813  MISS:       1225
cpu0_L2C PREFETCH  REQUESTED:          0  ISSUED:          0  USEFUL:          0  USELESS:          0
cpu0_L2C AVERAGE MISS LATENCY: 395.939 cycles
LLC TOTAL     ACCESS:   23860881  HIT:    8813249  MISS:   15047632
LLC LOAD      ACCESS:   16788665  HIT:    1805042  MISS:   14983623
LLC RFO       ACCESS:     123664  HIT:     114096  MISS:       9568
LLC PREFETCH  ACCESS:          0  HIT:          0  MISS:          0
LLC WRITEBACK ACCESS:    6947327  HIT:    6893464  MISS:      53863
LLC TRANSLATION ACCESS:       1225  HIT:        647  MISS:        578
LLC PREFETCH  REQUESTED:          0  ISSUED:          0  USEFUL:          0  USELESS:          0
LLC AVERAGE MISS LATENCY: 421.441 cycles
~~~~~~~~~~Reuse Distance Profiler output~~~~~~~~~~
0	27162144	3188064
1	10813600	7077072
2	9799312	8150112
3	15431712	13316112
4	14334592	12077488
5	19436080	15399136
6	23988720	18929488
7	25792128	20739216
8	22221136	18070176
9	20966976	17972336
10	19401568	17929568
11	15965024	14839472
12	15008912	14152112
13	14947840	13954016
14	14898960	14371632
15	12213312	11748560
16	10213856	9739088
17	8498160	7996336
18	8784496	8024176
19	8780512	8217968
20	7624160	7037008
21	6779568	6272400
22	6124544	5628512
23	7266576	6564992
24	6286672	5649520
25	5063376	4569376
26	4991504	4573424
27	4932496	4556224
28	4551504	4161936
29	4420384	4089584
30	4214512	3861568
31	3999920	3665776
32	3828432	3475488
33	3959968	3498208
34	3759376	3290096
35	3518992	3071520
36	3351184	2875520
37	3203664	2769280
38	2865344	2473696
39	2841936	2337776
40	2898560	2405216
41	2530864	2107808
42	2543280	2088976
43	2313088	1841952
44	2185856	1703760
45	2215040	1701536
46	2121312	1715536
47	2084352	1688608
48	2127296	1696176
49	2191504	1785008
50	2080128	1676448
51	2147696	1796992
52	2317600	1970336
53	2391072	2034544
54	2349632	2064768
55	2432336	2141728
56	2432192	2188400
57	2389936	2166080
58	2346960	2114816
59	2450800	2248528
60	2198816	2008848
61	2303984	2137952
62	2159824	2013824
63	2155648	2013488
64	4045280	3753296
66	4012864	3758896
68	3779328	3474928
70	3901760	3623152
72	4087712	3784368
74	4512272	4159568
76	4501856	4119184
78	4324080	4020464
80	4516464	4253920
82	4721072	4445712
84	4630144	4343584
86	4476272	4154224
88	4393568	4076000
90	4406000	4166160
92	4433952	4165904
94	4596736	4293984
96	4872720	4420752
98	5392112	4884992
100	5968032	5335104
102	6294400	5509536
104	6498688	5589184
106	6068656	5222928
108	5625088	4850496
110	5676768	4876768
112	4927216	4298576
114	4207072	3639872
116	3151120	2716272
118	2570016	2268576
120	2164944	1919952
122	1773568	1552288
124	1364384	1190992
126	1111632	966576
128	2085056	1822144
132	1724992	1542400
136	1443296	1316960
140	1327200	1243264
144	1243056	1176400
148	1228496	1194496
152	1270320	1246016
156	1284688	1246240
160	1176080	1150368
164	975152	946768
168	894304	877728
172	865520	846656
176	839920	808064
180	745776	726160
184	727648	682320
188	685968	659648
192	647312	625552
196	587520	580112
200	568096	567152
204	533888	533808
208	604992	604912
212	554768	554720
216	496496	496464
220	375520	375424
224	314784	314752
228	267664	267664
232	210432	210416
236	182928	182880
240	161968	161888
244	120544	120528
248	92000	92000
252	63232	63232
256	91184	91184
264	62384	62384
272	42576	42576
280	23040	23040
288	14064	14064
296	5888	5888
304	4304	4304
312	2272	2272
320	592	592
328	192	192
336	112	96
344	16	16
352	16	16
360	32	32
368	0	0
376	32	32
384	64	64
392	32	32
400	48	48
408	272	272
416	1664	1664
424	1280	1280
432	1712	1712
440	6800	6800
448	6960	6960
456	10736	10736
464	19536	19536
472	22784	22784
480	26080	26080
488	13232	13232
496	10144	10144
504	8368	8368
512	13696	13696
528	25712	25712
544	65168	65168
560	69584	69584
576	50048	50048
592	39392	39392
608	34672	34672
624	14448	14448
640	5808	5808
656	18496	18496
672	27328	27328
688	35120	35120
704	13616	13616
720	11056	11056
736	5728	5728
752	7184	7184
768	10784	10784
784	20992	20992
800	45600	45600
816	25456	25456
832	27840	27840
848	64528	64528
864	21008	21008
880	29120	29120
896	24288	24288
912	6464	6464
928	15648	15648
944	17952	17952
960	11088	11088
976	10944	10944
992	9680	9680
1008	13984	13984
1024	25152	25152
1056	109632	109632
1088	77536	77536
1120	45648	45648
1152	24928	24928
1184	25248	25248
1216	35328	35328
1248	80912	80912
1280	147328	147328
1312	104672	104672
1344	107072	107072
1376	433632	433632
1408	339600	339488
1440	10160	10064
1472	400	400
1504	256	256
1536	16	16
1568	32	32
1600	112	112
1632	608	608
1664	2864	2864
1696	10352	10352
1728	43280	43280
1760	84208	84208
1792	133808	133808
1824	213088	213088
1856	294368	294368
1888	375088	375088
1920	353792	353792
1952	275856	275856
1984	203856	203856
2016	188624	188624
2048	329936	329936
2112	72272	72272
2176	12336	12336
2240	16	16
2304	0	0
2368	0	0
2432	0	0
2496	0	0
2560	0	0
2624	0	0
2688	0	0
2752	0	0
2816	0	0
2880	0	0
2944	0	0
3008	0	0
3072	0	0
3136	0	0
3200	0	0
3264	0	0
3328	0	0
3392	0	0
3456	0	0
3520	0	0
3584	0	0
3648	0	0
3712	0	0
3776	0	0
3840	0	0
3904	0	0
3968	0	0
4032	0	0
4096	0	0
4224	96	96
4352	480	480
4480	5744	5744
4608	3056	3056
4736	1952	1952
4864	0	0
4992	0	0
5120	32	16
5248	16	0
5376	0	0
5504	96	96
5632	32	0
5760	16	0
5888	0	0
6016	0	0
6144	0	0
6272	0	0
6400	0	0
6528	16	0
6656	2496	2496
6784	4176	4176
6912	3888	3872
7040	4208	4208
7168	3360	3360
7296	4336	4320
7424	7968	7952
7552	3568	3568
7680	1232	1232
7808	176	144
7936	1216	1200
8064	8192	8176
8192	36368	36368
8448	11376	11376
8704	48	0
8960	16	16
9216	48	32
9472	32	0
9728	0	0
9984	48	16
10240	16	16
10496	16	0
10752	0	0
11008	16	16
11264	16	0
11520	32	32
11776	0	0
12032	48	16
12288	48	32
12544	16	0
12800	48	0
13056	0	0
13312	32	0
13568	32	16
13824	16	16
14080	48	32
14336	0	0
14592	32	0
14848	0	0
15104	16	0
15360	32	16
15616	32	0
15872	0	0
16128	48	0
16384	16	16
16896	80	48
17408	16	0
17920	32	0
18432	80	32
18944	48	0
19456	32	16
19968	16	0
20480	16	0
20992	48	16
21504	3952	3904
22016	521328	521296
22528	1049248	1049232
23040	173824	173792
23552	46256	46240
24064	320	288
24576	80	16
25088	112	16
25600	16	0
26112	48	0
26624	16	0
27136	32	0
27648	80	0
28160	334624	334624
28672	376448	376416
29184	368	336
29696	327824	327792
30208	685808	685552
30720	921168	920688
31232	749936	749504
31744	2087824	2087456
32256	913456	912832
32768	5664	4864
33792	880	64
34816	976	48
35840	1088	112
36864	1024	16
37888	1104	32
38912	928	48
39936	928	80
40960	1170960	1170064
41984	1651248	1650336
43008	768	80
44032	928	48
45056	1024	112
46080	1024	96
47104	864	48
48128	1104	48
49152	928	48
50176	1104	176
51200	1104	64
52224	1328	80
53248	864	48
54272	1024	48
55296	816	48
56320	1056	32
57344	1008	32
58368	880	80
59392	1040	16
60416	1056	64
61440	912	48
62464	896	48
63488	1136	160
64512	1248	144
65536	1984	320
67584	1904	192
69632	2080	96
71680	2048	112
73728	1968	128
75776	1568	272
77824	880	208
79872	816	176
81920	832	160
83968	656	64
86016	800	176
88064	848	160
90112	928	160
92160	1760	1056
94208	1280	688
96256	608	160
98304	944	160
100352	784	224
102400	880	304
104448	816	240
106496	848	128
108544	688	352
110592	736	384
112640	848	480
114688	576	464
116736	272	112
118784	400	224
120832	560	368
122880	512	336
124928	336	96
126976	528	64
129024	560	256
131072	1632	512
135168	2320	1024
139264	3024	1568
143360	1584	848
147456	1616	368
151552	1392	464
155648	1536	736
159744	1776	432
163840	2080	848
167936	1968	992
172032	1504	496
176128	1344	512
180224	1824	672
184320	2384	1408
188416	1968	1216
192512	1312	496
196608	1520	336
200704	896	384
204800	1280	976
208896	992	336
212992	1712	976
217088	1232	640
221184	1616	784
225280	768	368
229376	640	256
233472	1808	1392
237568	1248	752
241664	1088	496
245760	1328	752
249856	1984	1280
253952	67904	67344
258048	69392	68752
262144	2416	1568
270336	41296	40320
278528	128752	127536
286720	2160	1056
294912	2832	1312
303104	2400	1200
311296	28736	27328
319488	244224	243008
327680	310080	308768
335872	2400	1424
344064	3632	1936
352256	2144	976
360448	2176	912
368640	2320	1152
376832	2512	1120
385024	2848	1040
393216	1856	880
401408	4592	3408
409600	17376	16704
417792	2354800	2353584
425984	11552	10976
434176	2256	1104
442368	2624	1392
450560	2592	1344
458752	2160	1488
466944	1888	1040
475136	2272	832
483328	1904	1040
491520	1776	800
499712	2752	1296
507904	2448	1360
516096	2128	1072
524288	4400	2368
540672	4048	2288
557056	5088	1904
573440	4288	1824
589824	3296	1552
606208	4304	2336
622592	3856	1568
638976	3872	1824
655360	3632	2032
671744	3920	2544
688128	4624	2800
704512	4512	2656
720896	5280	3360
737280	5264	2624
753664	4048	1920
770048	5424	2352
786432	5296	2448
802816	4992	2064
819200	4752	2224
835584	5056	2288
851968	3952	2016
868352	4144	2192
884736	3072	1376
901120	1728	560
917504	1184	224
933888	1168	176
950272	704	48
966656	496	96
983040	208	16
999424	272	48
1015808	16	16
1032192	16	16
1048576	16	16
1081344	48	48
1114112	48	48
1146880	0	0
1179648	32	32
1212416	48	48
1245184	0	0
1277952	0	0
1310720	16	16
1343488	16	16
1376256	0	0
1409024	0	0
1441792	0	0
1474560	16	16
1507328	80	80
1540096	0	0
1572864	16	16
1605632	112	112
1638400	176	176
1671168	64	64
1703936	144	144
1736704	160	160
1769472	64	64
1802240	112	112
1835008	96	96
1867776	80	80
1900544	64	64
1933312	192	192
1966080	272	272
1998848	128	128
2031616	160	160
2064384	144	144
2097152	208	208
2162688	320	320
2228224	224	224
2293760	256	256
2359296	256	256
2424832	512	512
2490368	496	496
2555904	368	368
2621440	416	416
2686976	736	736
2752512	176	176
2818048	240	240
2883584	336	336
2949120	272	272
3014656	352	352
3080192	672	672
3145728	400	400
3211264	256	256
3276800	304	304
3342336	384	384
3407872	208	208
3473408	160	160
3538944	256	256
3604480	368	368
3670016	352	352
3735552	368	368
3801088	160	160
3866624	576	576
3932160	512	512
3997696	208	208
4063232	208	208
4128768	192	192
4194304	944	944
4325376	912	912
4456448	624	624
4587520	1904	1904
4718592	3232	3232
4849664	250736	250736
4980736	2576	2576
5111808	2192	2192
5242880	7312	7312
5373952	2096	2096
5505024	5104	5104
5636096	544	544
5767168	800	800
5898240	912	912
6029312	528	528
6160384	560	560
6291456	704	704
6422528	608	608
6553600	752	752
6684672	640	640
6815744	2272	2272
6946816	4480	4480
7077888	608	608
7208960	3248	3248
7340032	2688	2688
7471104	1568	1568
7602176	560	560
7733248	576	576
7864320	592	592
7995392	336	336
8126464	448	448
8257536	416	416
8388608	1200	1200
8650752	1104	1104
8912896	1360	1360
9175040	1072	1072
9437184	736	736
9699328	944	944
9961472	1184	1184
10223616	1136	1136
10485760	1280	1280
10747904	1200	1200
11010048	1024	1024
11272192	1424	1424
11534336	1328	1328
11796480	976	976
12058624	992	992
12320768	992	992
12582912	1056	1056
12845056	1072	1072
13107200	1040	1040
13369344	1024	1024
13631488	960	960
13893632	1088	1088
14155776	1168	1168
14417920	912	912
14680064	848	848
14942208	1168	1168
15204352	2032	2032
15466496	1312	1312
15728640	1104	1104
15990784	976	976
16252928	1424	1424
16515072	1056	1056
16777216	2688	2688
17301504	2464	2464
17825792	1952	1952
18350080	1936	1936
18874368	1792	1792
19398656	2192	2192
19922944	2336	2336
20447232	2736	2736
20971520	2160	2160
21495808	1520	1520
22020096	1472	1472
22544384	2096	2096
23068672	1392	1392
23592960	1984	1984
24117248	1648	1648
24641536	1632	1632
25165824	1408	1408
25690112	1472	1472
26214400	2176	2176
26738688	1504	1504
27262976	1552	1552
27787264	1872	1872
28311552	1872	1872
28835840	1616	1616
29360128	1616	1616
29884416	1680	1680
30408704	2064	2064
30932992	1376	1376
31457280	1888	1888
31981568	2016	2016
32505856	2000	2000
33030144	1472	1472
33554432	3424	3424
34603008	3584	3584
35651584	4016	4016
36700160	193312	193312
37748736	798160	798160
38797312	5344	5344
39845888	5712	5712
40894464	5920	5920
41943040	6256	6256
42991616	6496	6496
44040192	6944	6944
45088768	6528	6528
46137344	6592	6592
47185920	6832	6832
48234496	7136	7136
49283072	7408	7408
50331648	6864	6864
51380224	6576	6576
52428800	6832	6832
53477376	6944	6944
54525952	6336	6336
55574528	6368	6368
56623104	7008	7008
57671680	7056	7056
58720256	6496	6496
59768832	7632	7616
60817408	6320	6320
61865984	7088	7088
62914560	6896	6896
63963136	6752	6752
65011712	6704	6704
66060288	7952	7952
67108864	16720	16720
69206016	16368	16368
71303168	16144	16144
73400320	34288	34288
75497472	35680	35680
77594624	295680	295680
79691776	32896	32896
81788928	35552	35552
83886080	36640	36640
85983232	35632	35632
88080384	37136	37120
90177536	36976	36976
92274688	13136	13136
94371840	11056	11056
96468992	8960	8960
98566144	9264	9264
100663296	8384	8384
102760448	7552	7552
104857600	7920	7920
106954752	7232	7232
109051904	6576	6576
111149056	5264	5264
113246208	4064	4064
115343360	3216	3216
117440512	1376	1376
119537664	528	528
121634816	368	368
123731968	192	192
125829120	272	272
127926272	304	304
130023424	464	464
132120576	1776	1776
134217728	6128	6128
138412032	6208	6208
142606336	4944	4944
146800640	5968	5968
150994944	41088	41088
155189248	55120	55120
159383552	50000	50000
163577856	47616	47616
167772160	45952	45952
171966464	672	672
176160768	128	128
180355072	64	64
184549376	400	400
188743680	2560	2560
192937984	2544	2544
197132288	4080	4080
201326592	2560	2560
205520896	800	800
209715200	5008	5008
213909504	7072	7072
218103808	7728	7728
222298112	5200	5200
226492416	3648	3648
230686720	3824	3824
234881024	13440	13440
239075328	3872	3872
243269632	3888	3888
247463936	2544	2544
251658240	1504	1504
255852544	1200	1200
260046848	1248	1248
264241152	816	816
268435456	1056	1056
276824064	2544	2544
285212672	6544	6544
293601280	7440	7440
301989888	7296	7296
310378496	5952	5952
318767104	3872	3872
327155712	3008	3008
335544320	1616	1616
343932928	2880	2880
352321536	8160	8160
360710144	0	0
369098752	0	0
377487360	0	0
385875968	0	0
394264576	0	0
402653184	0	0
411041792	6688	6688
419430400	16352	16352
427819008	25232	25232
436207616	25552	25552
444596224	16128	16128
452984832	17472	17472
461373440	16736	16736
469762048	15904	15904
478150656	17376	17376
486539264	16576	16576
494927872	8576	8576
503316480	5088	5088
511705088	0	0
520093696	0	0
528482304	0	0
536870912	0	0
553648128	0	0
570425344	0	0
587202560	0	0
603979776	0	0
620756992	0	0
637534208	8896	0
654311424	0	0
671088640	0	0
687865856	0	0
704643072	0	0
721420288	0	0
738197504	0	0
754974720	0	0
771751936	0	0
788529152	0	0
805306368	0	0
822083584	0	0
838860800	0	0
855638016	0	0
872415232	0	0
889192448	0	0
905969664	0	0
922746880	0	0
939524096	0	0
956301312	0	0
973078528	0	0
989855744	0	0
1006632960	0	0
1023410176	0	0
1040187392	0	0
1056964608	0	0
1073741824	0	0
1107296256	0	0
1140850688	0	0
1174405120	0	0
1207959552	0	0
1241513984	0	0
1275068416	0	0
1308622848	0	0
1342177280	0	0
1375731712	0	0
1409286144	0	0
1442840576	0	0
1476395008	0	0
1509949440	0	0
1543503872	0	0
1577058304	0	0
1610612736	0	0
1644167168	0	0
1677721600	0	0
1711276032	0	0
1744830464	0	0
1778384896	0	0
1811939328	0	0
1845493760	0	0
1879048192	0	0
1912602624	0	0
1946157056	0	0
1979711488	0	0
2013265920	0	0
2046820352	0	0
2080374784	0	0
2113929216	0	0
2147483648	0	0
2214592512	0	0
2281701376	0	0
2348810240	0	0
2415919104	0	0
2483027968	0	0
2550136832	0	0
2617245696	0	0
2684354560	0	0
2751463424	0	0
2818572288	0	0
2885681152	0	0
2952790016	0	0
3019898880	0	0
3087007744	0	0
3154116608	0	0
3221225472	0	0
3288334336	0	0
3355443200	0	0
3422552064	0	0
3489660928	0	0
3556769792	0	0
3623878656	0	0
3690987520	0	0
3758096384	0	0
3825205248	0	0
3892314112	0	0
3959422976	0	0
4026531840	0	0
4093640704	0	0
4160749568	0	0
4227858432	0	0
~~~~~~~~~~Reuse Distance Profiler output end~~~~~~~~~~

Sampler size:732293

DRAM Statistics
 CHANNEL 0
 RQ ROW_BUFFER_HIT:      48079  ROW_BUFFER_MISS:   14945680
 DBUS AVG_CONGESTED_CYCLE:    3.98528
 WQ ROW_BUFFER_HIT:     416868  ROW_BUFFER_MISS:    6371463  FULL:          0


CPU 0 Branch Prediction Accuracy: 98.4286% MPKI: 0.237581 Average ROB Occupancy at Mispredict: 341.871
Branch type MPKI
BRANCH_DIRECT_JUMP: 1.13333e-05
BRANCH_INDIRECT: 1.33333e-06
BRANCH_CONDITIONAL: 0.237466
BRANCH_DIRECT_CALL: 5.46667e-05
BRANCH_INDIRECT_CALL: 0
BRANCH_RETURN: 4.8e-05

