
*** ChampSim Multicore Out-of-Order Simulator ***

Warmup Instructions: 50000000
Simulation Instructions: 1500000000
Number of CPUs: 1
Off-chip DRAM Size: 4 GiB Channels: 1 Width: 64-bit Data Rate: 3200 MT/s

VirtualMemory physical capacity: 8588881920 num_ppages: 2096895
VirtualMemory page size: 4096 log2_page_size: 12

CPU 0 runs /s/traces/champsim_traces/459.GemsFDTD-1211B.champsimtrace.xz
CPU 0 Bimodal branch predictor
Basic BTB sets: 1024 ways: 8 indirect buffer size: 4096 RAS size: 64
Initializing LRU.
Initializing LRU.
Initializing LRU.
Initializing LRU.
Initializing rdLRU.
Initializing LRU.
Heartbeat CPU 0 instructions: 2000002 cycles: 1091269 heartbeat IPC: 1.83273 cumulative IPC: 1.83273 (Simulation time: 0 hr 3 min 3 sec) 
Heartbeat CPU 0 instructions: 4000000 cycles: 2182394 heartbeat IPC: 1.83297 cumulative IPC: 1.83285 (Simulation time: 0 hr 5 min 51 sec) 
Heartbeat CPU 0 instructions: 6000000 cycles: 3273528 heartbeat IPC: 1.83296 cumulative IPC: 1.83288 (Simulation time: 0 hr 8 min 53 sec) 
Heartbeat CPU 0 instructions: 8000000 cycles: 4364666 heartbeat IPC: 1.83295 cumulative IPC: 1.8329 (Simulation time: 0 hr 11 min 48 sec) 
Heartbeat CPU 0 instructions: 10000004 cycles: 5455809 heartbeat IPC: 1.83294 cumulative IPC: 1.83291 (Simulation time: 0 hr 14 min 45 sec) 
Heartbeat CPU 0 instructions: 12000000 cycles: 6546928 heartbeat IPC: 1.83298 cumulative IPC: 1.83292 (Simulation time: 0 hr 17 min 37 sec) 
Heartbeat CPU 0 instructions: 14000001 cycles: 7638064 heartbeat IPC: 1.83295 cumulative IPC: 1.83293 (Simulation time: 0 hr 20 min 31 sec) 
Heartbeat CPU 0 instructions: 16000001 cycles: 8729224 heartbeat IPC: 1.83291 cumulative IPC: 1.83292 (Simulation time: 0 hr 23 min 25 sec) 
Heartbeat CPU 0 instructions: 18000003 cycles: 9820368 heartbeat IPC: 1.83294 cumulative IPC: 1.83293 (Simulation time: 0 hr 26 min 20 sec) 
Heartbeat CPU 0 instructions: 20000000 cycles: 10911480 heartbeat IPC: 1.83299 cumulative IPC: 1.83293 (Simulation time: 0 hr 29 min 15 sec) 
Heartbeat CPU 0 instructions: 22000001 cycles: 12002625 heartbeat IPC: 1.83294 cumulative IPC: 1.83293 (Simulation time: 0 hr 32 min 7 sec) 
Heartbeat CPU 0 instructions: 24000001 cycles: 13093759 heartbeat IPC: 1.83296 cumulative IPC: 1.83293 (Simulation time: 0 hr 34 min 59 sec) 
Heartbeat CPU 0 instructions: 26000000 cycles: 14184895 heartbeat IPC: 1.83295 cumulative IPC: 1.83294 (Simulation time: 0 hr 37 min 54 sec) 
Heartbeat CPU 0 instructions: 28000001 cycles: 15276018 heartbeat IPC: 1.83297 cumulative IPC: 1.83294 (Simulation time: 0 hr 40 min 46 sec) 
Heartbeat CPU 0 instructions: 30000003 cycles: 16367160 heartbeat IPC: 1.83294 cumulative IPC: 1.83294 (Simulation time: 0 hr 43 min 35 sec) 
Heartbeat CPU 0 instructions: 32000001 cycles: 17458290 heartbeat IPC: 1.83296 cumulative IPC: 1.83294 (Simulation time: 0 hr 46 min 27 sec) 
Heartbeat CPU 0 instructions: 34000000 cycles: 18549433 heartbeat IPC: 1.83294 cumulative IPC: 1.83294 (Simulation time: 0 hr 49 min 20 sec) 
Heartbeat CPU 0 instructions: 36000001 cycles: 19640546 heartbeat IPC: 1.83299 cumulative IPC: 1.83294 (Simulation time: 0 hr 52 min 15 sec) 
Heartbeat CPU 0 instructions: 38000000 cycles: 20731695 heartbeat IPC: 1.83293 cumulative IPC: 1.83294 (Simulation time: 0 hr 55 min 7 sec) 
Heartbeat CPU 0 instructions: 40000001 cycles: 21854954 heartbeat IPC: 1.78053 cumulative IPC: 1.83025 (Simulation time: 0 hr 57 min 59 sec) 
Heartbeat CPU 0 instructions: 42000000 cycles: 23081020 heartbeat IPC: 1.63123 cumulative IPC: 1.81968 (Simulation time: 1 hr 1 min 17 sec) 
Heartbeat CPU 0 instructions: 44000001 cycles: 24229256 heartbeat IPC: 1.7418 cumulative IPC: 1.81599 (Simulation time: 1 hr 4 min 17 sec) 
Heartbeat CPU 0 instructions: 46000001 cycles: 25321505 heartbeat IPC: 1.83108 cumulative IPC: 1.81664 (Simulation time: 1 hr 7 min 10 sec) 
Heartbeat CPU 0 instructions: 48000001 cycles: 26413748 heartbeat IPC: 1.83109 cumulative IPC: 1.81724 (Simulation time: 1 hr 10 min 0 sec) 
Heartbeat CPU 0 instructions: 50000002 cycles: 27505991 heartbeat IPC: 1.8311 cumulative IPC: 1.81779 (Simulation time: 1 hr 12 min 52 sec) 

Warmup complete CPU 0 instructions: 50000002 cycles: 27505991 (Simulation time: 1 hr 12 min 52 sec) 

Heartbeat CPU 0 instructions: 52000000 cycles: 30381395 heartbeat IPC: 0.695554 cumulative IPC: 0.695554 (Simulation time: 1 hr 16 min 56 sec) 

Region of Interest Statistics
cpu0_DTLB TOTAL     ACCESS:     911404  HIT:     896139  MISS:      15265
cpu0_DTLB LOAD      ACCESS:     825017  HIT:     811164  MISS:      13853
cpu0_DTLB RFO       ACCESS:      86387  HIT:      84975  MISS:       1412
cpu0_DTLB PREFETCH  ACCESS:          0  HIT:          0  MISS:          0
cpu0_DTLB WRITEBACK ACCESS:          0  HIT:          0  MISS:          0
cpu0_ITLB TOTAL     ACCESS:      37993  HIT:      37993  MISS:          0
cpu0_ITLB LOAD      ACCESS:      37993  HIT:      37993  MISS:          0
cpu0_ITLB RFO       ACCESS:          0  HIT:          0  MISS:          0
cpu0_ITLB PREFETCH  ACCESS:          0  HIT:          0  MISS:          0
cpu0_ITLB WRITEBACK ACCESS:          0  HIT:          0  MISS:          0
cpu0_L1I TOTAL     ACCESS:     223803  HIT:     223803  MISS:          0
cpu0_L1I LOAD      ACCESS:     223803  HIT:     223803  MISS:          0
cpu0_L1I RFO       ACCESS:          0  HIT:          0  MISS:          0
cpu0_L1I PREFETCH  ACCESS:          0  HIT:          0  MISS:          0
cpu0_L1I WRITEBACK ACCESS:          0  HIT:          0  MISS:          0
cpu0_STLB TOTAL     ACCESS:      15265  HIT:      13114  MISS:       2151
cpu0_STLB LOAD      ACCESS:      13853  HIT:      11702  MISS:       2151
cpu0_STLB RFO       ACCESS:       1412  HIT:       1412  MISS:          0
cpu0_STLB PREFETCH  ACCESS:          0  HIT:          0  MISS:          0
cpu0_STLB WRITEBACK ACCESS:          0  HIT:          0  MISS:          0
cpu0_L1D TOTAL     ACCESS:    1069726  HIT:    1051473  MISS:      18253
cpu0_L1D LOAD      ACCESS:     914206  HIT:     895971  MISS:      18235
cpu0_L1D RFO       ACCESS:     153372  HIT:     153372  MISS:          0
cpu0_L1D PREFETCH  ACCESS:          0  HIT:          0  MISS:          0
cpu0_L1D WRITEBACK ACCESS:          0  HIT:          0  MISS:          0
cpu0_L2C TOTAL     ACCESS:      26826  HIT:      12024  MISS:      14802
cpu0_L2C LOAD      ACCESS:      18235  HIT:       3435  MISS:      14800
cpu0_L2C RFO       ACCESS:          0  HIT:          0  MISS:          0
cpu0_L2C PREFETCH  ACCESS:          0  HIT:          0  MISS:          0
cpu0_L2C WRITEBACK ACCESS:       8573  HIT:       8573  MISS:          0
LLC TOTAL     ACCESS:      23313  HIT:       9025  MISS:      14288
LLC LOAD      ACCESS:      14800  HIT:        514  MISS:      14286
LLC RFO       ACCESS:          0  HIT:          0  MISS:          0
LLC PREFETCH  ACCESS:          0  HIT:          0  MISS:          0
LLC WRITEBACK ACCESS:       8511  HIT:       8509  MISS:          2
Heartbeat CPU 0 instructions: 54000004 cycles: 33254532 heartbeat IPC: 0.696105 cumulative IPC: 0.695829 (Simulation time: 1 hr 21 min 3 sec) 

Region of Interest Statistics
cpu0_DTLB TOTAL     ACCESS:    1823737  HIT:    1793922  MISS:      29815
cpu0_DTLB LOAD      ACCESS:    1650947  HIT:    1624091  MISS:      26856
cpu0_DTLB RFO       ACCESS:     172790  HIT:     169831  MISS:       2959
cpu0_DTLB PREFETCH  ACCESS:          0  HIT:          0  MISS:          0
cpu0_DTLB WRITEBACK ACCESS:          0  HIT:          0  MISS:          0
cpu0_ITLB TOTAL     ACCESS:      76009  HIT:      76009  MISS:          0
cpu0_ITLB LOAD      ACCESS:      76009  HIT:      76009  MISS:          0
cpu0_ITLB RFO       ACCESS:          0  HIT:          0  MISS:          0
cpu0_ITLB PREFETCH  ACCESS:          0  HIT:          0  MISS:          0
cpu0_ITLB WRITEBACK ACCESS:          0  HIT:          0  MISS:          0
cpu0_L1I TOTAL     ACCESS:     447682  HIT:     447682  MISS:          0
cpu0_L1I LOAD      ACCESS:     447682  HIT:     447682  MISS:          0
cpu0_L1I RFO       ACCESS:          0  HIT:          0  MISS:          0
cpu0_L1I PREFETCH  ACCESS:          0  HIT:          0  MISS:          0
cpu0_L1I WRITEBACK ACCESS:          0  HIT:          0  MISS:          0
cpu0_STLB TOTAL     ACCESS:      29815  HIT:      25505  MISS:       4310
cpu0_STLB LOAD      ACCESS:      26856  HIT:      22546  MISS:       4310
cpu0_STLB RFO       ACCESS:       2959  HIT:       2959  MISS:          0
cpu0_STLB PREFETCH  ACCESS:          0  HIT:          0  MISS:          0
cpu0_STLB WRITEBACK ACCESS:          0  HIT:          0  MISS:          0
cpu0_L1D TOTAL     ACCESS:    2139841  HIT:    2103320  MISS:      36521
cpu0_L1D LOAD      ACCESS:    1828794  HIT:    1792310  MISS:      36484
cpu0_L1D RFO       ACCESS:     306749  HIT:     306749  MISS:          0
cpu0_L1D PREFETCH  ACCESS:          0  HIT:          0  MISS:          0
cpu0_L1D WRITEBACK ACCESS:          0  HIT:          0  MISS:          0
cpu0_L2C TOTAL     ACCESS:      53693  HIT:      23903  MISS:      29790
cpu0_L2C LOAD      ACCESS:      36484  HIT:       6698  MISS:      29786
cpu0_L2C RFO       ACCESS:          0  HIT:          0  MISS:          0
cpu0_L2C PREFETCH  ACCESS:          0  HIT:          0  MISS:          0
cpu0_L2C WRITEBACK ACCESS:      17172  HIT:      17172  MISS:          0
LLC TOTAL     ACCESS:      46883  HIT:      17920  MISS:      28963
LLC LOAD      ACCESS:      29786  HIT:       1268  MISS:      28518
LLC RFO       ACCESS:          0  HIT:          0  MISS:          0
LLC PREFETCH  ACCESS:          0  HIT:          0  MISS:          0
LLC WRITEBACK ACCESS:      17093  HIT:      16649  MISS:        444
Heartbeat CPU 0 instructions: 56000004 cycles: 36110864 heartbeat IPC: 0.700199 cumulative IPC: 0.69728 (Simulation time: 1 hr 25 min 1 sec) 

Region of Interest Statistics
cpu0_DTLB TOTAL     ACCESS:    2737931  HIT:    2697674  MISS:      40257
cpu0_DTLB LOAD      ACCESS:    2478726  HIT:    2442302  MISS:      36424
cpu0_DTLB RFO       ACCESS:     259205  HIT:     255372  MISS:       3833
cpu0_DTLB PREFETCH  ACCESS:          0  HIT:          0  MISS:          0
cpu0_DTLB WRITEBACK ACCESS:          0  HIT:          0  MISS:          0
cpu0_ITLB TOTAL     ACCESS:     113993  HIT:     113993  MISS:          0
cpu0_ITLB LOAD      ACCESS:     113993  HIT:     113993  MISS:          0
cpu0_ITLB RFO       ACCESS:          0  HIT:          0  MISS:          0
cpu0_ITLB PREFETCH  ACCESS:          0  HIT:          0  MISS:          0
cpu0_ITLB WRITEBACK ACCESS:          0  HIT:          0  MISS:          0
cpu0_L1I TOTAL     ACCESS:     671495  HIT:     671495  MISS:          0
cpu0_L1I LOAD      ACCESS:     671495  HIT:     671495  MISS:          0
cpu0_L1I RFO       ACCESS:          0  HIT:          0  MISS:          0
cpu0_L1I PREFETCH  ACCESS:          0  HIT:          0  MISS:          0
cpu0_L1I WRITEBACK ACCESS:          0  HIT:          0  MISS:          0
cpu0_STLB TOTAL     ACCESS:      40257  HIT:      33791  MISS:       6466
cpu0_STLB LOAD      ACCESS:      36424  HIT:      29958  MISS:       6466
cpu0_STLB RFO       ACCESS:       3833  HIT:       3833  MISS:          0
cpu0_STLB PREFETCH  ACCESS:          0  HIT:          0  MISS:          0
cpu0_STLB WRITEBACK ACCESS:          0  HIT:          0  MISS:          0
cpu0_L1D TOTAL     ACCESS:    3209748  HIT:    3154964  MISS:      54784
cpu0_L1D LOAD      ACCESS:    2743180  HIT:    2688451  MISS:      54729
cpu0_L1D RFO       ACCESS:     460118  HIT:     460118  MISS:          0
cpu0_L1D PREFETCH  ACCESS:          0  HIT:          0  MISS:          0
cpu0_L1D WRITEBACK ACCESS:          0  HIT:          0  MISS:          0
cpu0_L2C TOTAL     ACCESS:      80528  HIT:      35751  MISS:      44777
cpu0_L2C LOAD      ACCESS:      54729  HIT:       9957  MISS:      44772
cpu0_L2C RFO       ACCESS:          0  HIT:          0  MISS:          0
cpu0_L2C PREFETCH  ACCESS:          0  HIT:          0  MISS:          0
cpu0_L2C WRITEBACK ACCESS:      25744  HIT:      25744  MISS:          0
LLC TOTAL     ACCESS:      70487  HIT:      26892  MISS:      43595
LLC LOAD      ACCESS:      44772  HIT:       1957  MISS:      42815
LLC RFO       ACCESS:          0  HIT:          0  MISS:          0
LLC PREFETCH  ACCESS:          0  HIT:          0  MISS:          0
LLC WRITEBACK ACCESS:      25710  HIT:      24931  MISS:        779
Heartbeat CPU 0 instructions: 58000004 cycles: 38968128 heartbeat IPC: 0.69997 cumulative IPC: 0.69795 (Simulation time: 1 hr 29 min 1 sec) 

Region of Interest Statistics
cpu0_DTLB TOTAL     ACCESS:    3651234  HIT:    3598638  MISS:      52596
cpu0_DTLB LOAD      ACCESS:    3305718  HIT:    3257934  MISS:      47784
cpu0_DTLB RFO       ACCESS:     345516  HIT:     340704  MISS:       4812
cpu0_DTLB PREFETCH  ACCESS:          0  HIT:          0  MISS:          0
cpu0_DTLB WRITEBACK ACCESS:          0  HIT:          0  MISS:          0
cpu0_ITLB TOTAL     ACCESS:     151983  HIT:     151983  MISS:          0
cpu0_ITLB LOAD      ACCESS:     151983  HIT:     151983  MISS:          0
cpu0_ITLB RFO       ACCESS:          0  HIT:          0  MISS:          0
cpu0_ITLB PREFETCH  ACCESS:          0  HIT:          0  MISS:          0
cpu0_ITLB WRITEBACK ACCESS:          0  HIT:          0  MISS:          0
cpu0_L1I TOTAL     ACCESS:     895352  HIT:     895352  MISS:          0
cpu0_L1I LOAD      ACCESS:     895352  HIT:     895352  MISS:          0
cpu0_L1I RFO       ACCESS:          0  HIT:          0  MISS:          0
cpu0_L1I PREFETCH  ACCESS:          0  HIT:          0  MISS:          0
cpu0_L1I WRITEBACK ACCESS:          0  HIT:          0  MISS:          0
cpu0_STLB TOTAL     ACCESS:      52596  HIT:      43975  MISS:       8621
cpu0_STLB LOAD      ACCESS:      47784  HIT:      39163  MISS:       8621
cpu0_STLB RFO       ACCESS:       4812  HIT:       4812  MISS:          0
cpu0_STLB PREFETCH  ACCESS:          0  HIT:          0  MISS:          0
cpu0_STLB WRITEBACK ACCESS:          0  HIT:          0  MISS:          0
cpu0_L1D TOTAL     ACCESS:    4279384  HIT:    4206338  MISS:      73046
cpu0_L1D LOAD      ACCESS:    3657295  HIT:    3584325  MISS:      72970
cpu0_L1D RFO       ACCESS:     613488  HIT:     613488  MISS:          0
cpu0_L1D PREFETCH  ACCESS:          0  HIT:          0  MISS:          0
cpu0_L1D WRITEBACK ACCESS:          0  HIT:          0  MISS:          0
cpu0_L2C TOTAL     ACCESS:     107390  HIT:      47785  MISS:      59605
cpu0_L2C LOAD      ACCESS:      72970  HIT:      13372  MISS:      59598
cpu0_L2C RFO       ACCESS:          0  HIT:          0  MISS:          0
cpu0_L2C PREFETCH  ACCESS:          0  HIT:          0  MISS:          0
cpu0_L2C WRITEBACK ACCESS:      34344  HIT:      34344  MISS:          0
LLC TOTAL     ACCESS:      93849  HIT:      35413  MISS:      58436
LLC LOAD      ACCESS:      59598  HIT:       2530  MISS:      57068
LLC RFO       ACCESS:          0  HIT:          0  MISS:          0
LLC PREFETCH  ACCESS:          0  HIT:          0  MISS:          0
LLC WRITEBACK ACCESS:      34244  HIT:      32878  MISS:       1366
Heartbeat CPU 0 instructions: 60000001 cycles: 41819841 heartbeat IPC: 0.701332 cumulative IPC: 0.698624 (Simulation time: 1 hr 33 min 5 sec) 

Region of Interest Statistics
cpu0_DTLB TOTAL     ACCESS:    4563776  HIT:    4497153  MISS:      66623
cpu0_DTLB LOAD      ACCESS:    4131937  HIT:    4071361  MISS:      60576
cpu0_DTLB RFO       ACCESS:     431839  HIT:     425792  MISS:       6047
cpu0_DTLB PREFETCH  ACCESS:          0  HIT:          0  MISS:          0
cpu0_DTLB WRITEBACK ACCESS:          0  HIT:          0  MISS:          0
cpu0_ITLB TOTAL     ACCESS:     189971  HIT:     189971  MISS:          0
cpu0_ITLB LOAD      ACCESS:     189971  HIT:     189971  MISS:          0
cpu0_ITLB RFO       ACCESS:          0  HIT:          0  MISS:          0
cpu0_ITLB PREFETCH  ACCESS:          0  HIT:          0  MISS:          0
cpu0_ITLB WRITEBACK ACCESS:          0  HIT:          0  MISS:          0
cpu0_L1I TOTAL     ACCESS:    1119280  HIT:    1119280  MISS:          0
cpu0_L1I LOAD      ACCESS:    1119280  HIT:    1119280  MISS:          0
cpu0_L1I RFO       ACCESS:          0  HIT:          0  MISS:          0
cpu0_L1I PREFETCH  ACCESS:          0  HIT:          0  MISS:          0
cpu0_L1I WRITEBACK ACCESS:          0  HIT:          0  MISS:          0
cpu0_STLB TOTAL     ACCESS:      66623  HIT:      55845  MISS:      10778
cpu0_STLB LOAD      ACCESS:      60576  HIT:      49798  MISS:      10778
cpu0_STLB RFO       ACCESS:       6047  HIT:       6047  MISS:          0
cpu0_STLB PREFETCH  ACCESS:          0  HIT:          0  MISS:          0
cpu0_STLB WRITEBACK ACCESS:          0  HIT:          0  MISS:          0
cpu0_L1D TOTAL     ACCESS:    5348774  HIT:    5257474  MISS:      91300
cpu0_L1D LOAD      ACCESS:    4571182  HIT:    4479976  MISS:      91206
cpu0_L1D RFO       ACCESS:     766839  HIT:     766839  MISS:          0
cpu0_L1D PREFETCH  ACCESS:          0  HIT:          0  MISS:          0
cpu0_L1D WRITEBACK ACCESS:          0  HIT:          0  MISS:          0
cpu0_L2C TOTAL     ACCESS:     134222  HIT:      59746  MISS:      74476
cpu0_L2C LOAD      ACCESS:      91206  HIT:      16738  MISS:      74468
cpu0_L2C RFO       ACCESS:          0  HIT:          0  MISS:          0
cpu0_L2C PREFETCH  ACCESS:          0  HIT:          0  MISS:          0
cpu0_L2C WRITEBACK ACCESS:      42922  HIT:      42922  MISS:          0
LLC TOTAL     ACCESS:     117286  HIT:      44250  MISS:      73036
LLC LOAD      ACCESS:      74468  HIT:       3141  MISS:      71327
LLC RFO       ACCESS:          0  HIT:          0  MISS:          0
LLC PREFETCH  ACCESS:          0  HIT:          0  MISS:          0
LLC WRITEBACK ACCESS:      42810  HIT:      41103  MISS:       1707
Heartbeat CPU 0 instructions: 62000001 cycles: 44686758 heartbeat IPC: 0.697613 cumulative IPC: 0.698455 (Simulation time: 1 hr 37 min 17 sec) 

Region of Interest Statistics
cpu0_DTLB TOTAL     ACCESS:    5476429  HIT:    5394394  MISS:      82035
cpu0_DTLB LOAD      ACCESS:    4958182  HIT:    4883622  MISS:      74560
cpu0_DTLB RFO       ACCESS:     518247  HIT:     510772  MISS:       7475
cpu0_DTLB PREFETCH  ACCESS:          0  HIT:          0  MISS:          0
cpu0_DTLB WRITEBACK ACCESS:          0  HIT:          0  MISS:          0
cpu0_ITLB TOTAL     ACCESS:     227958  HIT:     227958  MISS:          0
cpu0_ITLB LOAD      ACCESS:     227958  HIT:     227958  MISS:          0
cpu0_ITLB RFO       ACCESS:          0  HIT:          0  MISS:          0
cpu0_ITLB PREFETCH  ACCESS:          0  HIT:          0  MISS:          0
cpu0_ITLB WRITEBACK ACCESS:          0  HIT:          0  MISS:          0
cpu0_L1I TOTAL     ACCESS:    1343037  HIT:    1343037  MISS:          0
cpu0_L1I LOAD      ACCESS:    1343037  HIT:    1343037  MISS:          0
cpu0_L1I RFO       ACCESS:          0  HIT:          0  MISS:          0
cpu0_L1I PREFETCH  ACCESS:          0  HIT:          0  MISS:          0
cpu0_L1I WRITEBACK ACCESS:          0  HIT:          0  MISS:          0
cpu0_STLB TOTAL     ACCESS:      82035  HIT:      69099  MISS:      12936
cpu0_STLB LOAD      ACCESS:      74560  HIT:      61624  MISS:      12936
cpu0_STLB RFO       ACCESS:       7475  HIT:       7475  MISS:          0
cpu0_STLB PREFETCH  ACCESS:          0  HIT:          0  MISS:          0
cpu0_STLB WRITEBACK ACCESS:          0  HIT:          0  MISS:          0
cpu0_L1D TOTAL     ACCESS:    6418362  HIT:    6308787  MISS:     109575
cpu0_L1D LOAD      ACCESS:    5485226  HIT:    5375768  MISS:     109458
cpu0_L1D RFO       ACCESS:     920229  HIT:     920229  MISS:          0
cpu0_L1D PREFETCH  ACCESS:          0  HIT:          0  MISS:          0
cpu0_L1D WRITEBACK ACCESS:          0  HIT:          0  MISS:          0
cpu0_L2C TOTAL     ACCESS:     161065  HIT:      71703  MISS:      89362
cpu0_L2C LOAD      ACCESS:     109458  HIT:      20108  MISS:      89350
cpu0_L2C RFO       ACCESS:          0  HIT:          0  MISS:          0
cpu0_L2C PREFETCH  ACCESS:          0  HIT:          0  MISS:          0
cpu0_L2C WRITEBACK ACCESS:      51490  HIT:      51490  MISS:          0
LLC TOTAL     ACCESS:     140889  HIT:      53391  MISS:      87498
LLC LOAD      ACCESS:      89350  HIT:       3797  MISS:      85553
LLC RFO       ACCESS:          0  HIT:          0  MISS:          0
LLC PREFETCH  ACCESS:          0  HIT:          0  MISS:          0
LLC WRITEBACK ACCESS:      51527  HIT:      49585  MISS:       1942
Heartbeat CPU 0 instructions: 64000001 cycles: 47554322 heartbeat IPC: 0.697456 cumulative IPC: 0.698312 (Simulation time: 1 hr 41 min 29 sec) 

Region of Interest Statistics
cpu0_DTLB TOTAL     ACCESS:    6389317  HIT:    6293153  MISS:      96164
cpu0_DTLB LOAD      ACCESS:    5784635  HIT:    5697157  MISS:      87478
cpu0_DTLB RFO       ACCESS:     604682  HIT:     595996  MISS:       8686
cpu0_DTLB PREFETCH  ACCESS:          0  HIT:          0  MISS:          0
cpu0_DTLB WRITEBACK ACCESS:          0  HIT:          0  MISS:          0
cpu0_ITLB TOTAL     ACCESS:     265947  HIT:     265947  MISS:          0
cpu0_ITLB LOAD      ACCESS:     265947  HIT:     265947  MISS:          0
cpu0_ITLB RFO       ACCESS:          0  HIT:          0  MISS:          0
cpu0_ITLB PREFETCH  ACCESS:          0  HIT:          0  MISS:          0
cpu0_ITLB WRITEBACK ACCESS:          0  HIT:          0  MISS:          0
cpu0_L1I TOTAL     ACCESS:    1566871  HIT:    1566871  MISS:          0
cpu0_L1I LOAD      ACCESS:    1566871  HIT:    1566871  MISS:          0
cpu0_L1I RFO       ACCESS:          0  HIT:          0  MISS:          0
cpu0_L1I PREFETCH  ACCESS:          0  HIT:          0  MISS:          0
cpu0_L1I WRITEBACK ACCESS:          0  HIT:          0  MISS:          0
cpu0_STLB TOTAL     ACCESS:      96164  HIT:      81073  MISS:      15091
cpu0_STLB LOAD      ACCESS:      87478  HIT:      72387  MISS:      15091
cpu0_STLB RFO       ACCESS:       8686  HIT:       8686  MISS:          0
cpu0_STLB PREFETCH  ACCESS:          0  HIT:          0  MISS:          0
cpu0_STLB WRITEBACK ACCESS:          0  HIT:          0  MISS:          0
cpu0_L1D TOTAL     ACCESS:    7488402  HIT:    7360569  MISS:     127833
cpu0_L1D LOAD      ACCESS:    6399752  HIT:    6272052  MISS:     127700
cpu0_L1D RFO       ACCESS:    1073598  HIT:    1073598  MISS:          0
cpu0_L1D PREFETCH  ACCESS:          0  HIT:          0  MISS:          0
cpu0_L1D WRITEBACK ACCESS:          0  HIT:          0  MISS:          0
cpu0_L2C TOTAL     ACCESS:     187922  HIT:      83764  MISS:     104158
cpu0_L2C LOAD      ACCESS:     127700  HIT:      23554  MISS:     104146
cpu0_L2C RFO       ACCESS:          0  HIT:          0  MISS:          0
cpu0_L2C PREFETCH  ACCESS:          0  HIT:          0  MISS:          0
cpu0_L2C WRITEBACK ACCESS:      60089  HIT:      60089  MISS:          0
LLC TOTAL     ACCESS:     164151  HIT:      62397  MISS:     101754
LLC LOAD      ACCESS:     104146  HIT:       4344  MISS:      99802
LLC RFO       ACCESS:          0  HIT:          0  MISS:          0
LLC PREFETCH  ACCESS:          0  HIT:          0  MISS:          0
LLC WRITEBACK ACCESS:      59993  HIT:      58044  MISS:       1949
Heartbeat CPU 0 instructions: 66000003 cycles: 50410968 heartbeat IPC: 0.700122 cumulative IPC: 0.698538 (Simulation time: 1 hr 45 min 36 sec) 

Region of Interest Statistics
cpu0_DTLB TOTAL     ACCESS:    7302292  HIT:    7194037  MISS:     108255
cpu0_DTLB LOAD      ACCESS:    6611170  HIT:    6512955  MISS:      98215
cpu0_DTLB RFO       ACCESS:     691122  HIT:     681082  MISS:      10040
cpu0_DTLB PREFETCH  ACCESS:          0  HIT:          0  MISS:          0
cpu0_DTLB WRITEBACK ACCESS:          0  HIT:          0  MISS:          0
cpu0_ITLB TOTAL     ACCESS:     303958  HIT:     303958  MISS:          0
cpu0_ITLB LOAD      ACCESS:     303958  HIT:     303958  MISS:          0
cpu0_ITLB RFO       ACCESS:          0  HIT:          0  MISS:          0
cpu0_ITLB PREFETCH  ACCESS:          0  HIT:          0  MISS:          0
cpu0_ITLB WRITEBACK ACCESS:          0  HIT:          0  MISS:          0
cpu0_L1I TOTAL     ACCESS:    1790755  HIT:    1790755  MISS:          0
cpu0_L1I LOAD      ACCESS:    1790755  HIT:    1790755  MISS:          0
cpu0_L1I RFO       ACCESS:          0  HIT:          0  MISS:          0
cpu0_L1I PREFETCH  ACCESS:          0  HIT:          0  MISS:          0
cpu0_L1I WRITEBACK ACCESS:          0  HIT:          0  MISS:          0
cpu0_STLB TOTAL     ACCESS:     108255  HIT:      91011  MISS:      17244
cpu0_STLB LOAD      ACCESS:      98215  HIT:      80971  MISS:      17244
cpu0_STLB RFO       ACCESS:      10040  HIT:      10040  MISS:          0
cpu0_STLB PREFETCH  ACCESS:          0  HIT:          0  MISS:          0
cpu0_STLB WRITEBACK ACCESS:          0  HIT:          0  MISS:          0
cpu0_L1D TOTAL     ACCESS:    8558424  HIT:    8412334  MISS:     146090
cpu0_L1D LOAD      ACCESS:    7314266  HIT:    7168326  MISS:     145940
cpu0_L1D RFO       ACCESS:    1226958  HIT:    1226958  MISS:          0
cpu0_L1D PREFETCH  ACCESS:          0  HIT:          0  MISS:          0
cpu0_L1D WRITEBACK ACCESS:          0  HIT:          0  MISS:          0
cpu0_L2C TOTAL     ACCESS:     214767  HIT:      95612  MISS:     119155
cpu0_L2C LOAD      ACCESS:     145940  HIT:      26797  MISS:     119143
cpu0_L2C RFO       ACCESS:          0  HIT:          0  MISS:          0
cpu0_L2C PREFETCH  ACCESS:          0  HIT:          0  MISS:          0
cpu0_L2C WRITEBACK ACCESS:      68677  HIT:      68677  MISS:          0
LLC TOTAL     ACCESS:     187804  HIT:      71392  MISS:     116412
LLC LOAD      ACCESS:     119143  HIT:       5116  MISS:     114027
LLC RFO       ACCESS:          0  HIT:          0  MISS:          0
LLC PREFETCH  ACCESS:          0  HIT:          0  MISS:          0
LLC WRITEBACK ACCESS:      68649  HIT:      66267  MISS:       2382
Heartbeat CPU 0 instructions: 68000001 cycles: 53288985 heartbeat IPC: 0.694922 cumulative IPC: 0.698135 (Simulation time: 1 hr 49 min 44 sec) 

Region of Interest Statistics
cpu0_DTLB TOTAL     ACCESS:    8215503  HIT:    8095430  MISS:     120073
cpu0_DTLB LOAD      ACCESS:    7438039  HIT:    7328909  MISS:     109130
cpu0_DTLB RFO       ACCESS:     777464  HIT:     766521  MISS:      10943
cpu0_DTLB PREFETCH  ACCESS:          0  HIT:          0  MISS:          0
cpu0_DTLB WRITEBACK ACCESS:          0  HIT:          0  MISS:          0
cpu0_ITLB TOTAL     ACCESS:     341962  HIT:     341962  MISS:          0
cpu0_ITLB LOAD      ACCESS:     341962  HIT:     341962  MISS:          0
cpu0_ITLB RFO       ACCESS:          0  HIT:          0  MISS:          0
cpu0_ITLB PREFETCH  ACCESS:          0  HIT:          0  MISS:          0
cpu0_ITLB WRITEBACK ACCESS:          0  HIT:          0  MISS:          0
cpu0_L1I TOTAL     ACCESS:    2014610  HIT:    2014610  MISS:          0
cpu0_L1I LOAD      ACCESS:    2014610  HIT:    2014610  MISS:          0
cpu0_L1I RFO       ACCESS:          0  HIT:          0  MISS:          0
cpu0_L1I PREFETCH  ACCESS:          0  HIT:          0  MISS:          0
cpu0_L1I WRITEBACK ACCESS:          0  HIT:          0  MISS:          0
cpu0_STLB TOTAL     ACCESS:     120074  HIT:     100675  MISS:      19399
cpu0_STLB LOAD      ACCESS:     109131  HIT:      89732  MISS:      19399
cpu0_STLB RFO       ACCESS:      10943  HIT:      10943  MISS:          0
cpu0_STLB PREFETCH  ACCESS:          0  HIT:          0  MISS:          0
cpu0_STLB WRITEBACK ACCESS:          0  HIT:          0  MISS:          0
cpu0_L1D TOTAL     ACCESS:    9627956  HIT:    9463605  MISS:     164351
cpu0_L1D LOAD      ACCESS:    8228267  HIT:    8064084  MISS:     164183
cpu0_L1D RFO       ACCESS:    1380339  HIT:    1380339  MISS:          0
cpu0_L1D PREFETCH  ACCESS:          0  HIT:          0  MISS:          0
cpu0_L1D WRITEBACK ACCESS:          0  HIT:          0  MISS:          0
cpu0_L2C TOTAL     ACCESS:     241593  HIT:     107516  MISS:     134077
cpu0_L2C LOAD      ACCESS:     164183  HIT:      30120  MISS:     134063
cpu0_L2C RFO       ACCESS:          0  HIT:          0  MISS:          0
cpu0_L2C PREFETCH  ACCESS:          0  HIT:          0  MISS:          0
cpu0_L2C WRITEBACK ACCESS:      77242  HIT:      77242  MISS:          0
LLC TOTAL     ACCESS:     211307  HIT:      79968  MISS:     131339
LLC LOAD      ACCESS:     134063  HIT:       5611  MISS:     128452
LLC RFO       ACCESS:          0  HIT:          0  MISS:          0
LLC PREFETCH  ACCESS:          0  HIT:          0  MISS:          0
LLC WRITEBACK ACCESS:      77230  HIT:      74347  MISS:       2883
Heartbeat CPU 0 instructions: 70000004 cycles: 56151101 heartbeat IPC: 0.698785 cumulative IPC: 0.6982 (Simulation time: 1 hr 53 min 47 sec) 

Region of Interest Statistics
cpu0_DTLB TOTAL     ACCESS:    9129313  HIT:    8995852  MISS:     133461
cpu0_DTLB LOAD      ACCESS:    8265553  HIT:    8144120  MISS:     121433
cpu0_DTLB RFO       ACCESS:     863760  HIT:     851732  MISS:      12028
cpu0_DTLB PREFETCH  ACCESS:          0  HIT:          0  MISS:          0
cpu0_DTLB WRITEBACK ACCESS:          0  HIT:          0  MISS:          0
cpu0_ITLB TOTAL     ACCESS:     379939  HIT:     379939  MISS:          0
cpu0_ITLB LOAD      ACCESS:     379939  HIT:     379939  MISS:          0
cpu0_ITLB RFO       ACCESS:          0  HIT:          0  MISS:          0
cpu0_ITLB PREFETCH  ACCESS:          0  HIT:          0  MISS:          0
cpu0_ITLB WRITEBACK ACCESS:          0  HIT:          0  MISS:          0
cpu0_L1I TOTAL     ACCESS:    2238510  HIT:    2238510  MISS:          0
cpu0_L1I LOAD      ACCESS:    2238510  HIT:    2238510  MISS:          0
cpu0_L1I RFO       ACCESS:          0  HIT:          0  MISS:          0
cpu0_L1I PREFETCH  ACCESS:          0  HIT:          0  MISS:          0
cpu0_L1I WRITEBACK ACCESS:          0  HIT:          0  MISS:          0
cpu0_STLB TOTAL     ACCESS:     133461  HIT:     111903  MISS:      21558
cpu0_STLB LOAD      ACCESS:     121433  HIT:      99875  MISS:      21558
cpu0_STLB RFO       ACCESS:      12028  HIT:      12028  MISS:          0
cpu0_STLB PREFETCH  ACCESS:          0  HIT:          0  MISS:          0
cpu0_STLB WRITEBACK ACCESS:          0  HIT:          0  MISS:          0
cpu0_L1D TOTAL     ACCESS:   10697897  HIT:   10515276  MISS:     182621
cpu0_L1D LOAD      ACCESS:    9142674  HIT:    8960244  MISS:     182430
cpu0_L1D RFO       ACCESS:    1533718  HIT:    1533718  MISS:          0
cpu0_L1D PREFETCH  ACCESS:          0  HIT:          0  MISS:          0
cpu0_L1D WRITEBACK ACCESS:          0  HIT:          0  MISS:          0
cpu0_L2C TOTAL     ACCESS:     268449  HIT:     119437  MISS:     149012
cpu0_L2C LOAD      ACCESS:     182430  HIT:      33435  MISS:     148995
cpu0_L2C RFO       ACCESS:          0  HIT:          0  MISS:          0
cpu0_L2C PREFETCH  ACCESS:          0  HIT:          0  MISS:          0
cpu0_L2C WRITEBACK ACCESS:      85828  HIT:      85828  MISS:          0
LLC TOTAL     ACCESS:     234797  HIT:      88439  MISS:     146358
LLC LOAD      ACCESS:     148995  HIT:       6252  MISS:     142743
LLC RFO       ACCESS:          0  HIT:          0  MISS:          0
LLC PREFETCH  ACCESS:          0  HIT:          0  MISS:          0
LLC WRITEBACK ACCESS:      85785  HIT:      82175  MISS:       3610
Heartbeat CPU 0 instructions: 72000000 cycles: 59006219 heartbeat IPC: 0.700495 cumulative IPC: 0.698408 (Simulation time: 1 hr 57 min 50 sec) 

Region of Interest Statistics
cpu0_DTLB TOTAL     ACCESS:   10042084  HIT:    9895259  MISS:     146825
cpu0_DTLB LOAD      ACCESS:    9092006  HIT:    8958272  MISS:     133734
cpu0_DTLB RFO       ACCESS:     950078  HIT:     936987  MISS:      13091
cpu0_DTLB PREFETCH  ACCESS:          0  HIT:          0  MISS:          0
cpu0_DTLB WRITEBACK ACCESS:          0  HIT:          0  MISS:          0
cpu0_ITLB TOTAL     ACCESS:     417933  HIT:     417933  MISS:          0
cpu0_ITLB LOAD      ACCESS:     417933  HIT:     417933  MISS:          0
cpu0_ITLB RFO       ACCESS:          0  HIT:          0  MISS:          0
cpu0_ITLB PREFETCH  ACCESS:          0  HIT:          0  MISS:          0
cpu0_ITLB WRITEBACK ACCESS:          0  HIT:          0  MISS:          0
cpu0_L1I TOTAL     ACCESS:    2462303  HIT:    2462303  MISS:          0
cpu0_L1I LOAD      ACCESS:    2462303  HIT:    2462303  MISS:          0
cpu0_L1I RFO       ACCESS:          0  HIT:          0  MISS:          0
cpu0_L1I PREFETCH  ACCESS:          0  HIT:          0  MISS:          0
cpu0_L1I WRITEBACK ACCESS:          0  HIT:          0  MISS:          0
cpu0_STLB TOTAL     ACCESS:     146825  HIT:     123115  MISS:      23710
cpu0_STLB LOAD      ACCESS:     133734  HIT:     110024  MISS:      23710
cpu0_STLB RFO       ACCESS:      13091  HIT:      13091  MISS:          0
cpu0_STLB PREFETCH  ACCESS:          0  HIT:          0  MISS:          0
cpu0_STLB WRITEBACK ACCESS:          0  HIT:          0  MISS:          0
cpu0_L1D TOTAL     ACCESS:   11766967  HIT:   11566091  MISS:     200876
cpu0_L1D LOAD      ACCESS:   10056246  HIT:    9855580  MISS:     200666
cpu0_L1D RFO       ACCESS:    1687069  HIT:    1687069  MISS:          0
cpu0_L1D PREFETCH  ACCESS:          0  HIT:          0  MISS:          0
cpu0_L1D WRITEBACK ACCESS:          0  HIT:          0  MISS:          0
cpu0_L2C TOTAL     ACCESS:     295299  HIT:     131373  MISS:     163926
cpu0_L2C LOAD      ACCESS:     200666  HIT:      36759  MISS:     163907
cpu0_L2C RFO       ACCESS:          0  HIT:          0  MISS:          0
cpu0_L2C PREFETCH  ACCESS:          0  HIT:          0  MISS:          0
cpu0_L2C WRITEBACK ACCESS:      94423  HIT:      94423  MISS:          0
LLC TOTAL     ACCESS:     258388  HIT:      97106  MISS:     161282
LLC LOAD      ACCESS:     163907  HIT:       6921  MISS:     156986
LLC RFO       ACCESS:          0  HIT:          0  MISS:          0
LLC PREFETCH  ACCESS:          0  HIT:          0  MISS:          0
LLC WRITEBACK ACCESS:      94462  HIT:      90172  MISS:       4290
Heartbeat CPU 0 instructions: 74000000 cycles: 61868244 heartbeat IPC: 0.698806 cumulative IPC: 0.698441 (Simulation time: 2 hr 1 min 57 sec) 

Region of Interest Statistics
cpu0_DTLB TOTAL     ACCESS:   10953915  HIT:   10791259  MISS:     162656
cpu0_DTLB LOAD      ACCESS:    9917408  HIT:    9769346  MISS:     148062
cpu0_DTLB RFO       ACCESS:    1036507  HIT:    1021913  MISS:      14594
cpu0_DTLB PREFETCH  ACCESS:          0  HIT:          0  MISS:          0
cpu0_DTLB WRITEBACK ACCESS:          0  HIT:          0  MISS:          0
cpu0_ITLB TOTAL     ACCESS:     455938  HIT:     455938  MISS:          0
cpu0_ITLB LOAD      ACCESS:     455938  HIT:     455938  MISS:          0
cpu0_ITLB RFO       ACCESS:          0  HIT:          0  MISS:          0
cpu0_ITLB PREFETCH  ACCESS:          0  HIT:          0  MISS:          0
cpu0_ITLB WRITEBACK ACCESS:          0  HIT:          0  MISS:          0
cpu0_L1I TOTAL     ACCESS:    2686123  HIT:    2686123  MISS:          0
cpu0_L1I LOAD      ACCESS:    2686123  HIT:    2686123  MISS:          0
cpu0_L1I RFO       ACCESS:          0  HIT:          0  MISS:          0
cpu0_L1I PREFETCH  ACCESS:          0  HIT:          0  MISS:          0
cpu0_L1I WRITEBACK ACCESS:          0  HIT:          0  MISS:          0
cpu0_STLB TOTAL     ACCESS:     162656  HIT:     136790  MISS:      25866
cpu0_STLB LOAD      ACCESS:     148062  HIT:     122196  MISS:      25866
cpu0_STLB RFO       ACCESS:      14594  HIT:      14594  MISS:          0
cpu0_STLB PREFETCH  ACCESS:          0  HIT:          0  MISS:          0
cpu0_STLB WRITEBACK ACCESS:          0  HIT:          0  MISS:          0
cpu0_L1D TOTAL     ACCESS:   12836987  HIT:   12617856  MISS:     219131
cpu0_L1D LOAD      ACCESS:   10970748  HIT:   10751844  MISS:     218904
cpu0_L1D RFO       ACCESS:    1840438  HIT:    1840438  MISS:          0
cpu0_L1D PREFETCH  ACCESS:          0  HIT:          0  MISS:          0
cpu0_L1D WRITEBACK ACCESS:          0  HIT:          0  MISS:          0
cpu0_L2C TOTAL     ACCESS:     322135  HIT:     143234  MISS:     178901
cpu0_L2C LOAD      ACCESS:     218904  HIT:      40022  MISS:     178882
cpu0_L2C RFO       ACCESS:          0  HIT:          0  MISS:          0
cpu0_L2C PREFETCH  ACCESS:          0  HIT:          0  MISS:          0
cpu0_L2C WRITEBACK ACCESS:     103004  HIT:     103004  MISS:          0
LLC TOTAL     ACCESS:     281861  HIT:     105840  MISS:     176021
LLC LOAD      ACCESS:     178882  HIT:       7673  MISS:     171209
LLC RFO       ACCESS:          0  HIT:          0  MISS:          0
LLC PREFETCH  ACCESS:          0  HIT:          0  MISS:          0
LLC WRITEBACK ACCESS:     102960  HIT:      98154  MISS:       4806
Heartbeat CPU 0 instructions: 76000000 cycles: 64745492 heartbeat IPC: 0.695109 cumulative IPC: 0.698183 (Simulation time: 2 hr 6 min 7 sec) 

Region of Interest Statistics
cpu0_DTLB TOTAL     ACCESS:   11866291  HIT:   11689463  MISS:     176828
cpu0_DTLB LOAD      ACCESS:   10743420  HIT:   10582934  MISS:     160486
cpu0_DTLB RFO       ACCESS:    1122871  HIT:    1106529  MISS:      16342
cpu0_DTLB PREFETCH  ACCESS:          0  HIT:          0  MISS:          0
cpu0_DTLB WRITEBACK ACCESS:          0  HIT:          0  MISS:          0
cpu0_ITLB TOTAL     ACCESS:     493930  HIT:     493930  MISS:          0
cpu0_ITLB LOAD      ACCESS:     493930  HIT:     493930  MISS:          0
cpu0_ITLB RFO       ACCESS:          0  HIT:          0  MISS:          0
cpu0_ITLB PREFETCH  ACCESS:          0  HIT:          0  MISS:          0
cpu0_ITLB WRITEBACK ACCESS:          0  HIT:          0  MISS:          0
cpu0_L1I TOTAL     ACCESS:    2909973  HIT:    2909973  MISS:          0
cpu0_L1I LOAD      ACCESS:    2909973  HIT:    2909973  MISS:          0
cpu0_L1I RFO       ACCESS:          0  HIT:          0  MISS:          0
cpu0_L1I PREFETCH  ACCESS:          0  HIT:          0  MISS:          0
cpu0_L1I WRITEBACK ACCESS:          0  HIT:          0  MISS:          0
cpu0_STLB TOTAL     ACCESS:     176828  HIT:     148803  MISS:      28025
cpu0_STLB LOAD      ACCESS:     160486  HIT:     132461  MISS:      28025
cpu0_STLB RFO       ACCESS:      16342  HIT:      16342  MISS:          0
cpu0_STLB PREFETCH  ACCESS:          0  HIT:          0  MISS:          0
cpu0_STLB WRITEBACK ACCESS:          0  HIT:          0  MISS:          0
cpu0_L1D TOTAL     ACCESS:   13906814  HIT:   13669407  MISS:     237407
cpu0_L1D LOAD      ACCESS:   11885028  HIT:   11647867  MISS:     237161
cpu0_L1D RFO       ACCESS:    1993828  HIT:    1993828  MISS:          0
cpu0_L1D PREFETCH  ACCESS:          0  HIT:          0  MISS:          0
cpu0_L1D WRITEBACK ACCESS:          0  HIT:          0  MISS:          0
cpu0_L2C TOTAL     ACCESS:     348988  HIT:     155165  MISS:     193823
cpu0_L2C LOAD      ACCESS:     237161  HIT:      43359  MISS:     193802
cpu0_L2C RFO       ACCESS:          0  HIT:          0  MISS:          0
cpu0_L2C PREFETCH  ACCESS:          0  HIT:          0  MISS:          0
cpu0_L2C WRITEBACK ACCESS:     111581  HIT:     111581  MISS:          0
LLC TOTAL     ACCESS:     305361  HIT:     114452  MISS:     190909
LLC LOAD      ACCESS:     193802  HIT:       8285  MISS:     185517
LLC RFO       ACCESS:          0  HIT:          0  MISS:          0
LLC PREFETCH  ACCESS:          0  HIT:          0  MISS:          0
LLC WRITEBACK ACCESS:     111538  HIT:     106153  MISS:       5385
Heartbeat CPU 0 instructions: 78000000 cycles: 67601716 heartbeat IPC: 0.700225 cumulative IPC: 0.698329 (Simulation time: 2 hr 10 min 18 sec) 

Region of Interest Statistics
cpu0_DTLB TOTAL     ACCESS:   12781063  HIT:   12593739  MISS:     187324
cpu0_DTLB LOAD      ACCESS:   11571811  HIT:   11401578  MISS:     170233
cpu0_DTLB RFO       ACCESS:    1209252  HIT:    1192161  MISS:      17091
cpu0_DTLB PREFETCH  ACCESS:          0  HIT:          0  MISS:          0
cpu0_DTLB WRITEBACK ACCESS:          0  HIT:          0  MISS:          0
cpu0_ITLB TOTAL     ACCESS:     531924  HIT:     531924  MISS:          0
cpu0_ITLB LOAD      ACCESS:     531924  HIT:     531924  MISS:          0
cpu0_ITLB RFO       ACCESS:          0  HIT:          0  MISS:          0
cpu0_ITLB PREFETCH  ACCESS:          0  HIT:          0  MISS:          0
cpu0_ITLB WRITEBACK ACCESS:          0  HIT:          0  MISS:          0
cpu0_L1I TOTAL     ACCESS:    3133793  HIT:    3133793  MISS:          0
cpu0_L1I LOAD      ACCESS:    3133793  HIT:    3133793  MISS:          0
cpu0_L1I RFO       ACCESS:          0  HIT:          0  MISS:          0
cpu0_L1I PREFETCH  ACCESS:          0  HIT:          0  MISS:          0
cpu0_L1I WRITEBACK ACCESS:          0  HIT:          0  MISS:          0
cpu0_STLB TOTAL     ACCESS:     187324  HIT:     157147  MISS:      30177
cpu0_STLB LOAD      ACCESS:     170233  HIT:     140056  MISS:      30177
cpu0_STLB RFO       ACCESS:      17091  HIT:      17091  MISS:          0
cpu0_STLB PREFETCH  ACCESS:          0  HIT:          0  MISS:          0
cpu0_STLB WRITEBACK ACCESS:          0  HIT:          0  MISS:          0
cpu0_L1D TOTAL     ACCESS:   14976601  HIT:   14720947  MISS:     255654
cpu0_L1D LOAD      ACCESS:   12799312  HIT:   12543923  MISS:     255389
cpu0_L1D RFO       ACCESS:    2147183  HIT:    2147183  MISS:          0
cpu0_L1D PREFETCH  ACCESS:          0  HIT:          0  MISS:          0
cpu0_L1D WRITEBACK ACCESS:          0  HIT:          0  MISS:          0
cpu0_L2C TOTAL     ACCESS:     375818  HIT:     167151  MISS:     208667
cpu0_L2C LOAD      ACCESS:     255389  HIT:      46744  MISS:     208645
cpu0_L2C RFO       ACCESS:          0  HIT:          0  MISS:          0
cpu0_L2C PREFETCH  ACCESS:          0  HIT:          0  MISS:          0
cpu0_L2C WRITEBACK ACCESS:     120164  HIT:     120164  MISS:          0
LLC TOTAL     ACCESS:     328759  HIT:     123351  MISS:     205408
LLC LOAD      ACCESS:     208645  HIT:       8893  MISS:     199752
LLC RFO       ACCESS:          0  HIT:          0  MISS:          0
LLC PREFETCH  ACCESS:          0  HIT:          0  MISS:          0
LLC WRITEBACK ACCESS:     120092  HIT:     114443  MISS:       5649
Heartbeat CPU 0 instructions: 80000003 cycles: 70454789 heartbeat IPC: 0.701 cumulative IPC: 0.698506 (Simulation time: 2 hr 14 min 16 sec) 

Region of Interest Statistics
cpu0_DTLB TOTAL     ACCESS:   13694295  HIT:   13494248  MISS:     200047
cpu0_DTLB LOAD      ACCESS:   12398772  HIT:   12216797  MISS:     181975
cpu0_DTLB RFO       ACCESS:    1295523  HIT:    1277451  MISS:      18072
cpu0_DTLB PREFETCH  ACCESS:          0  HIT:          0  MISS:          0
cpu0_DTLB WRITEBACK ACCESS:          0  HIT:          0  MISS:          0
cpu0_ITLB TOTAL     ACCESS:     569901  HIT:     569901  MISS:          0
cpu0_ITLB LOAD      ACCESS:     569901  HIT:     569901  MISS:          0
cpu0_ITLB RFO       ACCESS:          0  HIT:          0  MISS:          0
cpu0_ITLB PREFETCH  ACCESS:          0  HIT:          0  MISS:          0
cpu0_ITLB WRITEBACK ACCESS:          0  HIT:          0  MISS:          0
cpu0_L1I TOTAL     ACCESS:    3357686  HIT:    3357686  MISS:          0
cpu0_L1I LOAD      ACCESS:    3357686  HIT:    3357686  MISS:          0
cpu0_L1I RFO       ACCESS:          0  HIT:          0  MISS:          0
cpu0_L1I PREFETCH  ACCESS:          0  HIT:          0  MISS:          0
cpu0_L1I WRITEBACK ACCESS:          0  HIT:          0  MISS:          0
cpu0_STLB TOTAL     ACCESS:     200047  HIT:     167712  MISS:      32335
cpu0_STLB LOAD      ACCESS:     181975  HIT:     149640  MISS:      32335
cpu0_STLB RFO       ACCESS:      18072  HIT:      18072  MISS:          0
cpu0_STLB PREFETCH  ACCESS:          0  HIT:          0  MISS:          0
cpu0_STLB WRITEBACK ACCESS:          0  HIT:          0  MISS:          0
cpu0_L1D TOTAL     ACCESS:   16046226  HIT:   15772305  MISS:     273921
cpu0_L1D LOAD      ACCESS:   13713410  HIT:   13439775  MISS:     273635
cpu0_L1D RFO       ACCESS:    2300558  HIT:    2300558  MISS:          0
cpu0_L1D PREFETCH  ACCESS:          0  HIT:          0  MISS:          0
cpu0_L1D WRITEBACK ACCESS:          0  HIT:          0  MISS:          0
cpu0_L2C TOTAL     ACCESS:     402680  HIT:     179098  MISS:     223582
cpu0_L2C LOAD      ACCESS:     273635  HIT:      50078  MISS:     223557
cpu0_L2C RFO       ACCESS:          0  HIT:          0  MISS:          0
cpu0_L2C PREFETCH  ACCESS:          0  HIT:          0  MISS:          0
cpu0_L2C WRITEBACK ACCESS:     128759  HIT:     128759  MISS:          0
LLC TOTAL     ACCESS:     352271  HIT:     132355  MISS:     219916
LLC LOAD      ACCESS:     223557  HIT:       9579  MISS:     213978
LLC RFO       ACCESS:          0  HIT:          0  MISS:          0
LLC PREFETCH  ACCESS:          0  HIT:          0  MISS:          0
LLC WRITEBACK ACCESS:     128689  HIT:     122759  MISS:       5930
Heartbeat CPU 0 instructions: 82000003 cycles: 73308403 heartbeat IPC: 0.700866 cumulative IPC: 0.698653 (Simulation time: 2 hr 18 min 22 sec) 

Region of Interest Statistics
cpu0_DTLB TOTAL     ACCESS:   14607049  HIT:   14392526  MISS:     214523
cpu0_DTLB LOAD      ACCESS:   13225184  HIT:   13029992  MISS:     195192
cpu0_DTLB RFO       ACCESS:    1381865  HIT:    1362534  MISS:      19331
cpu0_DTLB PREFETCH  ACCESS:          0  HIT:          0  MISS:          0
cpu0_DTLB WRITEBACK ACCESS:          0  HIT:          0  MISS:          0
cpu0_ITLB TOTAL     ACCESS:     607889  HIT:     607889  MISS:          0
cpu0_ITLB LOAD      ACCESS:     607889  HIT:     607889  MISS:          0
cpu0_ITLB RFO       ACCESS:          0  HIT:          0  MISS:          0
cpu0_ITLB PREFETCH  ACCESS:          0  HIT:          0  MISS:          0
cpu0_ITLB WRITEBACK ACCESS:          0  HIT:          0  MISS:          0
cpu0_L1I TOTAL     ACCESS:    3581574  HIT:    3581574  MISS:          0
cpu0_L1I LOAD      ACCESS:    3581574  HIT:    3581574  MISS:          0
cpu0_L1I RFO       ACCESS:          0  HIT:          0  MISS:          0
cpu0_L1I PREFETCH  ACCESS:          0  HIT:          0  MISS:          0
cpu0_L1I WRITEBACK ACCESS:          0  HIT:          0  MISS:          0
cpu0_STLB TOTAL     ACCESS:     214523  HIT:     180034  MISS:      34489
cpu0_STLB LOAD      ACCESS:     195192  HIT:     160703  MISS:      34489
cpu0_STLB RFO       ACCESS:      19331  HIT:      19331  MISS:          0
cpu0_STLB PREFETCH  ACCESS:          0  HIT:          0  MISS:          0
cpu0_STLB WRITEBACK ACCESS:          0  HIT:          0  MISS:          0
cpu0_L1D TOTAL     ACCESS:   17115539  HIT:   16823355  MISS:     292184
cpu0_L1D LOAD      ACCESS:   14627202  HIT:   14335324  MISS:     291878
cpu0_L1D RFO       ACCESS:    2453927  HIT:    2453927  MISS:          0
cpu0_L1D PREFETCH  ACCESS:          0  HIT:          0  MISS:          0
cpu0_L1D WRITEBACK ACCESS:          0  HIT:          0  MISS:          0
cpu0_L2C TOTAL     ACCESS:     429509  HIT:     191011  MISS:     238498
cpu0_L2C LOAD      ACCESS:     291878  HIT:      53406  MISS:     238472
cpu0_L2C RFO       ACCESS:          0  HIT:          0  MISS:          0
cpu0_L2C PREFETCH  ACCESS:          0  HIT:          0  MISS:          0
cpu0_L2C WRITEBACK ACCESS:     137325  HIT:     137325  MISS:          0
LLC TOTAL     ACCESS:     375739  HIT:     141589  MISS:     234150
LLC LOAD      ACCESS:     238472  HIT:      10262  MISS:     228210
LLC RFO       ACCESS:          0  HIT:          0  MISS:          0
LLC PREFETCH  ACCESS:          0  HIT:          0  MISS:          0
LLC WRITEBACK ACCESS:     137241  HIT:     131309  MISS:       5932
Heartbeat CPU 0 instructions: 84000003 cycles: 76179042 heartbeat IPC: 0.696709 cumulative IPC: 0.698539 (Simulation time: 2 hr 22 min 27 sec) 

Region of Interest Statistics
cpu0_DTLB TOTAL     ACCESS:   15519479  HIT:   15289564  MISS:     229915
cpu0_DTLB LOAD      ACCESS:   14051213  HIT:   13842079  MISS:     209134
cpu0_DTLB RFO       ACCESS:    1468266  HIT:    1447485  MISS:      20781
cpu0_DTLB PREFETCH  ACCESS:          0  HIT:          0  MISS:          0
cpu0_DTLB WRITEBACK ACCESS:          0  HIT:          0  MISS:          0
cpu0_ITLB TOTAL     ACCESS:     645887  HIT:     645887  MISS:          0
cpu0_ITLB LOAD      ACCESS:     645887  HIT:     645887  MISS:          0
cpu0_ITLB RFO       ACCESS:          0  HIT:          0  MISS:          0
cpu0_ITLB PREFETCH  ACCESS:          0  HIT:          0  MISS:          0
cpu0_ITLB WRITEBACK ACCESS:          0  HIT:          0  MISS:          0
cpu0_L1I TOTAL     ACCESS:    3805375  HIT:    3805375  MISS:          0
cpu0_L1I LOAD      ACCESS:    3805375  HIT:    3805375  MISS:          0
cpu0_L1I RFO       ACCESS:          0  HIT:          0  MISS:          0
cpu0_L1I PREFETCH  ACCESS:          0  HIT:          0  MISS:          0
cpu0_L1I WRITEBACK ACCESS:          0  HIT:          0  MISS:          0
cpu0_STLB TOTAL     ACCESS:     229915  HIT:     193272  MISS:      36643
cpu0_STLB LOAD      ACCESS:     209134  HIT:     172491  MISS:      36643
cpu0_STLB RFO       ACCESS:      20781  HIT:      20781  MISS:          0
cpu0_STLB PREFETCH  ACCESS:          0  HIT:          0  MISS:          0
cpu0_STLB WRITEBACK ACCESS:          0  HIT:          0  MISS:          0
cpu0_L1D TOTAL     ACCESS:   18185433  HIT:   17874988  MISS:     310445
cpu0_L1D LOAD      ACCESS:   15541577  HIT:   15231456  MISS:     310121
cpu0_L1D RFO       ACCESS:    2607298  HIT:    2607298  MISS:          0
cpu0_L1D PREFETCH  ACCESS:          0  HIT:          0  MISS:          0
cpu0_L1D WRITEBACK ACCESS:          0  HIT:          0  MISS:          0
cpu0_L2C TOTAL     ACCESS:     456354  HIT:     202924  MISS:     253430
cpu0_L2C LOAD      ACCESS:     310121  HIT:      56718  MISS:     253403
cpu0_L2C RFO       ACCESS:          0  HIT:          0  MISS:          0
cpu0_L2C PREFETCH  ACCESS:          0  HIT:          0  MISS:          0
cpu0_L2C WRITEBACK ACCESS:     145909  HIT:     145909  MISS:          0
LLC TOTAL     ACCESS:     399230  HIT:     150562  MISS:     248668
LLC LOAD      ACCESS:     253403  HIT:      10969  MISS:     242434
LLC RFO       ACCESS:          0  HIT:          0  MISS:          0
LLC PREFETCH  ACCESS:          0  HIT:          0  MISS:          0
LLC WRITEBACK ACCESS:     145800  HIT:     139574  MISS:       6226
Heartbeat CPU 0 instructions: 86000004 cycles: 79045583 heartbeat IPC: 0.697705 cumulative IPC: 0.698492 (Simulation time: 2 hr 26 min 31 sec) 

Region of Interest Statistics
cpu0_DTLB TOTAL     ACCESS:   16432251  HIT:   16188727  MISS:     243524
cpu0_DTLB LOAD      ACCESS:   14877529  HIT:   14656039  MISS:     221490
cpu0_DTLB RFO       ACCESS:    1554722  HIT:    1532688  MISS:      22034
cpu0_DTLB PREFETCH  ACCESS:          0  HIT:          0  MISS:          0
cpu0_DTLB WRITEBACK ACCESS:          0  HIT:          0  MISS:          0
cpu0_ITLB TOTAL     ACCESS:     683881  HIT:     683881  MISS:          0
cpu0_ITLB LOAD      ACCESS:     683881  HIT:     683881  MISS:          0
cpu0_ITLB RFO       ACCESS:          0  HIT:          0  MISS:          0
cpu0_ITLB PREFETCH  ACCESS:          0  HIT:          0  MISS:          0
cpu0_ITLB WRITEBACK ACCESS:          0  HIT:          0  MISS:          0
cpu0_L1I TOTAL     ACCESS:    4029201  HIT:    4029201  MISS:          0
cpu0_L1I LOAD      ACCESS:    4029201  HIT:    4029201  MISS:          0
cpu0_L1I RFO       ACCESS:          0  HIT:          0  MISS:          0
cpu0_L1I PREFETCH  ACCESS:          0  HIT:          0  MISS:          0
cpu0_L1I WRITEBACK ACCESS:          0  HIT:          0  MISS:          0
cpu0_STLB TOTAL     ACCESS:     243524  HIT:     204729  MISS:      38795
cpu0_STLB LOAD      ACCESS:     221490  HIT:     182695  MISS:      38795
cpu0_STLB RFO       ACCESS:      22034  HIT:      22034  MISS:          0
cpu0_STLB PREFETCH  ACCESS:          0  HIT:          0  MISS:          0
cpu0_STLB WRITEBACK ACCESS:          0  HIT:          0  MISS:          0
cpu0_L1D TOTAL     ACCESS:   19255847  HIT:   18927136  MISS:     328711
cpu0_L1D LOAD      ACCESS:   16456472  HIT:   16128104  MISS:     328368
cpu0_L1D RFO       ACCESS:    2760668  HIT:    2760668  MISS:          0
cpu0_L1D PREFETCH  ACCESS:          0  HIT:          0  MISS:          0
cpu0_L1D WRITEBACK ACCESS:          0  HIT:          0  MISS:          0
cpu0_L2C TOTAL     ACCESS:     483216  HIT:     214941  MISS:     268275
cpu0_L2C LOAD      ACCESS:     328368  HIT:      60121  MISS:     268247
cpu0_L2C RFO       ACCESS:          0  HIT:          0  MISS:          0
cpu0_L2C PREFETCH  ACCESS:          0  HIT:          0  MISS:          0
cpu0_L2C WRITEBACK ACCESS:     154505  HIT:     154505  MISS:          0
LLC TOTAL     ACCESS:     422709  HIT:     159322  MISS:     263387
LLC LOAD      ACCESS:     268247  HIT:      11567  MISS:     256680
LLC RFO       ACCESS:          0  HIT:          0  MISS:          0
LLC PREFETCH  ACCESS:          0  HIT:          0  MISS:          0
LLC WRITEBACK ACCESS:     154434  HIT:     147736  MISS:       6698
Heartbeat CPU 0 instructions: 88000004 cycles: 81895026 heartbeat IPC: 0.701892 cumulative IPC: 0.69867 (Simulation time: 2 hr 30 min 37 sec) 

Region of Interest Statistics
cpu0_DTLB TOTAL     ACCESS:   17345659  HIT:   17091309  MISS:     254350
cpu0_DTLB LOAD      ACCESS:   15704491  HIT:   15473141  MISS:     231350
cpu0_DTLB RFO       ACCESS:    1641168  HIT:    1618168  MISS:      23000
cpu0_DTLB PREFETCH  ACCESS:          0  HIT:          0  MISS:          0
cpu0_DTLB WRITEBACK ACCESS:          0  HIT:          0  MISS:          0
cpu0_ITLB TOTAL     ACCESS:     721885  HIT:     721885  MISS:          0
cpu0_ITLB LOAD      ACCESS:     721885  HIT:     721885  MISS:          0
cpu0_ITLB RFO       ACCESS:          0  HIT:          0  MISS:          0
cpu0_ITLB PREFETCH  ACCESS:          0  HIT:          0  MISS:          0
cpu0_ITLB WRITEBACK ACCESS:          0  HIT:          0  MISS:          0
cpu0_L1I TOTAL     ACCESS:    4253070  HIT:    4253070  MISS:          0
cpu0_L1I LOAD      ACCESS:    4253070  HIT:    4253070  MISS:          0
cpu0_L1I RFO       ACCESS:          0  HIT:          0  MISS:          0
cpu0_L1I PREFETCH  ACCESS:          0  HIT:          0  MISS:          0
cpu0_L1I WRITEBACK ACCESS:          0  HIT:          0  MISS:          0
cpu0_STLB TOTAL     ACCESS:     254350  HIT:     213397  MISS:      40953
cpu0_STLB LOAD      ACCESS:     231350  HIT:     190397  MISS:      40953
cpu0_STLB RFO       ACCESS:      23000  HIT:      23000  MISS:          0
cpu0_STLB PREFETCH  ACCESS:          0  HIT:          0  MISS:          0
cpu0_STLB WRITEBACK ACCESS:          0  HIT:          0  MISS:          0
cpu0_L1D TOTAL     ACCESS:   20325764  HIT:   19978799  MISS:     346965
cpu0_L1D LOAD      ACCESS:   17370867  HIT:   17024264  MISS:     346603
cpu0_L1D RFO       ACCESS:    2914038  HIT:    2914038  MISS:          0
cpu0_L1D PREFETCH  ACCESS:          0  HIT:          0  MISS:          0
cpu0_L1D WRITEBACK ACCESS:          0  HIT:          0  MISS:          0
cpu0_L2C TOTAL     ACCESS:     510061  HIT:     226916  MISS:     283145
cpu0_L2C LOAD      ACCESS:     346603  HIT:      63487  MISS:     283116
cpu0_L2C RFO       ACCESS:          0  HIT:          0  MISS:          0
cpu0_L2C PREFETCH  ACCESS:          0  HIT:          0  MISS:          0
cpu0_L2C WRITEBACK ACCESS:     163096  HIT:     163096  MISS:          0
LLC TOTAL     ACCESS:     446164  HIT:     168514  MISS:     277650
LLC LOAD      ACCESS:     283116  HIT:      12219  MISS:     270897
LLC RFO       ACCESS:          0  HIT:          0  MISS:          0
LLC PREFETCH  ACCESS:          0  HIT:          0  MISS:          0
LLC WRITEBACK ACCESS:     163019  HIT:     156275  MISS:       6744
Heartbeat CPU 0 instructions: 90000001 cycles: 84757121 heartbeat IPC: 0.698788 cumulative IPC: 0.698676 (Simulation time: 2 hr 34 min 36 sec) 

Region of Interest Statistics
cpu0_DTLB TOTAL     ACCESS:   18259010  HIT:   17992674  MISS:     266336
cpu0_DTLB LOAD      ACCESS:   16531568  HIT:   16289135  MISS:     242433
cpu0_DTLB RFO       ACCESS:    1727442  HIT:    1703539  MISS:      23903
cpu0_DTLB PREFETCH  ACCESS:          0  HIT:          0  MISS:          0
cpu0_DTLB WRITEBACK ACCESS:          0  HIT:          0  MISS:          0
cpu0_ITLB TOTAL     ACCESS:     759874  HIT:     759874  MISS:          0
cpu0_ITLB LOAD      ACCESS:     759874  HIT:     759874  MISS:          0
cpu0_ITLB RFO       ACCESS:          0  HIT:          0  MISS:          0
cpu0_ITLB PREFETCH  ACCESS:          0  HIT:          0  MISS:          0
cpu0_ITLB WRITEBACK ACCESS:          0  HIT:          0  MISS:          0
cpu0_L1I TOTAL     ACCESS:    4476915  HIT:    4476915  MISS:          0
cpu0_L1I LOAD      ACCESS:    4476915  HIT:    4476915  MISS:          0
cpu0_L1I RFO       ACCESS:          0  HIT:          0  MISS:          0
cpu0_L1I PREFETCH  ACCESS:          0  HIT:          0  MISS:          0
cpu0_L1I WRITEBACK ACCESS:          0  HIT:          0  MISS:          0
cpu0_STLB TOTAL     ACCESS:     266336  HIT:     223231  MISS:      43105
cpu0_STLB LOAD      ACCESS:     242433  HIT:     199328  MISS:      43105
cpu0_STLB RFO       ACCESS:      23903  HIT:      23903  MISS:          0
cpu0_STLB PREFETCH  ACCESS:          0  HIT:          0  MISS:          0
cpu0_STLB WRITEBACK ACCESS:          0  HIT:          0  MISS:          0
cpu0_L1D TOTAL     ACCESS:   21395859  HIT:   21030638  MISS:     365221
cpu0_L1D LOAD      ACCESS:   18285455  HIT:   17920614  MISS:     364841
cpu0_L1D RFO       ACCESS:    3067398  HIT:    3067398  MISS:          0
cpu0_L1D PREFETCH  ACCESS:          0  HIT:          0  MISS:          0
cpu0_L1D WRITEBACK ACCESS:          0  HIT:          0  MISS:          0
cpu0_L2C TOTAL     ACCESS:     536878  HIT:     238819  MISS:     298059
cpu0_L2C LOAD      ACCESS:     364841  HIT:      66811  MISS:     298030
cpu0_L2C RFO       ACCESS:          0  HIT:          0  MISS:          0
cpu0_L2C PREFETCH  ACCESS:          0  HIT:          0  MISS:          0
cpu0_L2C WRITEBACK ACCESS:     171657  HIT:     171657  MISS:          0
LLC TOTAL     ACCESS:     469632  HIT:     177557  MISS:     292075
LLC LOAD      ACCESS:     298030  HIT:      12829  MISS:     285201
LLC RFO       ACCESS:          0  HIT:          0  MISS:          0
LLC PREFETCH  ACCESS:          0  HIT:          0  MISS:          0
LLC WRITEBACK ACCESS:     171573  HIT:     164708  MISS:       6865
Heartbeat CPU 0 instructions: 92000000 cycles: 87616714 heartbeat IPC: 0.6994 cumulative IPC: 0.698711 (Simulation time: 2 hr 38 min 45 sec) 

Region of Interest Statistics
cpu0_DTLB TOTAL     ACCESS:   19172221  HIT:   18891669  MISS:     280552
cpu0_DTLB LOAD      ACCESS:   17358500  HIT:   17103120  MISS:     255380
cpu0_DTLB RFO       ACCESS:    1813721  HIT:    1788549  MISS:      25172
cpu0_DTLB PREFETCH  ACCESS:          0  HIT:          0  MISS:          0
cpu0_DTLB WRITEBACK ACCESS:          0  HIT:          0  MISS:          0
cpu0_ITLB TOTAL     ACCESS:     797862  HIT:     797862  MISS:          0
cpu0_ITLB LOAD      ACCESS:     797862  HIT:     797862  MISS:          0
cpu0_ITLB RFO       ACCESS:          0  HIT:          0  MISS:          0
cpu0_ITLB PREFETCH  ACCESS:          0  HIT:          0  MISS:          0
cpu0_ITLB WRITEBACK ACCESS:          0  HIT:          0  MISS:          0
cpu0_L1I TOTAL     ACCESS:    4700782  HIT:    4700782  MISS:          0
cpu0_L1I LOAD      ACCESS:    4700782  HIT:    4700782  MISS:          0
cpu0_L1I RFO       ACCESS:          0  HIT:          0  MISS:          0
cpu0_L1I PREFETCH  ACCESS:          0  HIT:          0  MISS:          0
cpu0_L1I WRITEBACK ACCESS:          0  HIT:          0  MISS:          0
cpu0_STLB TOTAL     ACCESS:     280552  HIT:     235286  MISS:      45266
cpu0_STLB LOAD      ACCESS:     255380  HIT:     210114  MISS:      45266
cpu0_STLB RFO       ACCESS:      25172  HIT:      25172  MISS:          0
cpu0_STLB PREFETCH  ACCESS:          0  HIT:          0  MISS:          0
cpu0_STLB WRITEBACK ACCESS:          0  HIT:          0  MISS:          0
cpu0_L1D TOTAL     ACCESS:   22465756  HIT:   22082261  MISS:     383495
cpu0_L1D LOAD      ACCESS:   19199814  HIT:   18816722  MISS:     383092
cpu0_L1D RFO       ACCESS:    3220779  HIT:    3220779  MISS:          0
cpu0_L1D PREFETCH  ACCESS:          0  HIT:          0  MISS:          0
cpu0_L1D WRITEBACK ACCESS:          0  HIT:          0  MISS:          0
cpu0_L2C TOTAL     ACCESS:     563732  HIT:     250789  MISS:     312943
cpu0_L2C LOAD      ACCESS:     383092  HIT:      70181  MISS:     312911
cpu0_L2C RFO       ACCESS:          0  HIT:          0  MISS:          0
cpu0_L2C PREFETCH  ACCESS:          0  HIT:          0  MISS:          0
cpu0_L2C WRITEBACK ACCESS:     180237  HIT:     180237  MISS:          0
LLC TOTAL     ACCESS:     493141  HIT:     186800  MISS:     306341
LLC LOAD      ACCESS:     312911  HIT:      13486  MISS:     299425
LLC RFO       ACCESS:          0  HIT:          0  MISS:          0
LLC PREFETCH  ACCESS:          0  HIT:          0  MISS:          0
LLC WRITEBACK ACCESS:     180198  HIT:     173292  MISS:       6906
Heartbeat CPU 0 instructions: 94000002 cycles: 90477529 heartbeat IPC: 0.699102 cumulative IPC: 0.698728 (Simulation time: 2 hr 42 min 44 sec) 

Region of Interest Statistics
cpu0_DTLB TOTAL     ACCESS:   20084744  HIT:   19789465  MISS:     295279
cpu0_DTLB LOAD      ACCESS:   18184653  HIT:   17915843  MISS:     268810
cpu0_DTLB RFO       ACCESS:    1900091  HIT:    1873622  MISS:      26469
cpu0_DTLB PREFETCH  ACCESS:          0  HIT:          0  MISS:          0
cpu0_DTLB WRITEBACK ACCESS:          0  HIT:          0  MISS:          0
cpu0_ITLB TOTAL     ACCESS:     835849  HIT:     835849  MISS:          0
cpu0_ITLB LOAD      ACCESS:     835849  HIT:     835849  MISS:          0
cpu0_ITLB RFO       ACCESS:          0  HIT:          0  MISS:          0
cpu0_ITLB PREFETCH  ACCESS:          0  HIT:          0  MISS:          0
cpu0_ITLB WRITEBACK ACCESS:          0  HIT:          0  MISS:          0
cpu0_L1I TOTAL     ACCESS:    4924535  HIT:    4924535  MISS:          0
cpu0_L1I LOAD      ACCESS:    4924535  HIT:    4924535  MISS:          0
cpu0_L1I RFO       ACCESS:          0  HIT:          0  MISS:          0
cpu0_L1I PREFETCH  ACCESS:          0  HIT:          0  MISS:          0
cpu0_L1I WRITEBACK ACCESS:          0  HIT:          0  MISS:          0
cpu0_STLB TOTAL     ACCESS:     295279  HIT:     247857  MISS:      47422
cpu0_STLB LOAD      ACCESS:     268810  HIT:     221388  MISS:      47422
cpu0_STLB RFO       ACCESS:      26469  HIT:      26469  MISS:          0
cpu0_STLB PREFETCH  ACCESS:          0  HIT:          0  MISS:          0
cpu0_STLB WRITEBACK ACCESS:          0  HIT:          0  MISS:          0
cpu0_L1D TOTAL     ACCESS:   23535309  HIT:   23133555  MISS:     401754
cpu0_L1D LOAD      ACCESS:   20113840  HIT:   19712508  MISS:     401332
cpu0_L1D RFO       ACCESS:    3374158  HIT:    3374158  MISS:          0
cpu0_L1D PREFETCH  ACCESS:          0  HIT:          0  MISS:          0
cpu0_L1D WRITEBACK ACCESS:          0  HIT:          0  MISS:          0
cpu0_L2C TOTAL     ACCESS:     590589  HIT:     262816  MISS:     327773
cpu0_L2C LOAD      ACCESS:     401332  HIT:      73592  MISS:     327740
cpu0_L2C RFO       ACCESS:          0  HIT:          0  MISS:          0
cpu0_L2C PREFETCH  ACCESS:          0  HIT:          0  MISS:          0
cpu0_L2C WRITEBACK ACCESS:     188835  HIT:     188835  MISS:          0
LLC TOTAL     ACCESS:     516527  HIT:     195939  MISS:     320588
LLC LOAD      ACCESS:     327740  HIT:      14088  MISS:     313652
LLC RFO       ACCESS:          0  HIT:          0  MISS:          0
LLC PREFETCH  ACCESS:          0  HIT:          0  MISS:          0
LLC WRITEBACK ACCESS:     188754  HIT:     181829  MISS:       6925
Heartbeat CPU 0 instructions: 96000003 cycles: 93338266 heartbeat IPC: 0.699121 cumulative IPC: 0.698745 (Simulation time: 2 hr 46 min 53 sec) 

Region of Interest Statistics
cpu0_DTLB TOTAL     ACCESS:   20996588  HIT:   20687398  MISS:     309190
cpu0_DTLB LOAD      ACCESS:   19010029  HIT:   18728419  MISS:     281610
cpu0_DTLB RFO       ACCESS:    1986559  HIT:    1958979  MISS:      27580
cpu0_DTLB PREFETCH  ACCESS:          0  HIT:          0  MISS:          0
cpu0_DTLB WRITEBACK ACCESS:          0  HIT:          0  MISS:          0
cpu0_ITLB TOTAL     ACCESS:     873836  HIT:     873836  MISS:          0
cpu0_ITLB LOAD      ACCESS:     873836  HIT:     873836  MISS:          0
cpu0_ITLB RFO       ACCESS:          0  HIT:          0  MISS:          0
cpu0_ITLB PREFETCH  ACCESS:          0  HIT:          0  MISS:          0
cpu0_ITLB WRITEBACK ACCESS:          0  HIT:          0  MISS:          0
cpu0_L1I TOTAL     ACCESS:    5148359  HIT:    5148359  MISS:          0
cpu0_L1I LOAD      ACCESS:    5148359  HIT:    5148359  MISS:          0
cpu0_L1I RFO       ACCESS:          0  HIT:          0  MISS:          0
cpu0_L1I PREFETCH  ACCESS:          0  HIT:          0  MISS:          0
cpu0_L1I WRITEBACK ACCESS:          0  HIT:          0  MISS:          0
cpu0_STLB TOTAL     ACCESS:     309190  HIT:     259616  MISS:      49574
cpu0_STLB LOAD      ACCESS:     281610  HIT:     232036  MISS:      49574
cpu0_STLB RFO       ACCESS:      27580  HIT:      27580  MISS:          0
cpu0_STLB PREFETCH  ACCESS:          0  HIT:          0  MISS:          0
cpu0_STLB WRITEBACK ACCESS:          0  HIT:          0  MISS:          0
cpu0_L1D TOTAL     ACCESS:   24605662  HIT:   24185646  MISS:     420016
cpu0_L1D LOAD      ACCESS:   21028693  HIT:   20609119  MISS:     419574
cpu0_L1D RFO       ACCESS:    3527509  HIT:    3527509  MISS:          0
cpu0_L1D PREFETCH  ACCESS:          0  HIT:          0  MISS:          0
cpu0_L1D WRITEBACK ACCESS:          0  HIT:          0  MISS:          0
cpu0_L2C TOTAL     ACCESS:     617421  HIT:     274689  MISS:     342732
cpu0_L2C LOAD      ACCESS:     419574  HIT:      76877  MISS:     342697
cpu0_L2C RFO       ACCESS:          0  HIT:          0  MISS:          0
cpu0_L2C PREFETCH  ACCESS:          0  HIT:          0  MISS:          0
cpu0_L2C WRITEBACK ACCESS:     197405  HIT:     197405  MISS:          0
LLC TOTAL     ACCESS:     540011  HIT:     205092  MISS:     334919
LLC LOAD      ACCESS:     342697  HIT:      14800  MISS:     327897
LLC RFO       ACCESS:          0  HIT:          0  MISS:          0
LLC PREFETCH  ACCESS:          0  HIT:          0  MISS:          0
LLC WRITEBACK ACCESS:     197279  HIT:     190269  MISS:       7010
Heartbeat CPU 0 instructions: 98000003 cycles: 96199513 heartbeat IPC: 0.698996 cumulative IPC: 0.698756 (Simulation time: 2 hr 50 min 56 sec) 

Region of Interest Statistics
cpu0_DTLB TOTAL     ACCESS:   21909620  HIT:   21587653  MISS:     321967
cpu0_DTLB LOAD      ACCESS:   19836642  HIT:   19543716  MISS:     292926
cpu0_DTLB RFO       ACCESS:    2072978  HIT:    2043937  MISS:      29041
cpu0_DTLB PREFETCH  ACCESS:          0  HIT:          0  MISS:          0
cpu0_DTLB WRITEBACK ACCESS:          0  HIT:          0  MISS:          0
cpu0_ITLB TOTAL     ACCESS:     911832  HIT:     911832  MISS:          0
cpu0_ITLB LOAD      ACCESS:     911832  HIT:     911832  MISS:          0
cpu0_ITLB RFO       ACCESS:          0  HIT:          0  MISS:          0
cpu0_ITLB PREFETCH  ACCESS:          0  HIT:          0  MISS:          0
cpu0_ITLB WRITEBACK ACCESS:          0  HIT:          0  MISS:          0
cpu0_L1I TOTAL     ACCESS:    5372238  HIT:    5372238  MISS:          0
cpu0_L1I LOAD      ACCESS:    5372238  HIT:    5372238  MISS:          0
cpu0_L1I RFO       ACCESS:          0  HIT:          0  MISS:          0
cpu0_L1I PREFETCH  ACCESS:          0  HIT:          0  MISS:          0
cpu0_L1I WRITEBACK ACCESS:          0  HIT:          0  MISS:          0
cpu0_STLB TOTAL     ACCESS:     321967  HIT:     270237  MISS:      51730
cpu0_STLB LOAD      ACCESS:     292926  HIT:     241196  MISS:      51730
cpu0_STLB RFO       ACCESS:      29041  HIT:      29041  MISS:          0
cpu0_STLB PREFETCH  ACCESS:          0  HIT:          0  MISS:          0
cpu0_STLB WRITEBACK ACCESS:          0  HIT:          0  MISS:          0
cpu0_L1D TOTAL     ACCESS:   25675852  HIT:   25237587  MISS:     438265
cpu0_L1D LOAD      ACCESS:   21943367  HIT:   21505562  MISS:     437805
cpu0_L1D RFO       ACCESS:    3680878  HIT:    3680878  MISS:          0
cpu0_L1D PREFETCH  ACCESS:          0  HIT:          0  MISS:          0
cpu0_L1D WRITEBACK ACCESS:          0  HIT:          0  MISS:          0
cpu0_L2C TOTAL     ACCESS:     644270  HIT:     286595  MISS:     357675
cpu0_L2C LOAD      ACCESS:     437805  HIT:      80166  MISS:     357639
cpu0_L2C RFO       ACCESS:          0  HIT:          0  MISS:          0
cpu0_L2C PREFETCH  ACCESS:          0  HIT:          0  MISS:          0
cpu0_L2C WRITEBACK ACCESS:     206005  HIT:     206005  MISS:          0
LLC TOTAL     ACCESS:     563562  HIT:     214000  MISS:     349562
LLC LOAD      ACCESS:     357639  HIT:      15473  MISS:     342166
LLC RFO       ACCESS:          0  HIT:          0  MISS:          0
LLC PREFETCH  ACCESS:          0  HIT:          0  MISS:          0
LLC WRITEBACK ACCESS:     205887  HIT:     198503  MISS:       7384
Heartbeat CPU 0 instructions: 100000003 cycles: 99057536 heartbeat IPC: 0.699784 cumulative IPC: 0.698797 (Simulation time: 2 hr 54 min 57 sec) 

Region of Interest Statistics
cpu0_DTLB TOTAL     ACCESS:   22823881  HIT:   22490823  MISS:     333058
cpu0_DTLB LOAD      ACCESS:   20664488  HIT:   20361271  MISS:     303217
cpu0_DTLB RFO       ACCESS:    2159393  HIT:    2129552  MISS:      29841
cpu0_DTLB PREFETCH  ACCESS:          0  HIT:          0  MISS:          0
cpu0_DTLB WRITEBACK ACCESS:          0  HIT:          0  MISS:          0
cpu0_ITLB TOTAL     ACCESS:     949816  HIT:     949816  MISS:          0
cpu0_ITLB LOAD      ACCESS:     949816  HIT:     949816  MISS:          0
cpu0_ITLB RFO       ACCESS:          0  HIT:          0  MISS:          0
cpu0_ITLB PREFETCH  ACCESS:          0  HIT:          0  MISS:          0
cpu0_ITLB WRITEBACK ACCESS:          0  HIT:          0  MISS:          0
cpu0_L1I TOTAL     ACCESS:    5596042  HIT:    5596042  MISS:          0
cpu0_L1I LOAD      ACCESS:    5596042  HIT:    5596042  MISS:          0
cpu0_L1I RFO       ACCESS:          0  HIT:          0  MISS:          0
cpu0_L1I PREFETCH  ACCESS:          0  HIT:          0  MISS:          0
cpu0_L1I WRITEBACK ACCESS:          0  HIT:          0  MISS:          0
cpu0_STLB TOTAL     ACCESS:     333058  HIT:     279175  MISS:      53883
cpu0_STLB LOAD      ACCESS:     303217  HIT:     249334  MISS:      53883
cpu0_STLB RFO       ACCESS:      29841  HIT:      29841  MISS:          0
cpu0_STLB PREFETCH  ACCESS:          0  HIT:          0  MISS:          0
cpu0_STLB WRITEBACK ACCESS:          0  HIT:          0  MISS:          0
cpu0_L1D TOTAL     ACCESS:   26745793  HIT:   26289253  MISS:     456540
cpu0_L1D LOAD      ACCESS:   22857772  HIT:   22401711  MISS:     456061
cpu0_L1D RFO       ACCESS:    3834268  HIT:    3834268  MISS:          0
cpu0_L1D PREFETCH  ACCESS:          0  HIT:          0  MISS:          0
cpu0_L1D WRITEBACK ACCESS:          0  HIT:          0  MISS:          0
cpu0_L2C TOTAL     ACCESS:     671121  HIT:     298483  MISS:     372638
cpu0_L2C LOAD      ACCESS:     456061  HIT:      83460  MISS:     372601
cpu0_L2C RFO       ACCESS:          0  HIT:          0  MISS:          0
cpu0_L2C PREFETCH  ACCESS:          0  HIT:          0  MISS:          0
cpu0_L2C WRITEBACK ACCESS:     214581  HIT:     214581  MISS:          0
LLC TOTAL     ACCESS:     587099  HIT:     222304  MISS:     364795
LLC LOAD      ACCESS:     372601  HIT:      16202  MISS:     356399
LLC RFO       ACCESS:          0  HIT:          0  MISS:          0
LLC PREFETCH  ACCESS:          0  HIT:          0  MISS:          0
LLC WRITEBACK ACCESS:     214461  HIT:     206078  MISS:       8383
Heartbeat CPU 0 instructions: 102000004 cycles: 101910300 heartbeat IPC: 0.701075 cumulative IPC: 0.698884 (Simulation time: 2 hr 59 min 1 sec) 

Region of Interest Statistics
cpu0_DTLB TOTAL     ACCESS:   23736863  HIT:   23390617  MISS:     346246
cpu0_DTLB LOAD      ACCESS:   21491134  HIT:   21175783  MISS:     315351
cpu0_DTLB RFO       ACCESS:    2245729  HIT:    2214834  MISS:      30895
cpu0_DTLB PREFETCH  ACCESS:          0  HIT:          0  MISS:          0
cpu0_DTLB WRITEBACK ACCESS:          0  HIT:          0  MISS:          0
cpu0_ITLB TOTAL     ACCESS:     987809  HIT:     987809  MISS:          0
cpu0_ITLB LOAD      ACCESS:     987809  HIT:     987809  MISS:          0
cpu0_ITLB RFO       ACCESS:          0  HIT:          0  MISS:          0
cpu0_ITLB PREFETCH  ACCESS:          0  HIT:          0  MISS:          0
cpu0_ITLB WRITEBACK ACCESS:          0  HIT:          0  MISS:          0
cpu0_L1I TOTAL     ACCESS:    5819934  HIT:    5819934  MISS:          0
cpu0_L1I LOAD      ACCESS:    5819934  HIT:    5819934  MISS:          0
cpu0_L1I RFO       ACCESS:          0  HIT:          0  MISS:          0
cpu0_L1I PREFETCH  ACCESS:          0  HIT:          0  MISS:          0
cpu0_L1I WRITEBACK ACCESS:          0  HIT:          0  MISS:          0
cpu0_STLB TOTAL     ACCESS:     346246  HIT:     290205  MISS:      56041
cpu0_STLB LOAD      ACCESS:     315351  HIT:     259310  MISS:      56041
cpu0_STLB RFO       ACCESS:      30895  HIT:      30895  MISS:          0
cpu0_STLB PREFETCH  ACCESS:          0  HIT:          0  MISS:          0
cpu0_STLB WRITEBACK ACCESS:          0  HIT:          0  MISS:          0
cpu0_L1D TOTAL     ACCESS:   27815651  HIT:   27340856  MISS:     474795
cpu0_L1D LOAD      ACCESS:   23772121  HIT:   23297825  MISS:     474296
cpu0_L1D RFO       ACCESS:    3987622  HIT:    3987622  MISS:          0
cpu0_L1D PREFETCH  ACCESS:          0  HIT:          0  MISS:          0
cpu0_L1D WRITEBACK ACCESS:          0  HIT:          0  MISS:          0
cpu0_L2C TOTAL     ACCESS:     697975  HIT:     310422  MISS:     387553
cpu0_L2C LOAD      ACCESS:     474296  HIT:      86781  MISS:     387515
cpu0_L2C RFO       ACCESS:          0  HIT:          0  MISS:          0
cpu0_L2C PREFETCH  ACCESS:          0  HIT:          0  MISS:          0
cpu0_L2C WRITEBACK ACCESS:     223180  HIT:     223180  MISS:          0
LLC TOTAL     ACCESS:     610630  HIT:     231590  MISS:     379040
LLC LOAD      ACCESS:     387515  HIT:      16897  MISS:     370618
LLC RFO       ACCESS:          0  HIT:          0  MISS:          0
LLC PREFETCH  ACCESS:          0  HIT:          0  MISS:          0
LLC WRITEBACK ACCESS:     223077  HIT:     214668  MISS:       8409
Heartbeat CPU 0 instructions: 104000003 cycles: 104760464 heartbeat IPC: 0.701714 cumulative IPC: 0.698989 (Simulation time: 3 hr 3 min 9 sec) 

Region of Interest Statistics
cpu0_DTLB TOTAL     ACCESS:   24650013  HIT:   24291091  MISS:     358922
cpu0_DTLB LOAD      ACCESS:   22317903  HIT:   21990731  MISS:     327172
cpu0_DTLB RFO       ACCESS:    2332110  HIT:    2300360  MISS:      31750
cpu0_DTLB PREFETCH  ACCESS:          0  HIT:          0  MISS:          0
cpu0_DTLB WRITEBACK ACCESS:          0  HIT:          0  MISS:          0
cpu0_ITLB TOTAL     ACCESS:    1025780  HIT:    1025780  MISS:          0
cpu0_ITLB LOAD      ACCESS:    1025780  HIT:    1025780  MISS:          0
cpu0_ITLB RFO       ACCESS:          0  HIT:          0  MISS:          0
cpu0_ITLB PREFETCH  ACCESS:          0  HIT:          0  MISS:          0
cpu0_ITLB WRITEBACK ACCESS:          0  HIT:          0  MISS:          0
cpu0_L1I TOTAL     ACCESS:    6043813  HIT:    6043813  MISS:          0
cpu0_L1I LOAD      ACCESS:    6043813  HIT:    6043813  MISS:          0
cpu0_L1I RFO       ACCESS:          0  HIT:          0  MISS:          0
cpu0_L1I PREFETCH  ACCESS:          0  HIT:          0  MISS:          0
cpu0_L1I WRITEBACK ACCESS:          0  HIT:          0  MISS:          0
cpu0_STLB TOTAL     ACCESS:     358922  HIT:     300726  MISS:      58196
cpu0_STLB LOAD      ACCESS:     327172  HIT:     268976  MISS:      58196
cpu0_STLB RFO       ACCESS:      31750  HIT:      31750  MISS:          0
cpu0_STLB PREFETCH  ACCESS:          0  HIT:          0  MISS:          0
cpu0_STLB WRITEBACK ACCESS:          0  HIT:          0  MISS:          0
cpu0_L1D TOTAL     ACCESS:   28885484  HIT:   28392424  MISS:     493060
cpu0_L1D LOAD      ACCESS:   24686430  HIT:   24193891  MISS:     492539
cpu0_L1D RFO       ACCESS:    4140998  HIT:    4140998  MISS:          0
cpu0_L1D PREFETCH  ACCESS:          0  HIT:          0  MISS:          0
cpu0_L1D WRITEBACK ACCESS:          0  HIT:          0  MISS:          0
cpu0_L2C TOTAL     ACCESS:     724797  HIT:     322303  MISS:     402494
cpu0_L2C LOAD      ACCESS:     492539  HIT:      90086  MISS:     402453
cpu0_L2C RFO       ACCESS:          0  HIT:          0  MISS:          0
cpu0_L2C PREFETCH  ACCESS:          0  HIT:          0  MISS:          0
cpu0_L2C WRITEBACK ACCESS:     231737  HIT:     231737  MISS:          0
LLC TOTAL     ACCESS:     634114  HIT:     240714  MISS:     393400
LLC LOAD      ACCESS:     402453  HIT:      17505  MISS:     384948
LLC RFO       ACCESS:          0  HIT:          0  MISS:          0
LLC PREFETCH  ACCESS:          0  HIT:          0  MISS:          0
LLC WRITEBACK ACCESS:     231620  HIT:     223182  MISS:       8438
Heartbeat CPU 0 instructions: 106000001 cycles: 107629485 heartbeat IPC: 0.697101 cumulative IPC: 0.698921 (Simulation time: 3 hr 7 min 16 sec) 

Region of Interest Statistics
cpu0_DTLB TOTAL     ACCESS:   25561884  HIT:   25186919  MISS:     374965
cpu0_DTLB LOAD      ACCESS:   23143376  HIT:   22801686  MISS:     341690
cpu0_DTLB RFO       ACCESS:    2418508  HIT:    2385233  MISS:      33275
cpu0_DTLB PREFETCH  ACCESS:          0  HIT:          0  MISS:          0
cpu0_DTLB WRITEBACK ACCESS:          0  HIT:          0  MISS:          0
cpu0_ITLB TOTAL     ACCESS:    1063776  HIT:    1063776  MISS:          0
cpu0_ITLB LOAD      ACCESS:    1063776  HIT:    1063776  MISS:          0
cpu0_ITLB RFO       ACCESS:          0  HIT:          0  MISS:          0
cpu0_ITLB PREFETCH  ACCESS:          0  HIT:          0  MISS:          0
cpu0_ITLB WRITEBACK ACCESS:          0  HIT:          0  MISS:          0
cpu0_L1I TOTAL     ACCESS:    6267577  HIT:    6267577  MISS:          0
cpu0_L1I LOAD      ACCESS:    6267577  HIT:    6267577  MISS:          0
cpu0_L1I RFO       ACCESS:          0  HIT:          0  MISS:          0
cpu0_L1I PREFETCH  ACCESS:          0  HIT:          0  MISS:          0
cpu0_L1I WRITEBACK ACCESS:          0  HIT:          0  MISS:          0
cpu0_STLB TOTAL     ACCESS:     374965  HIT:     314612  MISS:      60353
cpu0_STLB LOAD      ACCESS:     341690  HIT:     281337  MISS:      60353
cpu0_STLB RFO       ACCESS:      33275  HIT:      33275  MISS:          0
cpu0_STLB PREFETCH  ACCESS:          0  HIT:          0  MISS:          0
cpu0_STLB WRITEBACK ACCESS:          0  HIT:          0  MISS:          0
cpu0_L1D TOTAL     ACCESS:   29955645  HIT:   29444318  MISS:     511327
cpu0_L1D LOAD      ACCESS:   25601069  HIT:   25090282  MISS:     510787
cpu0_L1D RFO       ACCESS:    4294367  HIT:    4294367  MISS:          0
cpu0_L1D PREFETCH  ACCESS:          0  HIT:          0  MISS:          0
cpu0_L1D WRITEBACK ACCESS:          0  HIT:          0  MISS:          0
cpu0_L2C TOTAL     ACCESS:     751655  HIT:     334153  MISS:     417502
cpu0_L2C LOAD      ACCESS:     510787  HIT:      93327  MISS:     417460
cpu0_L2C RFO       ACCESS:          0  HIT:          0  MISS:          0
cpu0_L2C PREFETCH  ACCESS:          0  HIT:          0  MISS:          0
[...]
Finished CPU 0 instructions: 1500000000 cycles: 2687952157 cumulative IPC: 0.558046 (Simulation time: 24 hr 41 min 29 sec) 

ChampSim completed all CPUs

Region of Interest Statistics

CPU 0 cumulative IPC: 0.558046 instructions: 1500000000 cycles: 2687952157
cpu0_DTLB TOTAL     ACCESS:  602807246  HIT:  595653008  MISS:    7154238
cpu0_DTLB LOAD      ACCESS:  537712812  HIT:  531992192  MISS:    5720620
cpu0_DTLB RFO       ACCESS:   65094434  HIT:   63660816  MISS:    1433618
cpu0_DTLB PREFETCH  ACCESS:          0  HIT:          0  MISS:          0
cpu0_DTLB WRITEBACK ACCESS:          0  HIT:          0  MISS:          0
cpu0_DTLB TRANSLATION ACCESS:          0  HIT:          0  MISS:          0
cpu0_DTLB PREFETCH  REQUESTED:          0  ISSUED:          0  USEFUL:          0  USELESS:          0
cpu0_DTLB AVERAGE MISS LATENCY: 18.8659 cycles
cpu0_ITLB TOTAL     ACCESS:   26490606  HIT:   26490567  MISS:         39
cpu0_ITLB LOAD      ACCESS:   26490606  HIT:   26490567  MISS:         39
cpu0_ITLB RFO       ACCESS:          0  HIT:          0  MISS:          0
cpu0_ITLB PREFETCH  ACCESS:          0  HIT:          0  MISS:          0
cpu0_ITLB WRITEBACK ACCESS:          0  HIT:          0  MISS:          0
cpu0_ITLB TRANSLATION ACCESS:          0  HIT:          0  MISS:          0
cpu0_ITLB PREFETCH  REQUESTED:          0  ISSUED:          0  USEFUL:          0  USELESS:          0
cpu0_ITLB AVERAGE MISS LATENCY: 245.333 cycles
cpu0_L1I TOTAL     ACCESS:  115106196  HIT:  115105197  MISS:        999
cpu0_L1I LOAD      ACCESS:  115106196  HIT:  115105197  MISS:        999
cpu0_L1I RFO       ACCESS:          0  HIT:          0  MISS:          0
cpu0_L1I PREFETCH  ACCESS:          0  HIT:          0  MISS:          0
cpu0_L1I WRITEBACK ACCESS:          0  HIT:          0  MISS:          0
cpu0_L1I TRANSLATION ACCESS:          0  HIT:          0  MISS:          0
cpu0_L1I PREFETCH  REQUESTED:          0  ISSUED:          0  USEFUL:          0  USELESS:          0
cpu0_L1I AVERAGE MISS LATENCY: 324.173 cycles
cpu0_STLB TOTAL     ACCESS:    7154277  HIT:    6195558  MISS:     958719
cpu0_STLB LOAD      ACCESS:    5720659  HIT:    4762649  MISS:     958010
cpu0_STLB RFO       ACCESS:    1433618  HIT:    1432909  MISS:        709
cpu0_STLB PREFETCH  ACCESS:          0  HIT:          0  MISS:          0
cpu0_STLB WRITEBACK ACCESS:          0  HIT:          0  MISS:          0
cpu0_STLB TRANSLATION ACCESS:          0  HIT:          0  MISS:          0
cpu0_STLB PREFETCH  REQUESTED:          0  ISSUED:          0  USEFUL:          0  USELESS:          0
cpu0_STLB AVERAGE MISS LATENCY: 73.5294 cycles
cpu0_L1D TOTAL     ACCESS:  665896599  HIT:  646817126  MISS:   19079473
cpu0_L1D LOAD      ACCESS:  562511966  HIT:  543644958  MISS:   18867008
cpu0_L1D RFO       ACCESS:  102491591  HIT:  102325858  MISS:     165733
cpu0_L1D PREFETCH  ACCESS:          0  HIT:          0  MISS:          0
cpu0_L1D WRITEBACK ACCESS:          0  HIT:          0  MISS:          0
cpu0_L1D TRANSLATION ACCESS:     893042  HIT:     846310  MISS:      46732
cpu0_L1D PREFETCH  REQUESTED:          0  ISSUED:          0  USEFUL:          0  USELESS:          0
cpu0_L1D AVERAGE MISS LATENCY: 433.319 cycles
cpu0_L2C TOTAL     ACCESS:   27437093  HIT:    9871931  MISS:   17565162
cpu0_L2C LOAD      ACCESS:   18868007  HIT:    1430072  MISS:   17437935
cpu0_L2C RFO       ACCESS:     165733  HIT:      40325  MISS:     125408
cpu0_L2C PREFETCH  ACCESS:          0  HIT:          0  MISS:          0
cpu0_L2C WRITEBACK ACCESS:    8356621  HIT:    8356011  MISS:        610
cpu0_L2C TRANSLATION ACCESS:      46732  HIT:      45523  MISS:       1209
cpu0_L2C PREFETCH  REQUESTED:          0  ISSUED:          0  USEFUL:          0  USELESS:          0
cpu0_L2C AVERAGE MISS LATENCY: 458.686 cycles
LLC TOTAL     ACCESS:   25875423  HIT:   10181198  MISS:   15694225
LLC LOAD      ACCESS:   17437932  HIT:    1816443  MISS:   15621489
LLC RFO       ACCESS:     125408  HIT:     115848  MISS:       9560
LLC PREFETCH  ACCESS:          0  HIT:          0  MISS:          0
LLC WRITEBACK ACCESS:    8310874  HIT:    8248372  MISS:      62502
LLC TRANSLATION ACCESS:       1209  HIT:        535  MISS:        674
LLC PREFETCH  REQUESTED:          0  ISSUED:          0  USEFUL:          0  USELESS:          0
LLC AVERAGE MISS LATENCY: 489.863 cycles
~~~~~~~~~~Reuse Distance Profiler output~~~~~~~~~~
0	37680496	4369168
1	12918240	8609552
2	13468080	10053792
3	19152320	16155952
4	19245760	15080560
5	22456544	17859264
6	23480672	17950768
7	21930384	17848656
8	19978320	17223776
9	16736720	15034912
10	15743312	14675088
11	14706464	13979184
12	15535456	15093232
13	15418784	14814400
14	16037824	15695680
15	12507920	12063072
16	10361696	9998272
17	8765568	8266864
18	8402432	7632816
19	7811216	7278304
20	6678480	6150720
21	6562816	6038816
22	5436624	4910240
23	7130288	6109520
24	4746096	4142864
25	4465520	4009200
26	4415616	4015136
27	4353584	3944064
28	4074720	3608016
29	4053136	3690272
30	4145584	3750016
31	3983696	3564720
32	4159936	3707424
33	3981328	3448880
34	3976512	3430320
35	3951440	3376144
36	3578880	3023136
37	3515472	2948752
38	2909792	2437152
39	2945136	2367296
40	2796992	2288592
41	2639200	2131712
42	2437264	1927392
43	2274208	1765600
44	2243616	1761184
45	2300992	1826976
46	2139760	1715184
47	2095056	1676496
48	2139056	1680320
49	2068912	1655824
50	1968944	1573664
51	1902720	1552672
52	2060560	1762144
53	2263408	1916528
54	2219024	1937344
55	2369168	2115056
56	2440928	2201024
57	2378976	2150656
58	2440304	2217968
59	2517392	2325488
60	2356016	2185104
61	2512768	2357024
62	2340880	2197136
63	2395792	2247616
64	4563760	4305360
66	4789968	4559968
68	4625232	4409840
70	4715536	4562448
72	4873232	4669616
74	5029312	4817952
76	4965968	4722640
78	4847440	4614896
80	5108800	4861504
82	5437728	5153488
84	5596624	5273248
86	5480720	5163504
88	5800480	5452048
90	5941136	5630128
92	6062800	5735200
94	6129504	5752656
96	6616160	6149296
98	7084208	6430672
100	7606112	6826864
102	7912928	6977056
104	8199008	7230992
106	7974880	7031696
108	7660544	6780464
110	7447152	6600736
112	6579056	5832336
114	5336704	4764304
116	4113984	3692480
118	3261552	2906384
120	2679040	2406688
122	2111744	1865568
124	1736080	1503808
126	1425728	1258704
128	2131696	1865904
132	1567840	1408816
136	1166736	1054928
140	977520	914448
144	821856	784352
148	665792	612912
152	620112	571280
156	503984	477264
160	485184	431056
164	411184	354848
168	361824	348448
172	380272	352912
176	351632	320352
180	326688	310688
184	325056	311952
188	359072	340128
192	295920	287888
196	299248	297408
200	314480	314096
204	340352	339488
208	418912	417360
212	357968	357920
216	256256	254976
220	203232	199328
224	162400	158672
228	142208	128512
232	104368	88384
236	78464	70800
240	74992	69408
244	54864	52128
248	43856	42320
252	26144	26144
256	34800	34016
264	24928	23264
272	20800	19088
280	15792	14848
288	10592	10576
296	4848	4848
304	2368	2128
312	3632	2112
320	3232	480
328	960	320
336	272	272
344	576	544
352	1392	464
360	2128	960
368	624	624
376	784	784
384	3728	2832
392	4880	3264
400	7072	6688
408	3744	3744
416	12736	12032
424	7120	6064
432	4480	3888
440	6240	5232
448	7392	7392
456	8672	8672
464	17216	17216
472	26336	26336
480	24128	24128
488	19616	19616
496	24192	24192
504	24048	24048
512	67904	67904
528	48000	48000
544	54048	54048
560	81472	81472
576	117056	117056
592	106752	106752
608	71376	71376
624	22992	22496
640	5472	5472
656	20112	20112
672	49376	48800
688	45600	45600
704	20864	20048
720	21968	20960
736	54736	53552
752	64912	63392
768	41248	41040
784	23232	21344
800	19440	19440
816	65248	65248
832	86256	85200
848	24672	24672
864	8176	7456
880	10224	10224
896	12384	12384
912	14224	14224
928	13344	13344
944	12384	12384
960	27184	27184
976	31504	31504
992	35904	35904
1008	33472	33472
1024	67888	67888
1056	191568	191568
1088	138720	138720
1120	112800	112800
1152	47120	47120
1184	106944	106944
1216	109600	109600
1248	89632	89632
1280	287584	287584
1312	398432	398416
1344	68704	68512
1376	506416	506416
1408	408976	408912
1440	12448	12448
1472	800	800
1504	256	256
1536	32	32
1568	0	0
1600	0	0
1632	64	64
1664	64	64
1696	192	192
1728	208	208
1760	688	688
1792	6160	6160
1824	29168	29168
1856	66880	66880
1888	99664	99664
1920	169360	169360
1952	305840	305840
1984	446112	446112
2016	433984	433984
2048	511440	510736
2112	340192	340192
2176	143712	143712
2240	17744	17744
2304	128	128
2368	0	0
2432	0	0
2496	0	0
2560	0	0
2624	0	0
2688	0	0
2752	0	0
2816	0	0
2880	0	0
2944	0	0
3008	0	0
3072	0	0
3136	912	912
3200	0	0
3264	0	0
3328	0	0
3392	0	0
3456	1264	0
3520	0	0
3584	0	0
3648	960	0
3712	0	0
3776	0	0
3840	0	0
3904	1392	0
3968	3888	864
4032	1856	0
4096	3472	1008
4224	464	464
4352	2608	880
4480	6048	5328
4608	2448	2448
4736	144	144
4864	0	0
4992	0	0
5120	0	0
5248	16	16
5376	16	0
5504	144	144
5632	0	0
5760	64	32
5888	1344	1344
6016	2048	16
6144	7744	720
6272	19408	13584
6400	8800	8784
6528	14528	14528
6656	18960	18928
6784	14080	14080
6912	5872	5872
7040	5040	5040
7168	3888	3888
7296	4816	4800
7424	7984	7984
7552	3360	3360
7680	1440	1440
7808	288	288
7936	10128	10128
8064	736	704
8192	46944	46912
8448	16	16
8704	16	16
8960	7216	7184
9216	58944	58880
9472	3280	3264
9728	48	32
9984	0	0
10240	16	0
10496	64	16
10752	32	0
11008	16	0
11264	0	0
11520	16	16
11776	32	16
12032	0	0
12288	48	16
12544	32	16
12800	16	0
13056	0	0
13312	32	16
13568	48	0
13824	80	80
14080	48	16
14336	18400	18368
14592	3584	3584
14848	18976	18960
15104	27264	27264
15360	64	32
15616	32	16
15872	16	0
16128	32	0
16384	48	16
16896	16	0
17408	16	0
17920	16	0
18432	48	0
18944	48	0
19456	64	0
19968	32	16
20480	32	0
20992	48	0
21504	5280	5280
22016	647648	647584
22528	1359808	1359760
23040	231808	231776
23552	43200	43168
24064	560	560
24576	48	0
25088	112	0
25600	48	16
26112	48	0
26624	48	0
27136	0	0
27648	64	16
28160	32	0
28672	32	0
29184	16	0
29696	32	16
30208	80	32
30720	432	48
31232	512	0
31744	640	48
32256	512	32
32768	992	16
33792	1152	64
34816	896	32
35840	1184	64
36864	1184	80
37888	1040	32
38912	1136	128
39936	1136	64
40960	1120	64
41984	992	96
43008	976	48
44032	976	32
45056	912	80
46080	928	32
47104	1248	48
48128	1072	112
49152	976	48
50176	1232	176
51200	1392	144
52224	1104	48
53248	1136	48
54272	1232	64
55296	1056	144
56320	1200	256
57344	1264	240
58368	1088	272
59392	1376	192
60416	1024	96
61440	1280	144
62464	1376	64
63488	1184	176
64512	1200	96
65536	2208	208
67584	1952	304
69632	2896	1136
71680	2592	448
73728	2352	160
75776	1600	144
77824	592	144
79872	896	192
81920	1440	480
83968	1296	336
86016	1008	256
88064	960	336
90112	928	320
92160	1760	1232
94208	1552	832
96256	1040	176
98304	928	160
100352	768	240
102400	1232	288
104448	832	240
106496	1024	320
108544	816	384
110592	656	288
112640	912	416
114688	720	416
116736	864	656
118784	400	224
120832	464	368
122880	656	480
124928	416	304
126976	352	256
129024	656	496
131072	1520	1152
135168	1392	848
139264	2880	2272
143360	848	480
147456	1072	496
151552	912	496
155648	1424	816
159744	1408	576
163840	1504	768
167936	1696	1120
172032	752	512
176128	1104	800
180224	1296	1056
184320	2064	1536
188416	976	592
192512	1008	576
196608	880	384
200704	1072	640
204800	944	800
208896	1472	976
212992	1536	816
217088	1248	1072
221184	960	752
225280	1072	800
229376	23648	23456
233472	44848	44640
237568	1392	896
241664	1088	432
245760	1728	944
249856	4912	4160
253952	158352	158048
258048	64544	64224
262144	2992	1616
270336	60400	59296
278528	125696	124832
286720	1280	832
294912	29808	28784
303104	244560	243792
311296	63360	62768
319488	282288	281760
327680	296544	295824
335872	2512	720
344064	2128	1184
352256	1504	768
360448	1968	1360
368640	2144	1504
376832	2432	1648
385024	2000	1344
393216	2912	2064
401408	1584	800
409600	3040	1152
417792	1440	880
425984	62640	61536
434176	2301904	2300832
442368	2336	1232
450560	1360	848
458752	1296	896
466944	1584	1008
475136	1984	768
483328	2576	1536
491520	1072	288
499712	1152	752
507904	2928	1808
516096	2784	1552
524288	3264	1680
540672	3664	1312
557056	3344	1984
573440	3200	1696
589824	3952	1840
606208	3232	1744
622592	3216	1664
638976	2912	1728
655360	3120	1104
671744	4112	2624
688128	3232	1456
704512	3504	1888
720896	2656	1824
737280	3840	1648
753664	2544	1376
770048	3344	1584
786432	2608	1184
802816	2832	1536
819200	2960	1872
835584	2816	1680
851968	2816	1200
868352	3280	1648
884736	1632	848
901120	912	320
917504	992	96
933888	528	96
950272	336	48
966656	208	96
983040	112	80
999424	64	32
1015808	16	16
1032192	48	48
1048576	176	176
1081344	64	64
1114112	96	96
1146880	64	64
1179648	64	64
1212416	80	80
1245184	32	32
1277952	32	32
1310720	64	64
1343488	48	32
1376256	208	48
1409024	7168	6496
1441792	1488	816
1474560	1616	896
1507328	1424	720
1540096	1392	752
1572864	1408	752
1605632	1712	976
1638400	1536	848
1671168	1744	1088
1703936	1392	736
1736704	1952	1280
1769472	1472	752
1802240	1712	1024
1835008	1584	880
1867776	1616	928
1900544	1696	960
1933312	2176	1440
1966080	2496	1632
1998848	2592	1408
2031616	3136	1600
2064384	3312	1968
2097152	1744	464
2162688	784	512
2228224	288	288
2293760	480	480
2359296	320	320
2424832	368	368
2490368	448	448
2555904	416	416
2621440	512	512
2686976	512	512
2752512	448	448
2818048	640	640
2883584	512	512
2949120	416	416
3014656	464	464
3080192	416	416
3145728	640	640
3211264	592	592
3276800	384	384
3342336	352	352
3407872	272	272
3473408	480	480
3538944	400	400
3604480	400	400
3670016	496	496
3735552	288	288
3801088	256	256
3866624	560	560
3932160	336	336
3997696	560	560
4063232	368	368
4128768	576	576
4194304	960	960
4325376	816	816
4456448	992	992
4587520	2064	2064
4718592	2176	2176
4849664	248080	248080
4980736	480	480
5111808	448	448
5242880	384	384
5373952	1248	1248
5505024	896	896
5636096	1232	1232
5767168	1072	1072
5898240	2080	2080
6029312	3008	3008
6160384	3216	3216
6291456	1872	1872
6422528	1392	1392
6553600	1168	1168
6684672	1120	1120
6815744	1488	1488
6946816	3616	3616
7077888	3712	3712
7208960	3648	3648
7340032	2080	2080
7471104	2064	2064
7602176	1840	1840
7733248	1664	1664
7864320	2000	2000
7995392	2032	2032
8126464	1920	1920
8257536	1680	1680
8388608	3712	3712
8650752	3728	3728
8912896	3536	3536
9175040	3744	3744
9437184	3840	3840
9699328	3280	3280
9961472	3360	3360
10223616	3584	3584
10485760	3792	3792
10747904	3680	3680
11010048	3376	3376
11272192	3872	3872
11534336	3488	3488
11796480	4096	4096
12058624	3776	3776
12320768	3760	3760
12582912	3664	3664
12845056	3520	3520
13107200	3888	3888
13369344	3344	3344
13631488	3952	3952
13893632	3552	3552
14155776	3440	3440
14417920	3600	3600
14680064	4272	4272
14942208	3888	3888
15204352	4080	4080
15466496	3712	3712
15728640	4032	4032
15990784	4016	4016
16252928	4368	4368
16515072	4256	4256
16777216	7712	7712
17301504	8240	8240
17825792	7808	7808
18350080	8752	8752
18874368	7856	7856
19398656	8720	8720
19922944	8016	8016
20447232	8144	8144
20971520	8416	8416
21495808	7552	7552
22020096	8336	8336
22544384	6672	6672
23068672	7168	7168
23592960	7504	7504
24117248	6864	6864
24641536	6992	6992
25165824	6848	6848
25690112	7456	7456
26214400	7280	7280
26738688	6800	6800
27262976	6912	6912
27787264	7008	7008
28311552	6880	6880
28835840	7184	7184
29360128	7632	7632
29884416	7184	7184
30408704	6784	6784
30932992	6880	6880
31457280	6944	6944
31981568	7152	7152
32505856	7104	7104
33030144	6672	6672
33554432	13296	13296
34603008	13728	13728
35651584	14080	14080
36700160	13984	13984
37748736	13552	13552
38797312	13952	13952
39845888	14224	14224
40894464	14032	14032
41943040	13696	13696
42991616	14512	14512
44040192	13776	13776
45088768	15040	15040
46137344	13088	13088
47185920	13504	13504
48234496	13424	13424
49283072	14208	14208
50331648	13856	13856
51380224	14304	14304
52428800	14256	14256
53477376	13280	13280
54525952	14608	14608
55574528	13648	13648
56623104	14864	14864
57671680	13792	13792
58720256	13600	13600
59768832	13840	13840
60817408	14848	14848
61865984	15296	15296
62914560	13872	13872
63963136	15312	15312
65011712	14208	14208
66060288	14496	14496
67108864	36416	36416
69206016	37552	37552
71303168	37216	37216
73400320	36464	36464
75497472	34016	34016
77594624	141840	141840
79691776	68432	68432
81788928	35952	35952
83886080	24528	24528
85983232	29600	29600
88080384	28448	28448
90177536	23040	23040
92274688	20816	20816
94371840	10992	10992
96468992	4912	4912
98566144	3712	3712
100663296	2640	2640
102760448	1328	1328
104857600	1312	1312
106954752	1424	1424
109051904	1104	1104
111149056	1264	1264
113246208	1216	1216
115343360	1440	1440
117440512	1504	1504
119537664	1376	1376
121634816	1488	1488
123731968	1328	1328
125829120	1104	1104
127926272	1328	1328
130023424	1328	1328
132120576	2848	2848
134217728	8384	8384
138412032	11760	11760
142606336	12112	12112
146800640	15088	15088
150994944	51200	51200
155189248	47568	47568
159383552	46256	46256
163577856	45408	45408
167772160	42640	42640
171966464	10624	10624
176160768	944	944
180355072	1968	1968
184549376	1936	1936
188743680	1984	1984
192937984	1776	1776
197132288	2768	2768
201326592	2976	2976
205520896	3040	3040
209715200	7328	7328
213909504	5184	5184
218103808	6160	6160
222298112	4144	4144
226492416	3248	3248
230686720	3408	3408
234881024	2400	2400
239075328	2384	2384
243269632	2304	2304
247463936	3584	3584
251658240	2880	2864
255852544	2592	2592
260046848	2832	2832
264241152	2704	2704
268435456	5744	5744
276824064	7184	7184
285212672	7056	7056
293601280	21280	21280
301989888	5648	5648
310378496	5424	5424
318767104	2000	2000
327155712	1168	1152
335544320	12480	12480
343932928	84032	84032
352321536	101296	101296
360710144	83056	83056
369098752	20864	20864
377487360	18288	18288
385875968	11456	11456
394264576	11920	11920
402653184	11328	11328
411041792	11168	11168
419430400	11136	11136
427819008	152160	152160
436207616	113072	113072
444596224	9200	9200
452984832	2288	2288
461373440	2432	2432
469762048	2384	2384
478150656	1984	1984
486539264	2400	2400
494927872	2384	2384
503316480	127648	127648
511705088	689296	689296
520093696	928	928
528482304	848	848
536870912	1728	1728
553648128	1504	1504
570425344	1184	1184
587202560	192	192
603979776	0	0
620756992	0	0
637534208	0	0
654311424	0	0
671088640	0	0
687865856	0	0
704643072	0	0
721420288	0	0
738197504	0	0
754974720	0	0
771751936	0	0
788529152	0	0
805306368	0	0
822083584	0	0
838860800	0	0
855638016	0	0
872415232	0	0
889192448	0	0
905969664	0	0
922746880	0	0
939524096	0	0
956301312	0	0
973078528	0	0
989855744	0	0
1006632960	0	0
1023410176	0	0
1040187392	0	0
1056964608	0	0
1073741824	0	0
1107296256	0	0
1140850688	0	0
1174405120	0	0
1207959552	0	0
1241513984	0	0
1275068416	0	0
1308622848	0	0
1342177280	0	0
1375731712	0	0
1409286144	0	0
1442840576	0	0
1476395008	0	0
1509949440	0	0
1543503872	0	0
1577058304	0	0
1610612736	0	0
1644167168	0	0
1677721600	0	0
1711276032	0	0
1744830464	0	0
1778384896	0	0
1811939328	0	0
1845493760	0	0
1879048192	0	0
1912602624	0	0
1946157056	0	0
1979711488	0	0
2013265920	0	0
2046820352	0	0
2080374784	0	0
2113929216	0	0
2147483648	0	0
2214592512	0	0
2281701376	0	0
2348810240	0	0
2415919104	0	0
2483027968	0	0
2550136832	0	0
2617245696	0	0
2684354560	0	0
2751463424	0	0
2818572288	0	0
2885681152	0	0
2952790016	0	0
3019898880	0	0
3087007744	0	0
3154116608	0	0
3221225472	0	0
3288334336	0	0
3355443200	0	0
3422552064	0	0
3489660928	0	0
3556769792	0	0
3623878656	0	0
3690987520	0	0
3758096384	0	0
3825205248	0	0
3892314112	0	0
3959422976	0	0
4026531840	0	0
4093640704	0	0
4160749568	0	0
4227858432	0	0
~~~~~~~~~~Reuse Distance Profiler output end~~~~~~~~~~

Sampler size:730939

DRAM Statistics
 CHANNEL 0
 RQ ROW_BUFFER_HIT:      64992  ROW_BUFFER_MISS:   15566731
 DBUS AVG_CONGESTED_CYCLE:    3.98627
 WQ ROW_BUFFER_HIT:     485794  ROW_BUFFER_MISS:    7705750  FULL:          0


CPU 0 Branch Prediction Accuracy: 94.9715% MPKI: 0.928899 Average ROB Occupancy at Mispredict: 129.318
Branch type MPKI
BRANCH_DIRECT_JUMP: 5e-05
BRANCH_INDIRECT: 1.33333e-06
BRANCH_CONDITIONAL: 0.928693
BRANCH_DIRECT_CALL: 8e-05
BRANCH_INDIRECT_CALL: 0
BRANCH_RETURN: 7.46667e-05

