
*** ChampSim Multicore Out-of-Order Simulator ***

Warmup Instructions: 50000000
Simulation Instructions: 1500000000
Number of CPUs: 1
Off-chip DRAM Size: 4 GiB Channels: 1 Width: 64-bit Data Rate: 3200 MT/s

VirtualMemory physical capacity: 8588881920 num_ppages: 2096895
VirtualMemory page size: 4096 log2_page_size: 12

CPU 0 runs /s/traces/champsim_traces/473.astar-359B.champsimtrace.xz
CPU 0 Bimodal branch predictor
Basic BTB sets: 1024 ways: 8 indirect buffer size: 4096 RAS size: 64
Initializing LRU.
Initializing LRU.
Initializing LRU.
Initializing LRU.
Initializing rdLRU.
Initializing LRU.
Heartbeat CPU 0 instructions: 2000003 cycles: 700237 heartbeat IPC: 2.85618 cumulative IPC: 2.85618 (Simulation time: 0 hr 1 min 24 sec) 
Heartbeat CPU 0 instructions: 4000001 cycles: 1434884 heartbeat IPC: 2.72239 cumulative IPC: 2.78768 (Simulation time: 0 hr 2 min 51 sec) 
Heartbeat CPU 0 instructions: 6000003 cycles: 2169512 heartbeat IPC: 2.72247 cumulative IPC: 2.7656 (Simulation time: 0 hr 4 min 23 sec) 
Heartbeat CPU 0 instructions: 8000003 cycles: 2868326 heartbeat IPC: 2.86199 cumulative IPC: 2.78908 (Simulation time: 0 hr 5 min 57 sec) 
Heartbeat CPU 0 instructions: 10000000 cycles: 3578138 heartbeat IPC: 2.81764 cumulative IPC: 2.79475 (Simulation time: 0 hr 7 min 33 sec) 
Heartbeat CPU 0 instructions: 12000003 cycles: 4301769 heartbeat IPC: 2.76384 cumulative IPC: 2.78955 (Simulation time: 0 hr 9 min 12 sec) 
Heartbeat CPU 0 instructions: 14000001 cycles: 5001730 heartbeat IPC: 2.8573 cumulative IPC: 2.79903 (Simulation time: 0 hr 10 min 43 sec) 
Heartbeat CPU 0 instructions: 16000004 cycles: 5736186 heartbeat IPC: 2.72311 cumulative IPC: 2.78931 (Simulation time: 0 hr 12 min 20 sec) 
Heartbeat CPU 0 instructions: 18000000 cycles: 6471224 heartbeat IPC: 2.72094 cumulative IPC: 2.78154 (Simulation time: 0 hr 14 min 2 sec) 
Heartbeat CPU 0 instructions: 20000003 cycles: 7205965 heartbeat IPC: 2.72205 cumulative IPC: 2.77548 (Simulation time: 0 hr 15 min 43 sec) 
Heartbeat CPU 0 instructions: 22000001 cycles: 7905307 heartbeat IPC: 2.85983 cumulative IPC: 2.78294 (Simulation time: 0 hr 17 min 16 sec) 
Heartbeat CPU 0 instructions: 24000000 cycles: 8605497 heartbeat IPC: 2.85637 cumulative IPC: 2.78892 (Simulation time: 0 hr 18 min 50 sec) 
Heartbeat CPU 0 instructions: 26000003 cycles: 9339349 heartbeat IPC: 2.72535 cumulative IPC: 2.78392 (Simulation time: 0 hr 20 min 29 sec) 
Heartbeat CPU 0 instructions: 28000003 cycles: 10038163 heartbeat IPC: 2.86199 cumulative IPC: 2.78936 (Simulation time: 0 hr 21 min 56 sec) 
Heartbeat CPU 0 instructions: 30000003 cycles: 10772274 heartbeat IPC: 2.72438 cumulative IPC: 2.78493 (Simulation time: 0 hr 23 min 35 sec) 
Heartbeat CPU 0 instructions: 32000003 cycles: 11471749 heartbeat IPC: 2.85929 cumulative IPC: 2.78946 (Simulation time: 0 hr 25 min 5 sec) 
Heartbeat CPU 0 instructions: 34000000 cycles: 12172377 heartbeat IPC: 2.85458 cumulative IPC: 2.79321 (Simulation time: 0 hr 26 min 39 sec) 
Heartbeat CPU 0 instructions: 36000004 cycles: 12907209 heartbeat IPC: 2.72172 cumulative IPC: 2.78914 (Simulation time: 0 hr 28 min 18 sec) 
Heartbeat CPU 0 instructions: 38000000 cycles: 13641579 heartbeat IPC: 2.72342 cumulative IPC: 2.7856 (Simulation time: 0 hr 29 min 53 sec) 
Heartbeat CPU 0 instructions: 40000001 cycles: 14344964 heartbeat IPC: 2.84339 cumulative IPC: 2.78843 (Simulation time: 0 hr 31 min 19 sec) 
Heartbeat CPU 0 instructions: 42000004 cycles: 15074417 heartbeat IPC: 2.74178 cumulative IPC: 2.78618 (Simulation time: 0 hr 32 min 50 sec) 
Heartbeat CPU 0 instructions: 44000003 cycles: 15809464 heartbeat IPC: 2.72091 cumulative IPC: 2.78314 (Simulation time: 0 hr 34 min 22 sec) 
Heartbeat CPU 0 instructions: 46000000 cycles: 16508852 heartbeat IPC: 2.85964 cumulative IPC: 2.78638 (Simulation time: 0 hr 35 min 50 sec) 
Heartbeat CPU 0 instructions: 48000000 cycles: 17208230 heartbeat IPC: 2.85968 cumulative IPC: 2.78936 (Simulation time: 0 hr 37 min 16 sec) 
Heartbeat CPU 0 instructions: 50000004 cycles: 17943377 heartbeat IPC: 2.72055 cumulative IPC: 2.78654 (Simulation time: 0 hr 38 min 52 sec) 

Warmup complete CPU 0 instructions: 50000004 cycles: 17943377 (Simulation time: 0 hr 38 min 52 sec) 

Heartbeat CPU 0 instructions: 52000003 cycles: 28407833 heartbeat IPC: 0.191123 cumulative IPC: 0.191123 (Simulation time: 0 hr 41 min 31 sec) 

Region of Interest Statistics
cpu0_DTLB TOTAL     ACCESS:     665540  HIT:     612434  MISS:      53106
cpu0_DTLB LOAD      ACCESS:     501192  HIT:     448213  MISS:      52979
cpu0_DTLB RFO       ACCESS:     164348  HIT:     164221  MISS:        127
cpu0_DTLB PREFETCH  ACCESS:          0  HIT:          0  MISS:          0
cpu0_DTLB WRITEBACK ACCESS:          0  HIT:          0  MISS:          0
cpu0_ITLB TOTAL     ACCESS:     252532  HIT:     252532  MISS:          0
cpu0_ITLB LOAD      ACCESS:     252532  HIT:     252532  MISS:          0
cpu0_ITLB RFO       ACCESS:          0  HIT:          0  MISS:          0
cpu0_ITLB PREFETCH  ACCESS:          0  HIT:          0  MISS:          0
cpu0_ITLB WRITEBACK ACCESS:          0  HIT:          0  MISS:          0
cpu0_STLB TOTAL     ACCESS:      53106  HIT:      34470  MISS:      18636
cpu0_STLB LOAD      ACCESS:      52979  HIT:      34356  MISS:      18623
cpu0_STLB RFO       ACCESS:        127  HIT:        114  MISS:         13
cpu0_STLB PREFETCH  ACCESS:          0  HIT:          0  MISS:          0
cpu0_STLB WRITEBACK ACCESS:          0  HIT:          0  MISS:          0
cpu0_L1D TOTAL     ACCESS:     778771  HIT:     704087  MISS:      74684
cpu0_L1D LOAD      ACCESS:     510705  HIT:     438199  MISS:      72506
cpu0_L1D RFO       ACCESS:     249459  HIT:     247462  MISS:       1997
cpu0_L1D PREFETCH  ACCESS:          0  HIT:          0  MISS:          0
cpu0_L1D WRITEBACK ACCESS:          0  HIT:          0  MISS:          0
cpu0_L2C TOTAL     ACCESS:      94855  HIT:      53554  MISS:      41301
cpu0_L2C LOAD      ACCESS:      72505  HIT:      31271  MISS:      41234
cpu0_L2C RFO       ACCESS:       1997  HIT:       1946  MISS:         51
cpu0_L2C PREFETCH  ACCESS:          0  HIT:          0  MISS:          0
cpu0_L2C WRITEBACK ACCESS:      20172  HIT:      20171  MISS:          1
LLC TOTAL     ACCESS:      59473  HIT:      19082  MISS:      40391
LLC LOAD      ACCESS:      41234  HIT:       1630  MISS:      39604
LLC RFO       ACCESS:         51  HIT:          1  MISS:         50
LLC PREFETCH  ACCESS:          0  HIT:          0  MISS:          0
LLC WRITEBACK ACCESS:      18173  HIT:      17437  MISS:        736
Heartbeat CPU 0 instructions: 54000000 cycles: 42225407 heartbeat IPC: 0.144743 cumulative IPC: 0.164731 (Simulation time: 0 hr 48 min 28 sec) 

Region of Interest Statistics
cpu0_DTLB TOTAL     ACCESS:    1285657  HIT:    1152333  MISS:     133324
cpu0_DTLB LOAD      ACCESS:     951799  HIT:     858056  MISS:      93743
cpu0_DTLB RFO       ACCESS:     333858  HIT:     294277  MISS:      39581
cpu0_DTLB PREFETCH  ACCESS:          0  HIT:          0  MISS:          0
cpu0_DTLB WRITEBACK ACCESS:          0  HIT:          0  MISS:          0
cpu0_ITLB TOTAL     ACCESS:     453880  HIT:     453880  MISS:          0
cpu0_ITLB LOAD      ACCESS:     453880  HIT:     453880  MISS:          0
cpu0_ITLB RFO       ACCESS:          0  HIT:          0  MISS:          0
cpu0_ITLB PREFETCH  ACCESS:          0  HIT:          0  MISS:          0
cpu0_ITLB WRITEBACK ACCESS:          0  HIT:          0  MISS:          0
cpu0_L1I TOTAL     ACCESS:          2  HIT:          2  MISS:          0
cpu0_L1I LOAD      ACCESS:          2  HIT:          2  MISS:          0
cpu0_L1I RFO       ACCESS:          0  HIT:          0  MISS:          0
cpu0_L1I PREFETCH  ACCESS:          0  HIT:          0  MISS:          0
cpu0_L1I WRITEBACK ACCESS:          0  HIT:          0  MISS:          0
cpu0_STLB TOTAL     ACCESS:     133324  HIT:      64360  MISS:      68964
cpu0_STLB LOAD      ACCESS:      93743  HIT:      60924  MISS:      32819
cpu0_STLB RFO       ACCESS:      39581  HIT:       3436  MISS:      36145
cpu0_STLB PREFETCH  ACCESS:          0  HIT:          0  MISS:          0
cpu0_STLB WRITEBACK ACCESS:          0  HIT:          0  MISS:          0
cpu0_L1D TOTAL     ACCESS:    1496464  HIT:    1297870  MISS:     198594
cpu0_L1D LOAD      ACCESS:     937738  HIT:     809570  MISS:     128168
cpu0_L1D RFO       ACCESS:     506705  HIT:     436680  MISS:      70025
cpu0_L1D PREFETCH  ACCESS:          0  HIT:          0  MISS:          0
cpu0_L1D WRITEBACK ACCESS:          0  HIT:          0  MISS:          0
cpu0_L2C TOTAL     ACCESS:     300246  HIT:     151947  MISS:     148299
cpu0_L2C LOAD      ACCESS:     128166  HIT:      46638  MISS:      81528
cpu0_L2C RFO       ACCESS:      70025  HIT:       3329  MISS:      66696
cpu0_L2C PREFETCH  ACCESS:          0  HIT:          0  MISS:          0
cpu0_L2C WRITEBACK ACCESS:     101654  HIT:     101635  MISS:         19
LLC TOTAL     ACCESS:     246936  HIT:     101879  MISS:     145057
LLC LOAD      ACCESS:      81528  HIT:       2975  MISS:      78553
LLC RFO       ACCESS:      66695  HIT:       5755  MISS:      60940
LLC PREFETCH  ACCESS:          0  HIT:          0  MISS:          0
LLC WRITEBACK ACCESS:      98657  HIT:      93101  MISS:       5556
Heartbeat CPU 0 instructions: 56000001 cycles: 52954525 heartbeat IPC: 0.186409 cumulative IPC: 0.171374 (Simulation time: 0 hr 51 min 13 sec) 

Region of Interest Statistics
cpu0_DTLB TOTAL     ACCESS:    1942837  HIT:    1755771  MISS:     187066
cpu0_DTLB LOAD      ACCESS:    1444830  HIT:    1297455  MISS:     147375
cpu0_DTLB RFO       ACCESS:     498007  HIT:     458316  MISS:      39691
cpu0_DTLB PREFETCH  ACCESS:          0  HIT:          0  MISS:          0
cpu0_DTLB WRITEBACK ACCESS:          0  HIT:          0  MISS:          0
cpu0_ITLB TOTAL     ACCESS:     708669  HIT:     708669  MISS:          0
cpu0_ITLB LOAD      ACCESS:     708669  HIT:     708669  MISS:          0
cpu0_ITLB RFO       ACCESS:          0  HIT:          0  MISS:          0
cpu0_ITLB PREFETCH  ACCESS:          0  HIT:          0  MISS:          0
cpu0_ITLB WRITEBACK ACCESS:          0  HIT:          0  MISS:          0
cpu0_L1I TOTAL     ACCESS:          2  HIT:          2  MISS:          0
cpu0_L1I LOAD      ACCESS:          2  HIT:          2  MISS:          0
cpu0_L1I RFO       ACCESS:          0  HIT:          0  MISS:          0
cpu0_L1I PREFETCH  ACCESS:          0  HIT:          0  MISS:          0
cpu0_L1I WRITEBACK ACCESS:          0  HIT:          0  MISS:          0
cpu0_STLB TOTAL     ACCESS:     187067  HIT:     100520  MISS:      86547
cpu0_STLB LOAD      ACCESS:     147376  HIT:      96980  MISS:      50396
cpu0_STLB RFO       ACCESS:      39691  HIT:       3540  MISS:      36151
cpu0_STLB PREFETCH  ACCESS:          0  HIT:          0  MISS:          0
cpu0_STLB WRITEBACK ACCESS:          0  HIT:          0  MISS:          0
cpu0_L1D TOTAL     ACCESS:    2273744  HIT:    2003346  MISS:     270398
cpu0_L1D LOAD      ACCESS:    1447964  HIT:    1250022  MISS:     197942
cpu0_L1D RFO       ACCESS:     756182  HIT:     684286  MISS:      71896
cpu0_L1D PREFETCH  ACCESS:          0  HIT:          0  MISS:          0
cpu0_L1D WRITEBACK ACCESS:          0  HIT:          0  MISS:          0
cpu0_L2C TOTAL     ACCESS:     392126  HIT:     202554  MISS:     189572
cpu0_L2C LOAD      ACCESS:     197940  HIT:      75187  MISS:     122753
cpu0_L2C RFO       ACCESS:      71896  HIT:       5166  MISS:      66730
cpu0_L2C PREFETCH  ACCESS:          0  HIT:          0  MISS:          0
cpu0_L2C WRITEBACK ACCESS:     121730  HIT:     121711  MISS:         19
LLC TOTAL     ACCESS:     305833  HIT:     119383  MISS:     186450
LLC LOAD      ACCESS:     122753  HIT:       3845  MISS:     118908
LLC RFO       ACCESS:      66729  HIT:       5755  MISS:      60974
LLC PREFETCH  ACCESS:          0  HIT:          0  MISS:          0
LLC WRITEBACK ACCESS:     116281  HIT:     109721  MISS:       6560
Heartbeat CPU 0 instructions: 58000002 cycles: 67047366 heartbeat IPC: 0.141916 cumulative IPC: 0.16292 (Simulation time: 0 hr 58 min 9 sec) 

Region of Interest Statistics
cpu0_DTLB TOTAL     ACCESS:    2557989  HIT:    2290583  MISS:     267406
cpu0_DTLB LOAD      ACCESS:    1890427  HIT:    1701861  MISS:     188566
cpu0_DTLB RFO       ACCESS:     667562  HIT:     588722  MISS:      78840
cpu0_DTLB PREFETCH  ACCESS:          0  HIT:          0  MISS:          0
cpu0_DTLB WRITEBACK ACCESS:          0  HIT:          0  MISS:          0
cpu0_ITLB TOTAL     ACCESS:     912623  HIT:     912623  MISS:          0
cpu0_ITLB LOAD      ACCESS:     912623  HIT:     912623  MISS:          0
cpu0_ITLB RFO       ACCESS:          0  HIT:          0  MISS:          0
cpu0_ITLB PREFETCH  ACCESS:          0  HIT:          0  MISS:          0
cpu0_ITLB WRITEBACK ACCESS:          0  HIT:          0  MISS:          0
cpu0_L1I TOTAL     ACCESS:          4  HIT:          4  MISS:          0
cpu0_L1I LOAD      ACCESS:          4  HIT:          4  MISS:          0
cpu0_L1I RFO       ACCESS:          0  HIT:          0  MISS:          0
cpu0_L1I PREFETCH  ACCESS:          0  HIT:          0  MISS:          0
cpu0_L1I WRITEBACK ACCESS:          0  HIT:          0  MISS:          0
cpu0_STLB TOTAL     ACCESS:     267406  HIT:     128570  MISS:     138836
cpu0_STLB LOAD      ACCESS:     188566  HIT:     121805  MISS:      66761
cpu0_STLB RFO       ACCESS:      78840  HIT:       6765  MISS:      72075
cpu0_STLB PREFETCH  ACCESS:          0  HIT:          0  MISS:          0
cpu0_STLB WRITEBACK ACCESS:          0  HIT:          0  MISS:          0
cpu0_L1D TOTAL     ACCESS:    2994644  HIT:    2589162  MISS:     405482
cpu0_L1D LOAD      ACCESS:    1877392  HIT:    1611943  MISS:     265449
cpu0_L1D RFO       ACCESS:    1012126  HIT:     872899  MISS:     139227
cpu0_L1D PREFETCH  ACCESS:          0  HIT:          0  MISS:          0
cpu0_L1D WRITEBACK ACCESS:          0  HIT:          0  MISS:          0
cpu0_L2C TOTAL     ACCESS:     607710  HIT:     312259  MISS:     295451
cpu0_L2C LOAD      ACCESS:     265447  HIT:     101984  MISS:     163463
cpu0_L2C RFO       ACCESS:     139227  HIT:       7365  MISS:     131862
cpu0_L2C PREFETCH  ACCESS:          0  HIT:          0  MISS:          0
cpu0_L2C WRITEBACK ACCESS:     202230  HIT:     202208  MISS:         22
LLC TOTAL     ACCESS:     486977  HIT:     197007  MISS:     289970
LLC LOAD      ACCESS:     163463  HIT:       4399  MISS:     159064
LLC RFO       ACCESS:     131861  HIT:      11005  MISS:     120856
LLC PREFETCH  ACCESS:          0  HIT:          0  MISS:          0
LLC WRITEBACK ACCESS:     191549  HIT:     181512  MISS:      10037
Heartbeat CPU 0 instructions: 60000000 cycles: 77347470 heartbeat IPC: 0.194173 cumulative IPC: 0.168339 (Simulation time: 1 hr 0 min 53 sec) 

Region of Interest Statistics
cpu0_DTLB TOTAL     ACCESS:    3231439  HIT:    2910720  MISS:     320719
cpu0_DTLB LOAD      ACCESS:    2399640  HIT:    2158218  MISS:     241422
cpu0_DTLB RFO       ACCESS:     831799  HIT:     752502  MISS:      79297
cpu0_DTLB PREFETCH  ACCESS:          0  HIT:          0  MISS:          0
cpu0_DTLB WRITEBACK ACCESS:          0  HIT:          0  MISS:          0
cpu0_ITLB TOTAL     ACCESS:    1161394  HIT:    1161394  MISS:          0
cpu0_ITLB LOAD      ACCESS:    1161394  HIT:    1161394  MISS:          0
cpu0_ITLB RFO       ACCESS:          0  HIT:          0  MISS:          0
cpu0_ITLB PREFETCH  ACCESS:          0  HIT:          0  MISS:          0
cpu0_ITLB WRITEBACK ACCESS:          0  HIT:          0  MISS:          0
cpu0_L1I TOTAL     ACCESS:          4  HIT:          4  MISS:          0
cpu0_L1I LOAD      ACCESS:          4  HIT:          4  MISS:          0
cpu0_L1I RFO       ACCESS:          0  HIT:          0  MISS:          0
cpu0_L1I PREFETCH  ACCESS:          0  HIT:          0  MISS:          0
cpu0_L1I WRITEBACK ACCESS:          0  HIT:          0  MISS:          0
cpu0_STLB TOTAL     ACCESS:     320719  HIT:     166900  MISS:     153819
cpu0_STLB LOAD      ACCESS:     241422  HIT:     159897  MISS:      81525
cpu0_STLB RFO       ACCESS:      79297  HIT:       7003  MISS:      72294
cpu0_STLB PREFETCH  ACCESS:          0  HIT:          0  MISS:          0
cpu0_STLB WRITEBACK ACCESS:          0  HIT:          0  MISS:          0
cpu0_L1D TOTAL     ACCESS:    3769849  HIT:    3295891  MISS:     473958
cpu0_L1D LOAD      ACCESS:    2386914  HIT:    2056183  MISS:     330731
cpu0_L1D RFO       ACCESS:    1262924  HIT:    1120691  MISS:     142233
cpu0_L1D PREFETCH  ACCESS:          0  HIT:          0  MISS:          0
cpu0_L1D WRITEBACK ACCESS:          0  HIT:          0  MISS:          0
cpu0_L2C TOTAL     ACCESS:     697734  HIT:     359594  MISS:     338140
cpu0_L2C LOAD      ACCESS:     330729  HIT:     126081  MISS:     204648
cpu0_L2C RFO       ACCESS:     142233  HIT:       8886  MISS:     133347
cpu0_L2C PREFETCH  ACCESS:          0  HIT:          0  MISS:          0
cpu0_L2C WRITEBACK ACCESS:     223778  HIT:     223752  MISS:         26
LLC TOTAL     ACCESS:     552565  HIT:     220816  MISS:     331749
LLC LOAD      ACCESS:     204648  HIT:       6646  MISS:     198002
LLC RFO       ACCESS:     133346  HIT:      11010  MISS:     122336
LLC PREFETCH  ACCESS:          0  HIT:          0  MISS:          0
LLC WRITEBACK ACCESS:     214452  HIT:     203056  MISS:      11396
Heartbeat CPU 0 instructions: 62000000 cycles: 87806875 heartbeat IPC: 0.191215 cumulative IPC: 0.171763 (Simulation time: 1 hr 3 min 32 sec) 

Region of Interest Statistics
cpu0_DTLB TOTAL     ACCESS:    3909346  HIT:    3536020  MISS:     373326
cpu0_DTLB LOAD      ACCESS:    2913288  HIT:    2619387  MISS:     293901
cpu0_DTLB RFO       ACCESS:     996058  HIT:     916633  MISS:      79425
cpu0_DTLB PREFETCH  ACCESS:          0  HIT:          0  MISS:          0
cpu0_DTLB WRITEBACK ACCESS:          0  HIT:          0  MISS:          0
cpu0_ITLB TOTAL     ACCESS:    1410185  HIT:    1410185  MISS:          0
cpu0_ITLB LOAD      ACCESS:    1410185  HIT:    1410185  MISS:          0
cpu0_ITLB RFO       ACCESS:          0  HIT:          0  MISS:          0
cpu0_ITLB PREFETCH  ACCESS:          0  HIT:          0  MISS:          0
cpu0_ITLB WRITEBACK ACCESS:          0  HIT:          0  MISS:          0
cpu0_L1I TOTAL     ACCESS:          4  HIT:          4  MISS:          0
cpu0_L1I LOAD      ACCESS:          4  HIT:          4  MISS:          0
cpu0_L1I RFO       ACCESS:          0  HIT:          0  MISS:          0
cpu0_L1I PREFETCH  ACCESS:          0  HIT:          0  MISS:          0
cpu0_L1I WRITEBACK ACCESS:          0  HIT:          0  MISS:          0
cpu0_STLB TOTAL     ACCESS:     373326  HIT:     201913  MISS:     171413
cpu0_STLB LOAD      ACCESS:     293901  HIT:     194786  MISS:      99115
cpu0_STLB RFO       ACCESS:      79425  HIT:       7127  MISS:      72298
cpu0_STLB PREFETCH  ACCESS:          0  HIT:          0  MISS:          0
cpu0_STLB WRITEBACK ACCESS:          0  HIT:          0  MISS:          0
cpu0_L1D TOTAL     ACCESS:    4547948  HIT:    3995781  MISS:     552167
cpu0_L1D LOAD      ACCESS:    2898342  HIT:    2491864  MISS:     406478
cpu0_L1D RFO       ACCESS:    1512044  HIT:    1367585  MISS:     144459
cpu0_L1D PREFETCH  ACCESS:          0  HIT:          0  MISS:          0
cpu0_L1D WRITEBACK ACCESS:          0  HIT:          0  MISS:          0
cpu0_L2C TOTAL     ACCESS:     796016  HIT:     416618  MISS:     379398
cpu0_L2C LOAD      ACCESS:     406476  HIT:     160599  MISS:     245877
cpu0_L2C RFO       ACCESS:     144459  HIT:      11093  MISS:     133366
cpu0_L2C PREFETCH  ACCESS:          0  HIT:          0  MISS:          0
cpu0_L2C WRITEBACK ACCESS:     243851  HIT:     243825  MISS:         26
LLC TOTAL     ACCESS:     611561  HIT:     237631  MISS:     373930
LLC LOAD      ACCESS:     245877  HIT:       7164  MISS:     238713
LLC RFO       ACCESS:     133365  HIT:      11012  MISS:     122353
LLC PREFETCH  ACCESS:          0  HIT:          0  MISS:          0
LLC WRITEBACK ACCESS:     232190  HIT:     219342  MISS:      12848
Heartbeat CPU 0 instructions: 64000003 cycles: 101470098 heartbeat IPC: 0.146379 cumulative IPC: 0.167611 (Simulation time: 1 hr 10 min 26 sec) 

Region of Interest Statistics
cpu0_DTLB TOTAL     ACCESS:    4545989  HIT:    4093570  MISS:     452419
cpu0_DTLB LOAD      ACCESS:    3380384  HIT:    3046355  MISS:     334029
cpu0_DTLB RFO       ACCESS:    1165605  HIT:    1047215  MISS:     118390
cpu0_DTLB PREFETCH  ACCESS:          0  HIT:          0  MISS:          0
cpu0_DTLB WRITEBACK ACCESS:          0  HIT:          0  MISS:          0
cpu0_ITLB TOTAL     ACCESS:    1608494  HIT:    1608494  MISS:          0
cpu0_ITLB LOAD      ACCESS:    1608494  HIT:    1608494  MISS:          0
cpu0_ITLB RFO       ACCESS:          0  HIT:          0  MISS:          0
cpu0_ITLB PREFETCH  ACCESS:          0  HIT:          0  MISS:          0
cpu0_ITLB WRITEBACK ACCESS:          0  HIT:          0  MISS:          0
cpu0_L1I TOTAL     ACCESS:          6  HIT:          6  MISS:          0
cpu0_L1I LOAD      ACCESS:          6  HIT:          6  MISS:          0
cpu0_L1I RFO       ACCESS:          0  HIT:          0  MISS:          0
cpu0_L1I PREFETCH  ACCESS:          0  HIT:          0  MISS:          0
cpu0_L1I WRITEBACK ACCESS:          0  HIT:          0  MISS:          0
cpu0_STLB TOTAL     ACCESS:     452419  HIT:     233409  MISS:     219010
cpu0_STLB LOAD      ACCESS:     334029  HIT:     223111  MISS:     110918
cpu0_STLB RFO       ACCESS:     118390  HIT:      10298  MISS:     108092
cpu0_STLB PREFETCH  ACCESS:          0  HIT:          0  MISS:          0
cpu0_STLB WRITEBACK ACCESS:          0  HIT:          0  MISS:          0
cpu0_L1D TOTAL     ACCESS:    5264257  HIT:    4578813  MISS:     685444
cpu0_L1D LOAD      ACCESS:    3329129  HIT:    2856116  MISS:     473013
cpu0_L1D RFO       ACCESS:    1766727  HIT:    1555830  MISS:     210897
cpu0_L1D PREFETCH  ACCESS:          0  HIT:          0  MISS:          0
cpu0_L1D WRITEBACK ACCESS:          0  HIT:          0  MISS:          0
cpu0_L2C TOTAL     ACCESS:    1008812  HIT:     524678  MISS:     484134
cpu0_L2C LOAD      ACCESS:     473011  HIT:     186804  MISS:     286207
cpu0_L2C RFO       ACCESS:     210897  HIT:      13159  MISS:     197738
cpu0_L2C PREFETCH  ACCESS:          0  HIT:          0  MISS:          0
cpu0_L2C WRITEBACK ACCESS:     323370  HIT:     323341  MISS:         29
LLC TOTAL     ACCESS:     790705  HIT:     312889  MISS:     477816
LLC LOAD      ACCESS:     286207  HIT:       7545  MISS:     278662
LLC RFO       ACCESS:     197737  HIT:      15085  MISS:     182652
LLC PREFETCH  ACCESS:          0  HIT:          0  MISS:          0
LLC WRITEBACK ACCESS:     306601  HIT:     290123  MISS:      16478
Heartbeat CPU 0 instructions: 66000000 cycles: 112153790 heartbeat IPC: 0.187201 cumulative IPC: 0.169833 (Simulation time: 1 hr 13 min 12 sec) 

Region of Interest Statistics
cpu0_DTLB TOTAL     ACCESS:    5210597  HIT:    4704679  MISS:     505918
cpu0_DTLB LOAD      ACCESS:    3880620  HIT:    3493740  MISS:     386880
cpu0_DTLB RFO       ACCESS:    1329977  HIT:    1210939  MISS:     119038
cpu0_DTLB PREFETCH  ACCESS:          0  HIT:          0  MISS:          0
cpu0_DTLB WRITEBACK ACCESS:          0  HIT:          0  MISS:          0
cpu0_ITLB TOTAL     ACCESS:    1859225  HIT:    1859225  MISS:          0
cpu0_ITLB LOAD      ACCESS:    1859225  HIT:    1859225  MISS:          0
cpu0_ITLB RFO       ACCESS:          0  HIT:          0  MISS:          0
cpu0_ITLB PREFETCH  ACCESS:          0  HIT:          0  MISS:          0
cpu0_ITLB WRITEBACK ACCESS:          0  HIT:          0  MISS:          0
cpu0_L1I TOTAL     ACCESS:          6  HIT:          6  MISS:          0
cpu0_L1I LOAD      ACCESS:          6  HIT:          6  MISS:          0
cpu0_L1I RFO       ACCESS:          0  HIT:          0  MISS:          0
cpu0_L1I PREFETCH  ACCESS:          0  HIT:          0  MISS:          0
cpu0_L1I WRITEBACK ACCESS:          0  HIT:          0  MISS:          0
cpu0_STLB TOTAL     ACCESS:     505918  HIT:     268098  MISS:     237820
cpu0_STLB LOAD      ACCESS:     386880  HIT:     257505  MISS:     129375
cpu0_STLB RFO       ACCESS:     119038  HIT:      10593  MISS:     108445
cpu0_STLB PREFETCH  ACCESS:          0  HIT:          0  MISS:          0
cpu0_STLB WRITEBACK ACCESS:          0  HIT:          0  MISS:          0
cpu0_L1D TOTAL     ACCESS:    6042071  HIT:    5281864  MISS:     760207
cpu0_L1D LOAD      ACCESS:    3836890  HIT:    3293468  MISS:     543422
cpu0_L1D RFO       ACCESS:    2018216  HIT:    1803131  MISS:     215085
cpu0_L1D PREFETCH  ACCESS:          0  HIT:          0  MISS:          0
cpu0_L1D WRITEBACK ACCESS:          0  HIT:          0  MISS:          0
cpu0_L2C TOTAL     ACCESS:    1106249  HIT:     578356  MISS:     527893
cpu0_L2C LOAD      ACCESS:     543420  HIT:     215841  MISS:     327579
cpu0_L2C RFO       ACCESS:     215085  HIT:      14973  MISS:     200112
cpu0_L2C PREFETCH  ACCESS:          0  HIT:          0  MISS:          0
cpu0_L2C WRITEBACK ACCESS:     346044  HIT:     346015  MISS:         29
LLC TOTAL     ACCESS:     858081  HIT:     336883  MISS:     521198
LLC LOAD      ACCESS:     327579  HIT:       9139  MISS:     318440
LLC RFO       ACCESS:     200111  HIT:      15087  MISS:     185024
LLC PREFETCH  ACCESS:          0  HIT:          0  MISS:          0
LLC WRITEBACK ACCESS:     330218  HIT:     312510  MISS:      17708
Heartbeat CPU 0 instructions: 68000000 cycles: 122846275 heartbeat IPC: 0.187047 cumulative IPC: 0.171587 (Simulation time: 1 hr 15 min 54 sec) 

Region of Interest Statistics
cpu0_DTLB TOTAL     ACCESS:    5878674  HIT:    5319017  MISS:     559657
cpu0_DTLB LOAD      ACCESS:    4384763  HIT:    3944241  MISS:     440522
cpu0_DTLB RFO       ACCESS:    1493911  HIT:    1374776  MISS:     119135
cpu0_DTLB PREFETCH  ACCESS:          0  HIT:          0  MISS:          0
cpu0_DTLB WRITEBACK ACCESS:          0  HIT:          0  MISS:          0
cpu0_ITLB TOTAL     ACCESS:    2110545  HIT:    2110545  MISS:          0
cpu0_ITLB LOAD      ACCESS:    2110545  HIT:    2110545  MISS:          0
cpu0_ITLB RFO       ACCESS:          0  HIT:          0  MISS:          0
cpu0_ITLB PREFETCH  ACCESS:          0  HIT:          0  MISS:          0
cpu0_ITLB WRITEBACK ACCESS:          0  HIT:          0  MISS:          0
cpu0_L1I TOTAL     ACCESS:          6  HIT:          6  MISS:          0
cpu0_L1I LOAD      ACCESS:          6  HIT:          6  MISS:          0
cpu0_L1I RFO       ACCESS:          0  HIT:          0  MISS:          0
cpu0_L1I PREFETCH  ACCESS:          0  HIT:          0  MISS:          0
cpu0_L1I WRITEBACK ACCESS:          0  HIT:          0  MISS:          0
cpu0_STLB TOTAL     ACCESS:     559657  HIT:     294461  MISS:     265196
cpu0_STLB LOAD      ACCESS:     440522  HIT:     283797  MISS:     156725
cpu0_STLB RFO       ACCESS:     119135  HIT:      10664  MISS:     108471
cpu0_STLB PREFETCH  ACCESS:          0  HIT:          0  MISS:          0
cpu0_STLB WRITEBACK ACCESS:          0  HIT:          0  MISS:          0
cpu0_L1D TOTAL     ACCESS:    6828439  HIT:    5989212  MISS:     839227
cpu0_L1D LOAD      ACCESS:    4347959  HIT:    3727937  MISS:     620022
cpu0_L1D RFO       ACCESS:    2266628  HIT:    2049298  MISS:     217330
cpu0_L1D PREFETCH  ACCESS:          0  HIT:          0  MISS:          0
cpu0_L1D WRITEBACK ACCESS:          0  HIT:          0  MISS:          0
cpu0_L2C TOTAL     ACCESS:    1205236  HIT:     635891  MISS:     569345
cpu0_L2C LOAD      ACCESS:     620020  HIT:     251020  MISS:     369000
cpu0_L2C RFO       ACCESS:     217330  HIT:      17200  MISS:     200130
cpu0_L2C PREFETCH  ACCESS:          0  HIT:          0  MISS:          0
cpu0_L2C WRITEBACK ACCESS:     366011  HIT:     365982  MISS:         29
LLC TOTAL     ACCESS:     917295  HIT:     354006  MISS:     563289
LLC LOAD      ACCESS:     369000  HIT:       9764  MISS:     359236
LLC RFO       ACCESS:     200129  HIT:      15096  MISS:     185033
LLC PREFETCH  ACCESS:          0  HIT:          0  MISS:          0
LLC WRITEBACK ACCESS:     347980  HIT:     328986  MISS:      18994
Heartbeat CPU 0 instructions: 70000002 cycles: 135370460 heartbeat IPC: 0.159691 cumulative IPC: 0.170318 (Simulation time: 1 hr 21 min 25 sec) 

Region of Interest Statistics
cpu0_DTLB TOTAL     ACCESS:    6524492  HIT:    5888733  MISS:     635759
cpu0_DTLB LOAD      ACCESS:    4860266  HIT:    4375463  MISS:     484803
cpu0_DTLB RFO       ACCESS:    1664226  HIT:    1513270  MISS:     150956
cpu0_DTLB PREFETCH  ACCESS:          0  HIT:          0  MISS:          0
cpu0_DTLB WRITEBACK ACCESS:          0  HIT:          0  MISS:          0
cpu0_ITLB TOTAL     ACCESS:    2321912  HIT:    2321912  MISS:          0
cpu0_ITLB LOAD      ACCESS:    2321912  HIT:    2321912  MISS:          0
cpu0_ITLB RFO       ACCESS:          0  HIT:          0  MISS:          0
cpu0_ITLB PREFETCH  ACCESS:          0  HIT:          0  MISS:          0
cpu0_ITLB WRITEBACK ACCESS:          0  HIT:          0  MISS:          0
cpu0_L1I TOTAL     ACCESS:         23  HIT:         16  MISS:          7
cpu0_L1I LOAD      ACCESS:         23  HIT:         16  MISS:          7
cpu0_L1I RFO       ACCESS:          0  HIT:          0  MISS:          0
cpu0_L1I PREFETCH  ACCESS:          0  HIT:          0  MISS:          0
cpu0_L1I WRITEBACK ACCESS:          0  HIT:          0  MISS:          0
cpu0_STLB TOTAL     ACCESS:     635759  HIT:     323742  MISS:     312017
cpu0_STLB LOAD      ACCESS:     484803  HIT:     312596  MISS:     172207
cpu0_STLB RFO       ACCESS:     150956  HIT:      11146  MISS:     139810
cpu0_STLB PREFETCH  ACCESS:          0  HIT:          0  MISS:          0
cpu0_STLB WRITEBACK ACCESS:          0  HIT:          0  MISS:          0
cpu0_L1D TOTAL     ACCESS:    7566450  HIT:    6607514  MISS:     958936
cpu0_L1D LOAD      ACCESS:    4801441  HIT:    4112019  MISS:     689422
cpu0_L1D RFO       ACCESS:    2519390  HIT:    2251993  MISS:     267397
cpu0_L1D PREFETCH  ACCESS:          0  HIT:          0  MISS:          0
cpu0_L1D WRITEBACK ACCESS:          0  HIT:          0  MISS:          0
cpu0_L2C TOTAL     ACCESS:    1389103  HIT:     731291  MISS:     657812
cpu0_L2C LOAD      ACCESS:     689427  HIT:     279773  MISS:     409654
cpu0_L2C RFO       ACCESS:     267397  HIT:      19479  MISS:     247918
cpu0_L2C PREFETCH  ACCESS:          0  HIT:          0  MISS:          0
cpu0_L2C WRITEBACK ACCESS:     430162  HIT:     430130  MISS:         32
LLC TOTAL     ACCESS:    1064830  HIT:     414865  MISS:     649965
LLC LOAD      ACCESS:     409654  HIT:      10284  MISS:     399370
LLC RFO       ACCESS:     247917  HIT:      19501  MISS:     228416
LLC PREFETCH  ACCESS:          0  HIT:          0  MISS:          0
LLC WRITEBACK ACCESS:     407051  HIT:     384905  MISS:      22146
Heartbeat CPU 0 instructions: 72000003 cycles: 147212597 heartbeat IPC: 0.168889 cumulative IPC: 0.170187 (Simulation time: 1 hr 25 min 39 sec) 

Region of Interest Statistics
cpu0_DTLB TOTAL     ACCESS:    7182455  HIT:    6489073  MISS:     693382
cpu0_DTLB LOAD      ACCESS:    5354570  HIT:    4819941  MISS:     534629
cpu0_DTLB RFO       ACCESS:    1827885  HIT:    1669132  MISS:     158753
cpu0_DTLB PREFETCH  ACCESS:          0  HIT:          0  MISS:          0
cpu0_DTLB WRITEBACK ACCESS:          0  HIT:          0  MISS:          0
cpu0_ITLB TOTAL     ACCESS:    2559702  HIT:    2559702  MISS:          0
cpu0_ITLB LOAD      ACCESS:    2559702  HIT:    2559702  MISS:          0
cpu0_ITLB RFO       ACCESS:          0  HIT:          0  MISS:          0
cpu0_ITLB PREFETCH  ACCESS:          0  HIT:          0  MISS:          0
cpu0_ITLB WRITEBACK ACCESS:          0  HIT:          0  MISS:          0
cpu0_L1I TOTAL     ACCESS:         23  HIT:         16  MISS:          7
cpu0_L1I LOAD      ACCESS:         23  HIT:         16  MISS:          7
cpu0_L1I RFO       ACCESS:          0  HIT:          0  MISS:          0
cpu0_L1I PREFETCH  ACCESS:          0  HIT:          0  MISS:          0
cpu0_L1I WRITEBACK ACCESS:          0  HIT:          0  MISS:          0
cpu0_STLB TOTAL     ACCESS:     693382  HIT:     362113  MISS:     331269
cpu0_STLB LOAD      ACCESS:     534629  HIT:     347970  MISS:     186659
cpu0_STLB RFO       ACCESS:     158753  HIT:      14143  MISS:     144610
cpu0_STLB PREFETCH  ACCESS:          0  HIT:          0  MISS:          0
cpu0_STLB WRITEBACK ACCESS:          0  HIT:          0  MISS:          0
cpu0_L1D TOTAL     ACCESS:    8324335  HIT:    7279055  MISS:    1045280
cpu0_L1D LOAD      ACCESS:    5288929  HIT:    4533794  MISS:     755135
cpu0_L1D RFO       ACCESS:    2772483  HIT:    2484649  MISS:     287834
cpu0_L1D PREFETCH  ACCESS:          0  HIT:          0  MISS:          0
cpu0_L1D WRITEBACK ACCESS:          0  HIT:          0  MISS:          0
cpu0_L2C TOTAL     ACCESS:    1513336  HIT:     795687  MISS:     717649
cpu0_L2C LOAD      ACCESS:     755140  HIT:     304540  MISS:     450600
cpu0_L2C RFO       ACCESS:     287834  HIT:      21050  MISS:     266784
cpu0_L2C PREFETCH  ACCESS:          0  HIT:          0  MISS:          0
cpu0_L2C WRITEBACK ACCESS:     468051  HIT:     468017  MISS:         34
LLC TOTAL     ACCESS:    1163841  HIT:     452535  MISS:     711306
LLC LOAD      ACCESS:     450600  HIT:      11387  MISS:     439213
LLC RFO       ACCESS:     266783  HIT:      19535  MISS:     247248
LLC PREFETCH  ACCESS:          0  HIT:          0  MISS:          0
LLC WRITEBACK ACCESS:     446227  HIT:     421419  MISS:      24808
Heartbeat CPU 0 instructions: 74000000 cycles: 160609358 heartbeat IPC: 0.14929 cumulative IPC: 0.168225 (Simulation time: 1 hr 32 min 34 sec) 

Region of Interest Statistics
cpu0_DTLB TOTAL     ACCESS:    7811275  HIT:    7037433  MISS:     773842
cpu0_DTLB LOAD      ACCESS:    5813061  HIT:    5237436  MISS:     575625
cpu0_DTLB RFO       ACCESS:    1998214  HIT:    1799997  MISS:     198217
cpu0_DTLB PREFETCH  ACCESS:          0  HIT:          0  MISS:          0
cpu0_DTLB WRITEBACK ACCESS:          0  HIT:          0  MISS:          0
cpu0_ITLB TOTAL     ACCESS:    2758784  HIT:    2758784  MISS:          0
cpu0_ITLB LOAD      ACCESS:    2758784  HIT:    2758784  MISS:          0
cpu0_ITLB RFO       ACCESS:          0  HIT:          0  MISS:          0
cpu0_ITLB PREFETCH  ACCESS:          0  HIT:          0  MISS:          0
cpu0_ITLB WRITEBACK ACCESS:          0  HIT:          0  MISS:          0
cpu0_L1I TOTAL     ACCESS:         25  HIT:         18  MISS:          7
cpu0_L1I LOAD      ACCESS:         25  HIT:         18  MISS:          7
cpu0_L1I RFO       ACCESS:          0  HIT:          0  MISS:          0
cpu0_L1I PREFETCH  ACCESS:          0  HIT:          0  MISS:          0
cpu0_L1I WRITEBACK ACCESS:          0  HIT:          0  MISS:          0
cpu0_STLB TOTAL     ACCESS:     773842  HIT:     395044  MISS:     378798
cpu0_STLB LOAD      ACCESS:     575625  HIT:     377568  MISS:     198057
cpu0_STLB RFO       ACCESS:     198217  HIT:      17476  MISS:     180741
cpu0_STLB PREFETCH  ACCESS:          0  HIT:          0  MISS:          0
cpu0_STLB WRITEBACK ACCESS:          0  HIT:          0  MISS:          0
cpu0_L1D TOTAL     ACCESS:    9041911  HIT:    7871745  MISS:    1170166
cpu0_L1D LOAD      ACCESS:    5717145  HIT:    4905450  MISS:     811695
cpu0_L1D RFO       ACCESS:    3031191  HIT:    2675242  MISS:     355949
cpu0_L1D PREFETCH  ACCESS:          0  HIT:          0  MISS:          0
cpu0_L1D WRITEBACK ACCESS:          0  HIT:          0  MISS:          0
cpu0_L2C TOTAL     ACCESS:    1720282  HIT:     895446  MISS:     824836
cpu0_L2C LOAD      ACCESS:     811700  HIT:     320846  MISS:     490854
cpu0_L2C RFO       ACCESS:     355949  HIT:      22285  MISS:     333664
cpu0_L2C PREFETCH  ACCESS:          0  HIT:          0  MISS:          0
cpu0_L2C WRITEBACK ACCESS:     550111  HIT:     550068  MISS:         43
LLC TOTAL     ACCESS:    1351643  HIT:     536198  MISS:     815445
LLC LOAD      ACCESS:     490854  HIT:      15056  MISS:     475798
LLC RFO       ACCESS:     333663  HIT:      24463  MISS:     309200
LLC PREFETCH  ACCESS:          0  HIT:          0  MISS:          0
LLC WRITEBACK ACCESS:     526851  HIT:     496446  MISS:      30405
Heartbeat CPU 0 instructions: 76000003 cycles: 171027560 heartbeat IPC: 0.191972 cumulative IPC: 0.169841 (Simulation time: 1 hr 35 min 9 sec) 

Region of Interest Statistics
cpu0_DTLB TOTAL     ACCESS:    8490222  HIT:    7662904  MISS:     827318
cpu0_DTLB LOAD      ACCESS:    6327918  HIT:    5698953  MISS:     628965
cpu0_DTLB RFO       ACCESS:    2162304  HIT:    1963951  MISS:     198353
cpu0_DTLB PREFETCH  ACCESS:          0  HIT:          0  MISS:          0
cpu0_DTLB WRITEBACK ACCESS:          0  HIT:          0  MISS:          0
cpu0_ITLB TOTAL     ACCESS:    3007274  HIT:    3007274  MISS:          0
cpu0_ITLB LOAD      ACCESS:    3007274  HIT:    3007274  MISS:          0
cpu0_ITLB RFO       ACCESS:          0  HIT:          0  MISS:          0
cpu0_ITLB PREFETCH  ACCESS:          0  HIT:          0  MISS:          0
cpu0_ITLB WRITEBACK ACCESS:          0  HIT:          0  MISS:          0
cpu0_L1I TOTAL     ACCESS:         25  HIT:         18  MISS:          7
cpu0_L1I LOAD      ACCESS:         25  HIT:         18  MISS:          7
cpu0_L1I RFO       ACCESS:          0  HIT:          0  MISS:          0
cpu0_L1I PREFETCH  ACCESS:          0  HIT:          0  MISS:          0
cpu0_L1I WRITEBACK ACCESS:          0  HIT:          0  MISS:          0
cpu0_STLB TOTAL     ACCESS:     827318  HIT:     431690  MISS:     395628
cpu0_STLB LOAD      ACCESS:     628965  HIT:     414081  MISS:     214884
cpu0_STLB RFO       ACCESS:     198353  HIT:      17609  MISS:     180744
cpu0_STLB PREFETCH  ACCESS:          0  HIT:          0  MISS:          0
cpu0_STLB WRITEBACK ACCESS:          0  HIT:          0  MISS:          0
cpu0_L1D TOTAL     ACCESS:    9819025  HIT:    8570364  MISS:    1248661
cpu0_L1D LOAD      ACCESS:    6228695  HIT:    5340978  MISS:     887717
cpu0_L1D RFO       ACCESS:    3279969  HIT:    2921778  MISS:     358191
cpu0_L1D PREFETCH  ACCESS:          0  HIT:          0  MISS:          0
cpu0_L1D WRITEBACK ACCESS:          0  HIT:          0  MISS:          0
cpu0_L2C TOTAL     ACCESS:    1818779  HIT:     952744  MISS:     866035
cpu0_L2C LOAD      ACCESS:     887722  HIT:     355699  MISS:     532023
cpu0_L2C RFO       ACCESS:     358191  HIT:      24509  MISS:     333682
cpu0_L2C PREFETCH  ACCESS:          0  HIT:          0  MISS:          0
cpu0_L2C WRITEBACK ACCESS:     570113  HIT:     570070  MISS:         43
LLC TOTAL     ACCESS:    1410528  HIT:     554074  MISS:     856454
LLC LOAD      ACCESS:     532023  HIT:      15906  MISS:     516117
LLC RFO       ACCESS:     333681  HIT:      24466  MISS:     309215
LLC PREFETCH  ACCESS:          0  HIT:          0  MISS:          0
LLC WRITEBACK ACCESS:     544537  HIT:     513457  MISS:      31080
Heartbeat CPU 0 instructions: 78000003 cycles: 181343549 heartbeat IPC: 0.193874 cumulative IPC: 0.171358 (Simulation time: 1 hr 37 min 46 sec) 

Region of Interest Statistics
cpu0_DTLB TOTAL     ACCESS:    9176753  HIT:    8297575  MISS:     879178
cpu0_DTLB LOAD      ACCESS:    6850126  HIT:    6169456  MISS:     680670
cpu0_DTLB RFO       ACCESS:    2326627  HIT:    2128119  MISS:     198508
cpu0_DTLB PREFETCH  ACCESS:          0  HIT:          0  MISS:          0
cpu0_DTLB WRITEBACK ACCESS:          0  HIT:          0  MISS:          0
cpu0_ITLB TOTAL     ACCESS:    3253973  HIT:    3253973  MISS:          0
cpu0_ITLB LOAD      ACCESS:    3253973  HIT:    3253973  MISS:          0
cpu0_ITLB RFO       ACCESS:          0  HIT:          0  MISS:          0
cpu0_ITLB PREFETCH  ACCESS:          0  HIT:          0  MISS:          0
cpu0_ITLB WRITEBACK ACCESS:          0  HIT:          0  MISS:          0
cpu0_L1I TOTAL     ACCESS:         25  HIT:         18  MISS:          7
cpu0_L1I LOAD      ACCESS:         25  HIT:         18  MISS:          7
cpu0_L1I RFO       ACCESS:          0  HIT:          0  MISS:          0
cpu0_L1I PREFETCH  ACCESS:          0  HIT:          0  MISS:          0
cpu0_L1I WRITEBACK ACCESS:          0  HIT:          0  MISS:          0
cpu0_STLB TOTAL     ACCESS:     879178  HIT:     469984  MISS:     409194
cpu0_STLB LOAD      ACCESS:     680670  HIT:     452222  MISS:     228448
cpu0_STLB RFO       ACCESS:     198508  HIT:      17762  MISS:     180746
cpu0_STLB PREFETCH  ACCESS:          0  HIT:          0  MISS:          0
cpu0_STLB WRITEBACK ACCESS:          0  HIT:          0  MISS:          0
cpu0_L1D TOTAL     ACCESS:   10593103  HIT:    9267882  MISS:    1325221
cpu0_L1D LOAD      ACCESS:    6740868  HIT:    5778996  MISS:     961872
cpu0_L1D RFO       ACCESS:    3528320  HIT:    3167955  MISS:     360365
cpu0_L1D PREFETCH  ACCESS:          0  HIT:          0  MISS:          0
cpu0_L1D WRITEBACK ACCESS:          0  HIT:          0  MISS:          0
cpu0_L2C TOTAL     ACCESS:    1915288  HIT:    1008344  MISS:     906944
cpu0_L2C LOAD      ACCESS:     961877  HIT:     388961  MISS:     572916
cpu0_L2C RFO       ACCESS:     360365  HIT:      26676  MISS:     333689
cpu0_L2C PREFETCH  ACCESS:          0  HIT:          0  MISS:          0
cpu0_L2C WRITEBACK ACCESS:     590062  HIT:     590019  MISS:         43
LLC TOTAL     ACCESS:    1469290  HIT:     571133  MISS:     898157
LLC LOAD      ACCESS:     572916  HIT:      16180  MISS:     556736
LLC RFO       ACCESS:     333688  HIT:      24473  MISS:     309215
LLC PREFETCH  ACCESS:          0  HIT:          0  MISS:          0
LLC WRITEBACK ACCESS:     562390  HIT:     530227  MISS:      32163
Heartbeat CPU 0 instructions: 80000000 cycles: 194996088 heartbeat IPC: 0.146493 cumulative IPC: 0.169441 (Simulation time: 1 hr 44 min 41 sec) 

Region of Interest Statistics
cpu0_DTLB TOTAL     ACCESS:    9800896  HIT:    8841710  MISS:     959186
cpu0_DTLB LOAD      ACCESS:    7304605  HIT:    6583412  MISS:     721193
cpu0_DTLB RFO       ACCESS:    2496291  HIT:    2258298  MISS:     237993
cpu0_DTLB PREFETCH  ACCESS:          0  HIT:          0  MISS:          0
cpu0_DTLB WRITEBACK ACCESS:          0  HIT:          0  MISS:          0
cpu0_ITLB TOTAL     ACCESS:    3453840  HIT:    3453840  MISS:          0
cpu0_ITLB LOAD      ACCESS:    3453840  HIT:    3453840  MISS:          0
cpu0_ITLB RFO       ACCESS:          0  HIT:          0  MISS:          0
cpu0_ITLB PREFETCH  ACCESS:          0  HIT:          0  MISS:          0
cpu0_ITLB WRITEBACK ACCESS:          0  HIT:          0  MISS:          0
cpu0_L1I TOTAL     ACCESS:         35  HIT:         28  MISS:          7
cpu0_L1I LOAD      ACCESS:         35  HIT:         28  MISS:          7
cpu0_L1I RFO       ACCESS:          0  HIT:          0  MISS:          0
cpu0_L1I PREFETCH  ACCESS:          0  HIT:          0  MISS:          0
cpu0_L1I WRITEBACK ACCESS:          0  HIT:          0  MISS:          0
cpu0_STLB TOTAL     ACCESS:     959186  HIT:     501470  MISS:     457716
cpu0_STLB LOAD      ACCESS:     721193  HIT:     480365  MISS:     240828
cpu0_STLB RFO       ACCESS:     237993  HIT:      21105  MISS:     216888
cpu0_STLB PREFETCH  ACCESS:          0  HIT:          0  MISS:          0
cpu0_STLB WRITEBACK ACCESS:          0  HIT:          0  MISS:          0
cpu0_L1D TOTAL     ACCESS:   11308939  HIT:    9853621  MISS:    1455318
cpu0_L1D LOAD      ACCESS:    7167753  HIT:    6144443  MISS:    1023310
cpu0_L1D RFO       ACCESS:    3785612  HIT:    3356842  MISS:     428770
cpu0_L1D PREFETCH  ACCESS:          0  HIT:          0  MISS:          0
cpu0_L1D WRITEBACK ACCESS:          0  HIT:          0  MISS:          0
cpu0_L2C TOTAL     ACCESS:    2127523  HIT:    1113069  MISS:    1014454
cpu0_L2C LOAD      ACCESS:    1023315  HIT:     409818  MISS:     613497
cpu0_L2C RFO       ACCESS:     428770  HIT:      28196  MISS:     400574
cpu0_L2C PREFETCH  ACCESS:          0  HIT:          0  MISS:          0
cpu0_L2C WRITEBACK ACCESS:     672200  HIT:     672149  MISS:         51
LLC TOTAL     ACCESS:    1657258  HIT:     655946  MISS:    1001312
LLC LOAD      ACCESS:     613497  HIT:      19161  MISS:     594336
LLC RFO       ACCESS:     400573  HIT:      28588  MISS:     371985
LLC PREFETCH  ACCESS:          0  HIT:          0  MISS:          0
LLC WRITEBACK ACCESS:     642856  HIT:     607914  MISS:      34942
Heartbeat CPU 0 instructions: 82000000 cycles: 209059048 heartbeat IPC: 0.142218 cumulative IPC: 0.167438 (Simulation time: 1 hr 51 min 51 sec) 

Region of Interest Statistics
cpu0_DTLB TOTAL     ACCESS:   10420926  HIT:    9381328  MISS:    1039598
cpu0_DTLB LOAD      ACCESS:    7754691  HIT:    6992549  MISS:     762142
cpu0_DTLB RFO       ACCESS:    2666235  HIT:    2388779  MISS:     277456
cpu0_DTLB PREFETCH  ACCESS:          0  HIT:          0  MISS:          0
cpu0_DTLB WRITEBACK ACCESS:          0  HIT:          0  MISS:          0
cpu0_ITLB TOTAL     ACCESS:    3655615  HIT:    3655615  MISS:          0
cpu0_ITLB LOAD      ACCESS:    3655615  HIT:    3655615  MISS:          0
cpu0_ITLB RFO       ACCESS:          0  HIT:          0  MISS:          0
cpu0_ITLB PREFETCH  ACCESS:          0  HIT:          0  MISS:          0
cpu0_ITLB WRITEBACK ACCESS:          0  HIT:          0  MISS:          0
cpu0_L1I TOTAL     ACCESS:         37  HIT:         30  MISS:          7
cpu0_L1I LOAD      ACCESS:         37  HIT:         30  MISS:          7
cpu0_L1I RFO       ACCESS:          0  HIT:          0  MISS:          0
cpu0_L1I PREFETCH  ACCESS:          0  HIT:          0  MISS:          0
cpu0_L1I WRITEBACK ACCESS:          0  HIT:          0  MISS:          0
cpu0_STLB TOTAL     ACCESS:    1039598  HIT:     530953  MISS:     508645
cpu0_STLB LOAD      ACCESS:     762142  HIT:     506524  MISS:     255618
cpu0_STLB RFO       ACCESS:     277456  HIT:      24429  MISS:     253027
cpu0_STLB PREFETCH  ACCESS:          0  HIT:          0  MISS:          0
cpu0_STLB WRITEBACK ACCESS:          0  HIT:          0  MISS:          0
cpu0_L1D TOTAL     ACCESS:   12028651  HIT:   10443488  MISS:    1585163
cpu0_L1D LOAD      ACCESS:    7595641  HIT:    6511126  MISS:    1084515
cpu0_L1D RFO       ACCESS:    4043517  HIT:    3546354  MISS:     497163
cpu0_L1D PREFETCH  ACCESS:          0  HIT:          0  MISS:          0
cpu0_L1D WRITEBACK ACCESS:          0  HIT:          0  MISS:          0
cpu0_L2C TOTAL     ACCESS:    2339274  HIT:    1217555  MISS:    1121719
cpu0_L2C LOAD      ACCESS:    1084520  HIT:     430698  MISS:     653822
cpu0_L2C RFO       ACCESS:     497163  HIT:      29698  MISS:     467465
cpu0_L2C PREFETCH  ACCESS:          0  HIT:          0  MISS:          0
cpu0_L2C WRITEBACK ACCESS:     754106  HIT:     754049  MISS:         57
LLC TOTAL     ACCESS:    1844652  HIT:     736263  MISS:    1108389
LLC LOAD      ACCESS:     653822  HIT:      20353  MISS:     633469
LLC RFO       ACCESS:     467464  HIT:      33355  MISS:     434109
LLC PREFETCH  ACCESS:          0  HIT:          0  MISS:          0
LLC WRITEBACK ACCESS:     722991  HIT:     682231  MISS:      40760
Heartbeat CPU 0 instructions: 84000004 cycles: 219541808 heartbeat IPC: 0.19079 cumulative IPC: 0.168652 (Simulation time: 1 hr 54 min 33 sec) 

Region of Interest Statistics
cpu0_DTLB TOTAL     ACCESS:   11098481  HIT:   10005557  MISS:    1092924
cpu0_DTLB LOAD      ACCESS:    8267757  HIT:    7452419  MISS:     815338
cpu0_DTLB RFO       ACCESS:    2830724  HIT:    2553138  MISS:     277586
cpu0_DTLB PREFETCH  ACCESS:          0  HIT:          0  MISS:          0
cpu0_DTLB WRITEBACK ACCESS:          0  HIT:          0  MISS:          0
cpu0_ITLB TOTAL     ACCESS:    3904537  HIT:    3904537  MISS:          0
cpu0_ITLB LOAD      ACCESS:    3904537  HIT:    3904537  MISS:          0
cpu0_ITLB RFO       ACCESS:          0  HIT:          0  MISS:          0
cpu0_ITLB PREFETCH  ACCESS:          0  HIT:          0  MISS:          0
cpu0_ITLB WRITEBACK ACCESS:          0  HIT:          0  MISS:          0
cpu0_L1I TOTAL     ACCESS:         37  HIT:         30  MISS:          7
cpu0_L1I LOAD      ACCESS:         37  HIT:         30  MISS:          7
cpu0_L1I RFO       ACCESS:          0  HIT:          0  MISS:          0
cpu0_L1I PREFETCH  ACCESS:          0  HIT:          0  MISS:          0
cpu0_L1I WRITEBACK ACCESS:          0  HIT:          0  MISS:          0
cpu0_STLB TOTAL     ACCESS:    1092924  HIT:     569124  MISS:     523800
cpu0_STLB LOAD      ACCESS:     815338  HIT:     544569  MISS:     270769
cpu0_STLB RFO       ACCESS:     277586  HIT:      24555  MISS:     253031
cpu0_STLB PREFETCH  ACCESS:          0  HIT:          0  MISS:          0
cpu0_STLB WRITEBACK ACCESS:          0  HIT:          0  MISS:          0
cpu0_L1D TOTAL     ACCESS:   12805471  HIT:   11146668  MISS:    1658803
cpu0_L1D LOAD      ACCESS:    8107364  HIT:    6951360  MISS:    1156004
cpu0_L1D RFO       ACCESS:    4293474  HIT:    3794371  MISS:     499103
cpu0_L1D PREFETCH  ACCESS:          0  HIT:          0  MISS:          0
cpu0_L1D WRITEBACK ACCESS:          0  HIT:          0  MISS:          0
cpu0_L2C TOTAL     ACCESS:    2433103  HIT:    1270024  MISS:    1163079
cpu0_L2C LOAD      ACCESS:    1156008  HIT:     460882  MISS:     695126
cpu0_L2C RFO       ACCESS:     499103  HIT:      31595  MISS:     467508
cpu0_L2C PREFETCH  ACCESS:          0  HIT:          0  MISS:          0
cpu0_L2C WRITEBACK ACCESS:     774296  HIT:     774237  MISS:         59
LLC TOTAL     ACCESS:    1904420  HIT:     754845  MISS:    1149575
LLC LOAD      ACCESS:     695126  HIT:      21182  MISS:     673944
LLC RFO       ACCESS:     467507  HIT:      33356  MISS:     434151
LLC PREFETCH  ACCESS:          0  HIT:          0  MISS:          0
LLC WRITEBACK ACCESS:     741401  HIT:     699972  MISS:      41429
Heartbeat CPU 0 instructions: 86000002 cycles: 229919572 heartbeat IPC: 0.19272 cumulative IPC: 0.16983 (Simulation time: 1 hr 57 min 15 sec) 

Region of Interest Statistics
cpu0_DTLB TOTAL     ACCESS:   11781230  HIT:   10635652  MISS:    1145578
cpu0_DTLB LOAD      ACCESS:    8786242  HIT:    7918388  MISS:     867854
cpu0_DTLB RFO       ACCESS:    2994988  HIT:    2717264  MISS:     277724
cpu0_DTLB PREFETCH  ACCESS:          0  HIT:          0  MISS:          0
cpu0_DTLB WRITEBACK ACCESS:          0  HIT:          0  MISS:          0
cpu0_ITLB TOTAL     ACCESS:    4152014  HIT:    4152014  MISS:          0
cpu0_ITLB LOAD      ACCESS:    4152014  HIT:    4152014  MISS:          0
cpu0_ITLB RFO       ACCESS:          0  HIT:          0  MISS:          0
cpu0_ITLB PREFETCH  ACCESS:          0  HIT:          0  MISS:          0
cpu0_ITLB WRITEBACK ACCESS:          0  HIT:          0  MISS:          0
cpu0_L1I TOTAL     ACCESS:         37  HIT:         30  MISS:          7
cpu0_L1I LOAD      ACCESS:         37  HIT:         30  MISS:          7
cpu0_L1I RFO       ACCESS:          0  HIT:          0  MISS:          0
cpu0_L1I PREFETCH  ACCESS:          0  HIT:          0  MISS:          0
cpu0_L1I WRITEBACK ACCESS:          0  HIT:          0  MISS:          0
cpu0_STLB TOTAL     ACCESS:    1145578  HIT:     605980  MISS:     539598
cpu0_STLB LOAD      ACCESS:     867854  HIT:     581292  MISS:     286562
cpu0_STLB RFO       ACCESS:     277724  HIT:      24688  MISS:     253036
cpu0_STLB PREFETCH  ACCESS:          0  HIT:          0  MISS:          0
cpu0_STLB WRITEBACK ACCESS:          0  HIT:          0  MISS:          0
cpu0_L1D TOTAL     ACCESS:   13581125  HIT:   11844637  MISS:    1736488
cpu0_L1D LOAD      ACCESS:    8618719  HIT:    7387435  MISS:    1231284
cpu0_L1D RFO       ACCESS:    4542017  HIT:    4040694  MISS:     501323
cpu0_L1D PREFETCH  ACCESS:          0  HIT:          0  MISS:          0
cpu0_L1D WRITEBACK ACCESS:          0  HIT:          0  MISS:          0
cpu0_L2C TOTAL     ACCESS:    2530750  HIT:    1326675  MISS:    1204075
cpu0_L2C LOAD      ACCESS:    1231288  HIT:     495186  MISS:     736102
cpu0_L2C RFO       ACCESS:     501323  HIT:      33806  MISS:     467517
cpu0_L2C PREFETCH  ACCESS:          0  HIT:          0  MISS:          0
cpu0_L2C WRITEBACK ACCESS:     794258  HIT:     794199  MISS:         59
LLC TOTAL     ACCESS:    1963105  HIT:     770831  MISS:    1192274
LLC LOAD      ACCESS:     736102  HIT:      21725  MISS:     714377
LLC RFO       ACCESS:     467516  HIT:      33359  MISS:     434157
LLC PREFETCH  ACCESS:          0  HIT:          0  MISS:          0
LLC WRITEBACK ACCESS:     759090  HIT:     715401  MISS:      43689
Heartbeat CPU 0 instructions: 88000000 cycles: 243731115 heartbeat IPC: 0.144806 cumulative IPC: 0.1683 (Simulation time: 2 hr 4 min 31 sec) 

Region of Interest Statistics
cpu0_DTLB TOTAL     ACCESS:   12417358  HIT:   11192785  MISS:    1224573
cpu0_DTLB LOAD      ACCESS:    9252948  HIT:    8345594  MISS:     907354
cpu0_DTLB RFO       ACCESS:    3164410  HIT:    2847191  MISS:     317219
cpu0_DTLB PREFETCH  ACCESS:          0  HIT:          0  MISS:          0
cpu0_DTLB WRITEBACK ACCESS:          0  HIT:          0  MISS:          0
cpu0_ITLB TOTAL     ACCESS:    4349046  HIT:    4349046  MISS:          0
cpu0_ITLB LOAD      ACCESS:    4349046  HIT:    4349046  MISS:          0
cpu0_ITLB RFO       ACCESS:          0  HIT:          0  MISS:          0
cpu0_ITLB PREFETCH  ACCESS:          0  HIT:          0  MISS:          0
cpu0_ITLB WRITEBACK ACCESS:          0  HIT:          0  MISS:          0
cpu0_L1I TOTAL     ACCESS:         39  HIT:         32  MISS:          7
cpu0_L1I LOAD      ACCESS:         39  HIT:         32  MISS:          7
cpu0_L1I RFO       ACCESS:          0  HIT:          0  MISS:          0
cpu0_L1I PREFETCH  ACCESS:          0  HIT:          0  MISS:          0
cpu0_L1I WRITEBACK ACCESS:          0  HIT:          0  MISS:          0
cpu0_STLB TOTAL     ACCESS:    1224573  HIT:     638201  MISS:     586372
cpu0_STLB LOAD      ACCESS:     907354  HIT:     610153  MISS:     297201
cpu0_STLB RFO       ACCESS:     317219  HIT:      28048  MISS:     289171
cpu0_STLB PREFETCH  ACCESS:          0  HIT:          0  MISS:          0
cpu0_STLB WRITEBACK ACCESS:          0  HIT:          0  MISS:          0
cpu0_L1D TOTAL     ACCESS:   14295662  HIT:   12428283  MISS:    1867379
cpu0_L1D LOAD      ACCESS:    9047342  HIT:    7753902  MISS:    1293440
cpu0_L1D RFO       ACCESS:    4798133  HIT:    4228336  MISS:     569797
cpu0_L1D PREFETCH  ACCESS:          0  HIT:          0  MISS:          0
cpu0_L1D WRITEBACK ACCESS:          0  HIT:          0  MISS:          0
cpu0_L2C TOTAL     ACCESS:    2743535  HIT:    1432255  MISS:    1311280
cpu0_L2C LOAD      ACCESS:    1293444  HIT:     516879  MISS:     776565
cpu0_L2C RFO       ACCESS:     569797  HIT:      35580  MISS:     534217
cpu0_L2C PREFETCH  ACCESS:          0  HIT:          0  MISS:          0
cpu0_L2C WRITEBACK ACCESS:     876152  HIT:     876090  MISS:         62
LLC TOTAL     ACCESS:    2149183  HIT:     851064  MISS:    1298119
LLC LOAD      ACCESS:     776565  HIT:      22410  MISS:     754155
LLC RFO       ACCESS:     534216  HIT:      37398  MISS:     496818
LLC PREFETCH  ACCESS:          0  HIT:          0  MISS:          0
LLC WRITEBACK ACCESS:     837966  HIT:     790875  MISS:      47091
Heartbeat CPU 0 instructions: 90000003 cycles: 254191943 heartbeat IPC: 0.19119 cumulative IPC: 0.169313 (Simulation time: 2 hr 7 min 21 sec) 

Region of Interest Statistics
cpu0_DTLB TOTAL     ACCESS:   13091336  HIT:   11813541  MISS:    1277795
cpu0_DTLB LOAD      ACCESS:    9762533  HIT:    8802054  MISS:     960479
cpu0_DTLB RFO       ACCESS:    3328803  HIT:    3011487  MISS:     317316
cpu0_DTLB PREFETCH  ACCESS:          0  HIT:          0  MISS:          0
cpu0_DTLB WRITEBACK ACCESS:          0  HIT:          0  MISS:          0
cpu0_ITLB TOTAL     ACCESS:    4599109  HIT:    4599109  MISS:          0
cpu0_ITLB LOAD      ACCESS:    4599109  HIT:    4599109  MISS:          0
cpu0_ITLB RFO       ACCESS:          0  HIT:          0  MISS:          0
cpu0_ITLB PREFETCH  ACCESS:          0  HIT:          0  MISS:          0
cpu0_ITLB WRITEBACK ACCESS:          0  HIT:          0  MISS:          0
cpu0_L1I TOTAL     ACCESS:         39  HIT:         32  MISS:          7
cpu0_L1I LOAD      ACCESS:         39  HIT:         32  MISS:          7
cpu0_L1I RFO       ACCESS:          0  HIT:          0  MISS:          0
cpu0_L1I PREFETCH  ACCESS:          0  HIT:          0  MISS:          0
cpu0_L1I WRITEBACK ACCESS:          0  HIT:          0  MISS:          0
cpu0_STLB TOTAL     ACCESS:    1277795  HIT:     676075  MISS:     601720
cpu0_STLB LOAD      ACCESS:     960479  HIT:     647941  MISS:     312538
cpu0_STLB RFO       ACCESS:     317316  HIT:      28134  MISS:     289182
cpu0_STLB PREFETCH  ACCESS:          0  HIT:          0  MISS:          0
cpu0_STLB WRITEBACK ACCESS:          0  HIT:          0  MISS:          0
cpu0_L1D TOTAL     ACCESS:   15072272  HIT:   13136555  MISS:    1935717
cpu0_L1D LOAD      ACCESS:    9558778  HIT:    8198824  MISS:    1359954
cpu0_L1D RFO       ACCESS:    5047963  HIT:    4476544  MISS:     571419
cpu0_L1D PREFETCH  ACCESS:          0  HIT:          0  MISS:          0
cpu0_L1D WRITEBACK ACCESS:          0  HIT:          0  MISS:          0
cpu0_L2C TOTAL     ACCESS:    2831810  HIT:    1479352  MISS:    1352458
cpu0_L2C LOAD      ACCESS:    1359958  HIT:     542255  MISS:     817703
cpu0_L2C RFO       ACCESS:     571419  HIT:      37173  MISS:     534246
cpu0_L2C PREFETCH  ACCESS:          0  HIT:          0  MISS:          0
cpu0_L2C WRITEBACK ACCESS:     896089  HIT:     896027  MISS:         62
LLC TOTAL     ACCESS:    2209712  HIT:     870086  MISS:    1339626
LLC LOAD      ACCESS:     817703  HIT:      23276  MISS:     794427
LLC RFO       ACCESS:     534245  HIT:      37402  MISS:     496843
LLC PREFETCH  ACCESS:          0  HIT:          0  MISS:          0
LLC WRITEBACK ACCESS:     857317  HIT:     809016  MISS:      48301
Heartbeat CPU 0 instructions: 92000000 cycles: 264651137 heartbeat IPC: 0.191219 cumulative IPC: 0.170242 (Simulation time: 2 hr 10 min 10 sec) 

Region of Interest Statistics
cpu0_DTLB TOTAL     ACCESS:   13766207  HIT:   12435459  MISS:    1330748
cpu0_DTLB LOAD      ACCESS:   10273389  HIT:    9260084  MISS:    1013305
cpu0_DTLB RFO       ACCESS:    3492818  HIT:    3175375  MISS:     317443
cpu0_DTLB PREFETCH  ACCESS:          0  HIT:          0  MISS:          0
cpu0_DTLB WRITEBACK ACCESS:          0  HIT:          0  MISS:          0
cpu0_ITLB TOTAL     ACCESS:    4848512  HIT:    4848512  MISS:          0
cpu0_ITLB LOAD      ACCESS:    4848512  HIT:    4848512  MISS:          0
cpu0_ITLB RFO       ACCESS:          0  HIT:          0  MISS:          0
cpu0_ITLB PREFETCH  ACCESS:          0  HIT:          0  MISS:          0
cpu0_ITLB WRITEBACK ACCESS:          0  HIT:          0  MISS:          0
cpu0_L1I TOTAL     ACCESS:         39  HIT:         32  MISS:          7
cpu0_L1I LOAD      ACCESS:         39  HIT:         32  MISS:          7
cpu0_L1I RFO       ACCESS:          0  HIT:          0  MISS:          0
cpu0_L1I PREFETCH  ACCESS:          0  HIT:          0  MISS:          0
cpu0_L1I WRITEBACK ACCESS:          0  HIT:          0  MISS:          0
cpu0_STLB TOTAL     ACCESS:    1330748  HIT:     710408  MISS:     620340
cpu0_STLB LOAD      ACCESS:    1013305  HIT:     682155  MISS:     331150
cpu0_STLB RFO       ACCESS:     317443  HIT:      28253  MISS:     289190
cpu0_STLB PREFETCH  ACCESS:          0  HIT:          0  MISS:          0
cpu0_STLB WRITEBACK ACCESS:          0  HIT:          0  MISS:          0
cpu0_L1D TOTAL     ACCESS:   15850443  HIT:   13836609  MISS:    2013834
cpu0_L1D LOAD      ACCESS:   10069552  HIT:    8633952  MISS:    1435600
cpu0_L1D RFO       ACCESS:    5296803  HIT:    4723162  MISS:     573641
cpu0_L1D PREFETCH  ACCESS:          0  HIT:          0  MISS:          0
cpu0_L1D WRITEBACK ACCESS:          0  HIT:          0  MISS:          0
cpu0_L2C TOTAL     ACCESS:    2929989  HIT:    1536343  MISS:    1393646
cpu0_L2C LOAD      ACCESS:    1435604  HIT:     576750  MISS:     858854
cpu0_L2C RFO       ACCESS:     573641  HIT:      39367  MISS:     534274
cpu0_L2C PREFETCH  ACCESS:          0  HIT:          0  MISS:          0
cpu0_L2C WRITEBACK ACCESS:     916151  HIT:     916089  MISS:         62
LLC TOTAL     ACCESS:    2268591  HIT:     886202  MISS:    1382389
LLC LOAD      ACCESS:     858854  HIT:      23774  MISS:     835080
LLC RFO       ACCESS:     534273  HIT:      37404  MISS:     496869
LLC PREFETCH  ACCESS:          0  HIT:          0  MISS:          0
LLC WRITEBACK ACCESS:     875008  HIT:     824623  MISS:      50385
Heartbeat CPU 0 instructions: 94000003 cycles: 278415703 heartbeat IPC: 0.145301 cumulative IPC: 0.168924 (Simulation time: 2 hr 17 min 26 sec) 

Region of Interest Statistics
cpu0_DTLB TOTAL     ACCESS:   14392835  HIT:   12982263  MISS:    1410572
cpu0_DTLB LOAD      ACCESS:   10730907  HIT:    9677250  MISS:    1053657
cpu0_DTLB RFO       ACCESS:    3661928  HIT:    3305013  MISS:     356915
cpu0_DTLB PREFETCH  ACCESS:          0  HIT:          0  MISS:          0
cpu0_DTLB WRITEBACK ACCESS:          0  HIT:          0  MISS:          0
cpu0_ITLB TOTAL     ACCESS:    5047447  HIT:    5047447  MISS:          0
cpu0_ITLB LOAD      ACCESS:    5047447  HIT:    5047447  MISS:          0
cpu0_ITLB RFO       ACCESS:          0  HIT:          0  MISS:          0
cpu0_ITLB PREFETCH  ACCESS:          0  HIT:          0  MISS:          0
cpu0_ITLB WRITEBACK ACCESS:          0  HIT:          0  MISS:          0
cpu0_L1I TOTAL     ACCESS:         41  HIT:         34  MISS:          7
cpu0_L1I LOAD      ACCESS:         41  HIT:         34  MISS:          7
cpu0_L1I RFO       ACCESS:          0  HIT:          0  MISS:          0
cpu0_L1I PREFETCH  ACCESS:          0  HIT:          0  MISS:          0
cpu0_L1I WRITEBACK ACCESS:          0  HIT:          0  MISS:          0
cpu0_STLB TOTAL     ACCESS:    1410572  HIT:     739818  MISS:     670754
cpu0_STLB LOAD      ACCESS:    1053657  HIT:     708231  MISS:     345426
cpu0_STLB RFO       ACCESS:     356915  HIT:      31587  MISS:     325328
cpu0_STLB PREFETCH  ACCESS:          0  HIT:          0  MISS:          0
cpu0_STLB WRITEBACK ACCESS:          0  HIT:          0  MISS:          0
cpu0_L1D TOTAL     ACCESS:   16567073  HIT:   14422874  MISS:    2144199
cpu0_L1D LOAD      ACCESS:   10496938  HIT:    8999619  MISS:    1497319
cpu0_L1D RFO       ACCESS:    5552532  HIT:    4910493  MISS:     642039
cpu0_L1D PREFETCH  ACCESS:          0  HIT:          0  MISS:          0
cpu0_L1D WRITEBACK ACCESS:          0  HIT:          0  MISS:          0
cpu0_L2C TOTAL     ACCESS:    3141969  HIT:    1641028  MISS:    1500941
cpu0_L2C LOAD      ACCESS:    1497323  HIT:     598004  MISS:     899319
cpu0_L2C RFO       ACCESS:     642039  HIT:      40979  MISS:     601060
cpu0_L2C PREFETCH  ACCESS:          0  HIT:          0  MISS:          0
cpu0_L2C WRITEBACK ACCESS:     997766  HIT:     997701  MISS:         65
LLC TOTAL     ACCESS:    2454967  HIT:     965856  MISS:    1489111
LLC LOAD      ACCESS:     899319  HIT:      25247  MISS:     874072
LLC RFO       ACCESS:     601059  HIT:      41752  MISS:     559307
LLC PREFETCH  ACCESS:          0  HIT:          0  MISS:          0
LLC WRITEBACK ACCESS:     954092  HIT:     898421  MISS:      55671
Heartbeat CPU 0 instructions: 96000000 cycles: 292090851 heartbeat IPC: 0.14625 cumulative IPC: 0.167793 (Simulation time: 2 hr 24 min 49 sec) 

Region of Interest Statistics
cpu0_DTLB TOTAL     ACCESS:   15007960  HIT:   13517224  MISS:    1490736
cpu0_DTLB LOAD      ACCESS:   11176066  HIT:   10081720  MISS:    1094346
cpu0_DTLB RFO       ACCESS:    3831894  HIT:    3435504  MISS:     396390
cpu0_DTLB PREFETCH  ACCESS:          0  HIT:          0  MISS:          0
cpu0_DTLB WRITEBACK ACCESS:          0  HIT:          0  MISS:          0
cpu0_ITLB TOTAL     ACCESS:    5250822  HIT:    5250822  MISS:          0
cpu0_ITLB LOAD      ACCESS:    5250822  HIT:    5250822  MISS:          0
cpu0_ITLB RFO       ACCESS:          0  HIT:          0  MISS:          0
cpu0_ITLB PREFETCH  ACCESS:          0  HIT:          0  MISS:          0
cpu0_ITLB WRITEBACK ACCESS:          0  HIT:          0  MISS:          0
cpu0_L1I TOTAL     ACCESS:         43  HIT:         36  MISS:          7
cpu0_L1I LOAD      ACCESS:         43  HIT:         36  MISS:          7
cpu0_L1I RFO       ACCESS:          0  HIT:          0  MISS:          0
cpu0_L1I PREFETCH  ACCESS:          0  HIT:          0  MISS:          0
cpu0_L1I WRITEBACK ACCESS:          0  HIT:          0  MISS:          0
cpu0_STLB TOTAL     ACCESS:    1490736  HIT:     772883  MISS:     717853
cpu0_STLB LOAD      ACCESS:    1094346  HIT:     737955  MISS:     356391
cpu0_STLB RFO       ACCESS:     396390  HIT:      34928  MISS:     361462
cpu0_STLB PREFETCH  ACCESS:          0  HIT:          0  MISS:          0
cpu0_STLB WRITEBACK ACCESS:          0  HIT:          0  MISS:          0
cpu0_L1D TOTAL     ACCESS:   17282554  HIT:   15013061  MISS:    2269493
cpu0_L1D LOAD      ACCESS:   10924356  HIT:    9370068  MISS:    1554288
cpu0_L1D RFO       ACCESS:    5810452  HIT:    5100312  MISS:     710140
cpu0_L1D PREFETCH  ACCESS:          0  HIT:          0  MISS:          0
cpu0_L1D WRITEBACK ACCESS:          0  HIT:          0  MISS:          0
cpu0_L2C TOTAL     ACCESS:    3349204  HIT:    1741291  MISS:    1607913
cpu0_L2C LOAD      ACCESS:    1554291  HIT:     614884  MISS:     939407
cpu0_L2C RFO       ACCESS:     710140  HIT:      42255  MISS:     667885
cpu0_L2C PREFETCH  ACCESS:          0  HIT:          0  MISS:          0
cpu0_L2C WRITEBACK ACCESS:    1079708  HIT:    1079627  MISS:         81
LLC TOTAL     ACCESS:    2641994  HIT:    1050248  MISS:    1591746
LLC LOAD      ACCESS:     939407  HIT:      28027  MISS:     911380
LLC RFO       ACCESS:     667884  HIT:      47288  MISS:     620596
LLC PREFETCH  ACCESS:          0  HIT:          0  MISS:          0
LLC WRITEBACK ACCESS:    1034163  HIT:     974458  MISS:      59705
Heartbeat CPU 0 instructions: 98000002 cycles: 306158841 heartbeat IPC: 0.142167 cumulative IPC: 0.166542 (Simulation time: 2 hr 32 min 26 sec) 

Region of Interest Statistics
cpu0_DTLB TOTAL     ACCESS:   15632899  HIT:   14062446  MISS:    1570453
cpu0_DTLB LOAD      ACCESS:   11630697  HIT:   10496029  MISS:    1134668
cpu0_DTLB RFO       ACCESS:    4002202  HIT:    3566417  MISS:     435785
cpu0_DTLB PREFETCH  ACCESS:          0  HIT:          0  MISS:          0
cpu0_DTLB WRITEBACK ACCESS:          0  HIT:          0  MISS:          0
cpu0_ITLB TOTAL     ACCESS:    5451530  HIT:    5451530  MISS:          0
cpu0_ITLB LOAD      ACCESS:    5451530  HIT:    5451530  MISS:          0
cpu0_ITLB RFO       ACCESS:          0  HIT:          0  MISS:          0
cpu0_ITLB PREFETCH  ACCESS:          0  HIT:          0  MISS:          0
cpu0_ITLB WRITEBACK ACCESS:          0  HIT:          0  MISS:          0
cpu0_L1I TOTAL     ACCESS:         45  HIT:         38  MISS:          7
cpu0_L1I LOAD      ACCESS:         45  HIT:         38  MISS:          7
cpu0_L1I RFO       ACCESS:          0  HIT:          0  MISS:          0
cpu0_L1I PREFETCH  ACCESS:          0  HIT:          0  MISS:          0
cpu0_L1I WRITEBACK ACCESS:          0  HIT:          0  MISS:          0
cpu0_STLB TOTAL     ACCESS:    1570453  HIT:     805571  MISS:     764882
cpu0_STLB LOAD      ACCESS:    1134668  HIT:     767382  MISS:     367286
cpu0_STLB RFO       ACCESS:     435785  HIT:      38189  MISS:     397596
cpu0_STLB PREFETCH  ACCESS:          0  HIT:          0  MISS:          0
cpu0_STLB WRITEBACK ACCESS:          0  HIT:          0  MISS:          0
cpu0_L1D TOTAL     ACCESS:   18000525  HIT:   15616772  MISS:    2383753
cpu0_L1D LOAD      ACCESS:   11353477  HIT:    9752612  MISS:    1600865
cpu0_L1D RFO       ACCESS:    6069101  HIT:    5291487  MISS:     777614
cpu0_L1D PREFETCH  ACCESS:          0  HIT:          0  MISS:          0
cpu0_L1D WRITEBACK ACCESS:          0  HIT:          0  MISS:          0
cpu0_L2C TOTAL     ACCESS:    3544960  HIT:    1830364  MISS:    1714596
cpu0_L2C LOAD      ACCESS:    1600868  HIT:     621627  MISS:     979241
cpu0_L2C RFO       ACCESS:     777614  HIT:      42939  MISS:     734675
cpu0_L2C PREFETCH  ACCESS:          0  HIT:          0  MISS:          0
cpu0_L2C WRITEBACK ACCESS:    1161204  HIT:    1161103  MISS:        101
LLC TOTAL     ACCESS:    2831002  HIT:    1133681  MISS:    1697321
LLC LOAD      ACCESS:     979241  HIT:      29778  MISS:     949463
LLC RFO       ACCESS:     734674  HIT:      53061  MISS:     681613
LLC PREFETCH  ACCESS:          0  HIT:          0  MISS:          0
LLC WRITEBACK ACCESS:    1116508  HIT:    1050332  MISS:      66176
Heartbeat CPU 0 instructions: 100000001 cycles: 316630588 heartbeat IPC: 0.19099 cumulative IPC: 0.167399 (Simulation time: 2 hr 35 min 18 sec) 

Region of Interest Statistics
cpu0_DTLB TOTAL     ACCESS:   16307201  HIT:   14683258  MISS:    1623943
cpu0_DTLB LOAD      ACCESS:   12140728  HIT:   10952715  MISS:    1188013
cpu0_DTLB RFO       ACCESS:    4166473  HIT:    3730543  MISS:     435930
cpu0_DTLB PREFETCH  ACCESS:          0  HIT:          0  MISS:          0
cpu0_DTLB WRITEBACK ACCESS:          0  HIT:          0  MISS:          0
cpu0_ITLB TOTAL     ACCESS:    5701300  HIT:    5701300  MISS:          0
cpu0_ITLB LOAD      ACCESS:    5701300  HIT:    5701300  MISS:          0
cpu0_ITLB RFO       ACCESS:          0  HIT:          0  MISS:          0
cpu0_ITLB PREFETCH  ACCESS:          0  HIT:          0  MISS:          0
cpu0_ITLB WRITEBACK ACCESS:          0  HIT:          0  MISS:          0
cpu0_L1I TOTAL     ACCESS:         45  HIT:         38  MISS:          7
cpu0_L1I LOAD      ACCESS:         45  HIT:         38  MISS:          7
cpu0_L1I RFO       ACCESS:          0  HIT:          0  MISS:          0
cpu0_L1I PREFETCH  ACCESS:          0  HIT:          0  MISS:          0
cpu0_L1I WRITEBACK ACCESS:          0  HIT:          0  MISS:          0
cpu0_STLB TOTAL     ACCESS:    1623943  HIT:     841128  MISS:     782815
cpu0_STLB LOAD      ACCESS:    1188013  HIT:     802799  MISS:     385214
cpu0_STLB RFO       ACCESS:     435930  HIT:      38329  MISS:     397601
cpu0_STLB PREFETCH  ACCESS:          0  HIT:          0  MISS:          0
cpu0_STLB WRITEBACK ACCESS:          0  HIT:          0  MISS:          0
cpu0_L1D TOTAL     ACCESS:   18779280  HIT:   16320627  MISS:    2458653
cpu0_L1D LOAD      ACCESS:   11864669  HIT:   10191139  MISS:    1673530
cpu0_L1D RFO       ACCESS:    6318749  HIT:    5539107  MISS:     779642
cpu0_L1D PREFETCH  ACCESS:          0  HIT:          0  MISS:          0
cpu0_L1D WRITEBACK ACCESS:          0  HIT:          0  MISS:          0
cpu0_L2C TOTAL     ACCESS:    3640038  HIT:    1884141  MISS:    1755897
cpu0_L2C LOAD      ACCESS:    1673533  HIT:     653034  MISS:    1020499
cpu0_L2C RFO       ACCESS:     779642  HIT:      44933  MISS:     734709
cpu0_L2C PREFETCH  ACCESS:          0  HIT:          0  MISS:          0
cpu0_L2C WRITEBACK ACCESS:    1181382  HIT:    1181281  MISS:        101
LLC TOTAL     ACCESS:    2889986  HIT:    1151368  MISS:    1738618
LLC LOAD      ACCESS:    1020499  HIT:      30311  MISS:     990188
LLC RFO       ACCESS:     734708  HIT:      53063  MISS:     681645
LLC PREFETCH  ACCESS:          0  HIT:          0  MISS:          0
LLC WRITEBACK ACCESS:    1134191  HIT:    1067475  MISS:      66716
Heartbeat CPU 0 instructions: 102000003 cycles: 327104868 heartbeat IPC: 0.190944 cumulative IPC: 0.168197 (Simulation time: 2 hr 38 min 2 sec) 

Region of Interest Statistics
cpu0_DTLB TOTAL     ACCESS:   16981243  HIT:   15303823  MISS:    1677420
cpu0_DTLB LOAD      ACCESS:   12650891  HIT:   11409521  MISS:    1241370
cpu0_DTLB RFO       ACCESS:    4330352  HIT:    3894302  MISS:     436050
cpu0_DTLB PREFETCH  ACCESS:          0  HIT:          0  MISS:          0
cpu0_DTLB WRITEBACK ACCESS:          0  HIT:          0  MISS:          0
cpu0_ITLB TOTAL     ACCESS:    5950800  HIT:    5950800  MISS:          0
cpu0_ITLB LOAD      ACCESS:    5950800  HIT:    5950800  MISS:          0
cpu0_ITLB RFO       ACCESS:          0  HIT:          0  MISS:          0
cpu0_ITLB PREFETCH  ACCESS:          0  HIT:          0  MISS:          0
cpu0_ITLB WRITEBACK ACCESS:          0  HIT:          0  MISS:          0
cpu0_L1I TOTAL     ACCESS:         45  HIT:         38  MISS:          7
cpu0_L1I LOAD      ACCESS:         45  HIT:         38  MISS:          7
cpu0_L1I RFO       ACCESS:          0  HIT:          0  MISS:          0
cpu0_L1I PREFETCH  ACCESS:          0  HIT:          0  MISS:          0
cpu0_L1I WRITEBACK ACCESS:          0  HIT:          0  MISS:          0
cpu0_STLB TOTAL     ACCESS:    1677420  HIT:     874195  MISS:     803225
cpu0_STLB LOAD      ACCESS:    1241370  HIT:     835752  MISS:     405618
cpu0_STLB RFO       ACCESS:     436050  HIT:      38443  MISS:     397607
cpu0_STLB PREFETCH  ACCESS:          0  HIT:          0  MISS:          0
cpu0_STLB WRITEBACK ACCESS:          0  HIT:          0  MISS:          0
cpu0_L1D TOTAL     ACCESS:   19558487  HIT:   17021369  MISS:    2537118
cpu0_L1D LOAD      ACCESS:   12375298  HIT:   10625731  MISS:    1749567
cpu0_L1D RFO       ACCESS:    6566992  HIT:    5785114  MISS:     781878
cpu0_L1D PREFETCH  ACCESS:          0  HIT:          0  MISS:          0
cpu0_L1D WRITEBACK ACCESS:          0  HIT:          0  MISS:          0
cpu0_L2C TOTAL     ACCESS:    3738395  HIT:    1941311  MISS:    1797084
cpu0_L2C LOAD      ACCESS:    1749570  HIT:     687911  MISS:    1061659
cpu0_L2C RFO       ACCESS:     781878  HIT:      47154  MISS:     734724
cpu0_L2C PREFETCH  ACCESS:          0  HIT:          0  MISS:          0
cpu0_L2C WRITEBACK ACCESS:    1201274  HIT:    1201173  MISS:        101
LLC TOTAL     ACCESS:    2948866  HIT:    1167585  MISS:    1781281
LLC LOAD      ACCESS:    1061659  HIT:      30859  MISS:    1030800
LLC RFO       ACCESS:     734723  HIT:      53064  MISS:     681659
LLC PREFETCH  ACCESS:          0  HIT:          0  MISS:          0
LLC WRITEBACK ACCESS:    1151884  HIT:    1083131  MISS:      68753
Heartbeat CPU 0 instructions: 104000001 cycles: 344917199 heartbeat IPC: 0.112282 cumulative IPC: 0.165151 (Simulation time: 2 hr 50 min 33 sec) 

Region of Interest Statistics
cpu0_DTLB TOTAL     ACCESS:   17561418  HIT:   15776764  MISS:    1784654
cpu0_DTLB LOAD      ACCESS:   13055591  HIT:   11785799  MISS:    1269792
cpu0_DTLB RFO       ACCESS:    4505827  HIT:    3990965  MISS:     514862
cpu0_DTLB PREFETCH  ACCESS:          0  HIT:          0  MISS:          0
cpu0_DTLB WRITEBACK ACCESS:          0  HIT:          0  MISS:          0
cpu0_ITLB TOTAL     ACCESS:    6100516  HIT:    6100516  MISS:          0
cpu0_ITLB LOAD      ACCESS:    6100516  HIT:    6100516  MISS:          0
cpu0_ITLB RFO       ACCESS:          0  HIT:          0  MISS:          0
cpu0_ITLB PREFETCH  ACCESS:          0  HIT:          0  MISS:          0
cpu0_ITLB WRITEBACK ACCESS:          0  HIT:          0  MISS:          0
cpu0_L1I TOTAL     ACCESS:         68  HIT:         54  MISS:         14
cpu0_L1I LOAD      ACCESS:         68  HIT:         54  MISS:         14
cpu0_L1I RFO       ACCESS:          0  HIT:          0  MISS:          0
cpu0_L1I PREFETCH  ACCESS:          0  HIT:          0  MISS:          0
cpu0_L1I WRITEBACK ACCESS:          0  HIT:          0  MISS:          0
cpu0_STLB TOTAL     ACCESS:    1784654  HIT:     900509  MISS:     884145
cpu0_STLB LOAD      ACCESS:    1269792  HIT:     855533  MISS:     414259
cpu0_STLB RFO       ACCESS:     514862  HIT:      44976  MISS:     469886
cpu0_STLB PREFETCH  ACCESS:          0  HIT:          0  MISS:          0
cpu0_STLB WRITEBACK ACCESS:          0  HIT:          0  MISS:          0
cpu0_L1D TOTAL     ACCESS:   20217522  HIT:   17497519  MISS:    2720003
cpu0_L1D LOAD      ACCESS:   12721416  HIT:   10923896  MISS:    1797520
cpu0_L1D RFO       ACCESS:    6832766  HIT:    5916261  MISS:     916505
cpu0_L1D PREFETCH  ACCESS:          0  HIT:          0  MISS:          0
cpu0_L1D WRITEBACK ACCESS:          0  HIT:          0  MISS:          0
cpu0_L2C TOTAL     ACCESS:    4065528  HIT:    2095172  MISS:    1970356
cpu0_L2C LOAD      ACCESS:    1797528  HIT:     696513  MISS:    1101015
cpu0_L2C RFO       ACCESS:     916505  HIT:      47940  MISS:     868565
cpu0_L2C PREFETCH  ACCESS:          0  HIT:          0  MISS:          0
cpu0_L2C WRITEBACK ACCESS:    1345517  HIT:    1345410  MISS:        107
LLC TOTAL     ACCESS:    3265500  HIT:    1312757  MISS:    1952743
LLC LOAD      ACCESS:    1101015  HIT:      33217  MISS:    1067798
LLC RFO       ACCESS:     868564  HIT:      61459  MISS:     807105
LLC PREFETCH  ACCESS:          0  HIT:          0  MISS:          0
LLC WRITEBACK ACCESS:    1295252  HIT:    1217491  MISS:      77761
Heartbeat CPU 0 instructions: 106000003 cycles: 358834923 heartbeat IPC: 0.143702 cumulative IPC: 0.164275 (Simulation time: 2 hr 57 min 58 sec) 

Region of Interest Statistics
cpu0_DTLB TOTAL     ACCESS:   18177918  HIT:   16313410  MISS:    1864508
cpu0_DTLB LOAD      ACCESS:   13501748  HIT:   12191521  MISS:    1310227
cpu0_DTLB RFO       ACCESS:    4676170  HIT:    4121889  MISS:     554281
cpu0_DTLB PREFETCH  ACCESS:          0  HIT:          0  MISS:          0
cpu0_DTLB WRITEBACK ACCESS:          0  HIT:          0  MISS:          0
cpu0_ITLB TOTAL     ACCESS:    6303321  HIT:    6303321  MISS:          0
cpu0_ITLB LOAD      ACCESS:    6303321  HIT:    6303321  MISS:          0
cpu0_ITLB RFO       ACCESS:          0  HIT:          0  MISS:          0
cpu0_ITLB PREFETCH  ACCESS:          0  HIT:          0  MISS:          0
cpu0_ITLB WRITEBACK ACCESS:          0  HIT:          0  MISS:          0
cpu0_L1I TOTAL     ACCESS:         94  HIT:         80  MISS:         14
cpu0_L1I LOAD      ACCESS:         94  HIT:         80  MISS:         14
cpu0_L1I RFO       ACCESS:          0  HIT:          0  MISS:          0
cpu0_L1I PREFETCH  ACCESS:          0  HIT:          0  MISS:          0
cpu0_L1I WRITEBACK ACCESS:          0  HIT:          0  MISS:          0
cpu0_STLB TOTAL     ACCESS:    1864508  HIT:     933243  MISS:     931265
cpu0_STLB LOAD      ACCESS:    1310227  HIT:     884990  MISS:     425237
cpu0_STLB RFO       ACCESS:     554281  HIT:      48253  MISS:     506028
cpu0_STLB PREFETCH  ACCESS:          0  HIT:          0  MISS:          0
cpu0_STLB WRITEBACK ACCESS:          0  HIT:          0  MISS:          0
cpu0_L1D TOTAL     ACCESS:   20934038  HIT:   18094893  MISS:    2839145
cpu0_L1D LOAD      ACCESS:   13149215  HIT:   11300530  MISS:    1848685
cpu0_L1D RFO       ACCESS:    7091290  HIT:    6107029  MISS:     984261
cpu0_L1D PREFETCH  ACCESS:          0  HIT:          0  MISS:          0
cpu0_L1D WRITEBACK ACCESS:          0  HIT:          0  MISS:          0
cpu0_L2C TOTAL     ACCESS:    4266216  HIT:    2189009  MISS:    2077207
cpu0_L2C LOAD      ACCESS:    1848693  HIT:     707807  MISS:    1140886
cpu0_L2C RFO       ACCESS:     984261  HIT:      48775  MISS:     935486
cpu0_L2C PREFETCH  ACCESS:          0  HIT:          0  MISS:          0
cpu0_L2C WRITEBACK ACCESS:    1427063  HIT:    1426936  MISS:        127
LLC TOTAL     ACCESS:    3453103  HIT:    1397689  MISS:    2055414
LLC LOAD      ACCESS:    1140886  HIT:      35884  MISS:    1105002
LLC RFO       ACCESS:     935485  HIT:      66747  MISS:     868738
LLC PREFETCH  ACCESS:          0  HIT:          0  MISS:          0
[...]
cpu0_DTLB AVERAGE MISS LATENCY: 154.68 cycles
cpu0_ITLB TOTAL     ACCESS:  167455890  HIT:  167455889  MISS:          1
cpu0_ITLB LOAD      ACCESS:  167455890  HIT:  167455889  MISS:          1
cpu0_ITLB RFO       ACCESS:          0  HIT:          0  MISS:          0
cpu0_ITLB PREFETCH  ACCESS:          0  HIT:          0  MISS:          0
cpu0_ITLB WRITEBACK ACCESS:          0  HIT:          0  MISS:          0
cpu0_ITLB TRANSLATION ACCESS:          0  HIT:          0  MISS:          0
cpu0_ITLB PREFETCH  REQUESTED:          0  ISSUED:          0  USEFUL:          0  USELESS:          0
cpu0_ITLB AVERAGE MISS LATENCY: 217 cycles
cpu0_L1I TOTAL     ACCESS:       2107  HIT:       2076  MISS:         31
cpu0_L1I LOAD      ACCESS:       2107  HIT:       2076  MISS:         31
cpu0_L1I RFO       ACCESS:          0  HIT:          0  MISS:          0
cpu0_L1I PREFETCH  ACCESS:          0  HIT:          0  MISS:          0
cpu0_L1I WRITEBACK ACCESS:          0  HIT:          0  MISS:          0
cpu0_L1I TRANSLATION ACCESS:          0  HIT:          0  MISS:          0
cpu0_L1I PREFETCH  REQUESTED:          0  ISSUED:          0  USEFUL:          0  USELESS:          0
cpu0_L1I AVERAGE MISS LATENCY: 185.484 cycles
cpu0_STLB TOTAL     ACCESS:   51305196  HIT:   24272801  MISS:   27032395
cpu0_STLB LOAD      ACCESS:   34609730  HIT:   22828721  MISS:   11781009
cpu0_STLB RFO       ACCESS:   16695466  HIT:    1444080  MISS:   15251386
cpu0_STLB PREFETCH  ACCESS:          0  HIT:          0  MISS:          0
cpu0_STLB WRITEBACK ACCESS:          0  HIT:          0  MISS:          0
cpu0_STLB TRANSLATION ACCESS:          0  HIT:          0  MISS:          0
cpu0_STLB PREFETCH  REQUESTED:          0  ISSUED:          0  USEFUL:          0  USELESS:          0
cpu0_STLB AVERAGE MISS LATENCY: 276.208 cycles
cpu0_L1D TOTAL     ACCESS:  558600855  HIT:  479640529  MISS:   78960326
cpu0_L1D LOAD      ACCESS:  348254539  HIT:  298958257  MISS:   49296282
cpu0_L1D RFO       ACCESS:  190484039  HIT:  160982261  MISS:   29501778
cpu0_L1D PREFETCH  ACCESS:          0  HIT:          0  MISS:          0
cpu0_L1D WRITEBACK ACCESS:          0  HIT:          0  MISS:          0
cpu0_L1D TRANSLATION ACCESS:   19862277  HIT:   19700011  MISS:     162266
cpu0_L1D PREFETCH  REQUESTED:          0  ISSUED:          0  USEFUL:          0  USELESS:          0
cpu0_L1D AVERAGE MISS LATENCY: 568.619 cycles
cpu0_L2C TOTAL     ACCESS:  120138706  HIT:   61364699  MISS:   58774007
cpu0_L2C LOAD      ACCESS:   49296174  HIT:   18754212  MISS:   30541962
cpu0_L2C RFO       ACCESS:   29501778  HIT:    1293000  MISS:   28208778
cpu0_L2C PREFETCH  ACCESS:          0  HIT:          0  MISS:          0
cpu0_L2C WRITEBACK ACCESS:   41178488  HIT:   41175409  MISS:       3079
cpu0_L2C TRANSLATION ACCESS:     162266  HIT:     142078  MISS:      20188
cpu0_L2C PREFETCH  REQUESTED:          0  ISSUED:          0  USEFUL:          0  USELESS:          0
cpu0_L2C AVERAGE MISS LATENCY: 749.112 cycles
LLC TOTAL     ACCESS:   98591718  HIT:   40558346  MISS:   58033372
LLC LOAD      ACCESS:   30541962  HIT:    1159584  MISS:   29382378
LLC RFO       ACCESS:   28208747  HIT:    2146509  MISS:   26062238
LLC PREFETCH  ACCESS:          0  HIT:          0  MISS:          0
LLC WRITEBACK ACCESS:   39820821  HIT:   37234184  MISS:    2586637
LLC TRANSLATION ACCESS:      20188  HIT:      18069  MISS:       2119
LLC PREFETCH  REQUESTED:          0  ISSUED:          0  USEFUL:          0  USELESS:          0
LLC AVERAGE MISS LATENCY: 737.405 cycles
~~~~~~~~~~Reuse Distance Profiler output~~~~~~~~~~
0	81188128	17664416
1	61840480	44303424
2	44364256	37192464
3	28264896	18962880
4	20229664	13764016
5	20830352	16968912
6	23056016	15706272
7	21887168	15006768
8	26626176	14562272
9	15178720	9490000
10	7551152	5054656
11	10479024	3320144
12	6841456	3695024
13	5217488	2329296
14	2475648	2198112
15	3964976	3654960
16	6443248	6140112
17	5615808	5034704
18	5243328	5148192
19	5882272	5665392
20	3556512	3464480
21	3771392	3466912
22	2773984	2673936
23	1833760	1781504
24	2395248	2361488
25	2652800	2570256
26	2652128	2444352
27	2005184	1827712
28	2282624	2001264
29	1683792	1521088
30	1283648	1142800
31	1380272	1184480
32	1475456	1212976
33	1222784	1062208
34	1105744	942432
35	822528	695136
36	990080	781968
37	1439248	1174144
38	1229984	1055872
39	1271408	1088976
40	1131040	991856
41	1243488	1025936
42	1050336	852432
43	1405936	1105280
44	1454912	1178064
45	1167184	968032
46	1093136	874544
47	1016384	810000
48	1071008	800176
49	927136	738064
50	830144	670400
51	766176	606880
52	729824	581344
53	668528	541168
54	613008	494208
55	685968	564736
56	560224	450528
57	720816	613216
58	600528	503008
59	585296	490592
60	569296	480208
61	550352	456192
62	511856	417440
63	491216	402160
64	978992	809648
66	816496	654416
68	758496	604992
70	653024	521232
72	566096	446512
74	524032	423440
76	472832	387296
78	391584	317584
80	353440	287696
82	332656	275888
84	286064	235920
86	243520	194432
88	221344	176944
90	190000	152016
92	171840	136560
94	159792	129840
96	143328	117776
98	120256	96976
100	106928	87552
102	100464	82608
104	89840	74800
106	80544	67392
108	76240	65120
110	68320	57968
112	64592	55488
114	60512	52496
116	59280	51888
118	52096	45616
120	49072	43568
122	46192	41296
124	43456	39664
126	42432	38928
128	80688	74928
132	71616	67456
136	66704	63136
140	61680	58688
144	57344	55328
148	54768	53312
152	52240	50864
156	47664	46512
160	43216	42320
164	40832	40128
168	41872	41424
172	38432	38032
176	38672	38432
180	37168	36800
184	35216	35056
188	33216	33040
192	31296	31168
196	30384	30352
200	28848	28768
204	28960	28912
208	27056	26960
212	26368	26288
216	25104	25040
220	23840	23792
224	24272	24240
228	23600	23584
232	22848	22768
236	21584	21520
240	20416	20336
244	20288	20240
248	19424	19392
252	18736	18704
256	35408	35312
264	34960	34896
272	33008	32928
280	31488	31440
288	27696	27616
296	27616	27568
304	27424	27328
312	25296	25264
320	24256	24144
328	23760	23712
336	23504	23472
344	22160	22096
352	20448	20416
360	21232	21152
368	19664	19600
376	18896	18880
384	19264	19184
392	17344	17264
400	17056	16976
408	15072	15040
416	15856	15856
424	15680	15648
432	14576	14512
440	14848	14832
448	13248	13200
456	13312	13312
464	12768	12720
472	12848	12832
480	12304	12288
488	11840	11776
496	10784	10768
504	11360	11296
512	21440	21344
528	21520	21376
544	19552	19392
560	19328	19200
576	18176	18016
592	17264	17024
608	16768	16656
624	15488	15312
640	15536	15424
656	14320	14176
672	14288	14192
688	13840	13712
704	13056	12912
720	12304	12144
736	11856	11760
752	12560	12448
768	10992	10832
784	11328	11248
800	10816	10688
816	10656	10528
832	9408	9296
848	9968	9792
864	9136	8960
880	8720	8608
896	8912	8688
912	9280	9120
928	9088	8976
944	8832	8704
960	8336	8240
976	8416	8288
992	7728	7584
1008	8032	7760
1024	14704	14448
1056	15744	15376
1088	14688	14432
1120	14064	13648
1152	14000	13504
1184	12704	12224
1216	12720	12384
1248	13008	12608
1280	12592	12208
1312	12112	11664
1344	13040	12608
1376	11520	11120
1408	12848	12384
1440	11488	11008
1472	11024	10592
1504	11088	10752
1536	12096	11648
1568	10704	10272
1600	12032	11536
1632	11344	10992
1664	11152	10560
1696	10752	10464
1728	11520	10960
1760	10768	10304
1792	10896	10272
1824	11232	10608
1856	11344	10704
1888	10736	10304
1920	11424	10848
1952	11520	10784
1984	12144	11392
2016	12784	12128
2048	23712	22432
2112	23760	22864
2176	23664	22160
2240	22912	21504
2304	24096	22800
2368	23040	21904
2432	24736	23392
2496	25056	23728
2560	26208	24640
2624	25184	23712
2688	26208	24976
2752	26320	24704
2816	26384	24784
2880	26720	25216
2944	28288	26480
3008	27248	25504
3072	28032	26320
3136	29936	28240
3200	30048	28208
3264	29952	27824
3328	31744	29808
3392	34624	32272
3456	33600	31552
3520	33584	31248
3584	33680	31376
3648	31536	28928
3712	33568	31552
3776	36096	33584
3840	37472	35280
3904	37504	35184
3968	38480	35792
4032	40896	38384
4096	78560	73744
4224	79792	74352
4352	83584	77824
4480	88768	83072
4608	94160	88144
4736	95520	89120
4864	94224	88192
4992	98656	91856
5120	100320	93632
5248	102912	95872
5376	107824	100864
5504	108640	100912
5632	110624	102624
5760	121456	113344
5888	135584	126848
6016	139984	131968
6144	141600	132640
6272	142672	134384
6400	142464	133088
6528	146144	136928
6656	153760	144384
6784	149792	140576
6912	151520	142480
7040	149856	140656
7168	150464	140144
7296	158128	148320
7424	165184	154240
7552	175744	164576
7680	176896	166048
7808	177920	167488
7936	184528	173280
8064	181008	170080
8192	361808	338752
8448	387040	361712
8704	411840	384272
8960	441344	412896
9216	474656	444544
9472	488816	457488
9728	545680	508336
9984	629056	588784
10240	717408	672944
10496	749920	704480
10752	763744	714864
11008	782176	732096
11264	808224	760720
11520	770544	725024
11776	750048	705264
12032	748800	702576
12288	745216	699328
12544	736656	691184
12800	703232	663376
13056	692176	653712
13312	634928	599568
13568	573984	539056
13824	507936	477344
14080	500896	472608
14336	450832	425024
14592	370224	349296
14848	328432	310160
15104	303280	286448
15360	258352	242624
15616	203616	190640
15872	172880	162192
16128	156864	147136
16384	278736	259856
16896	250656	232224
17408	274944	257264
17920	227552	211888
18432	182416	167728
18944	195312	181872
19456	170192	158976
19968	145456	133584
20480	151344	141088
20992	111424	102912
21504	73008	65792
22016	58320	51648
22528	55360	48864
23040	49984	44096
23552	57312	51920
24064	37168	31200
24576	36064	31200
25088	31632	26848
25600	25104	20064
26112	23872	18800
26624	20864	16416
27136	21120	16592
27648	14560	10176
28160	11888	7424
28672	9216	4896
29184	8432	4032
29696	7536	3584
30208	8080	3808
30720	8272	4256
31232	8496	3952
31744	8448	4064
32256	8096	4144
32768	16848	8144
33792	16576	7488
34816	16496	7408
35840	17488	8144
36864	17664	8224
37888	18496	8240
38912	18944	9536
39936	18512	8496
40960	18784	8224
41984	18464	8768
43008	18784	8496
44032	18960	8384
45056	18672	8288
46080	18592	8256
47104	18560	7936
48128	18784	8032
49152	18752	7776
50176	20432	8656
51200	20192	8736
52224	19792	8816
53248	21408	9648
54272	20512	8256
55296	20544	8544
56320	20480	9200
57344	20960	8784
58368	21328	8688
59392	22272	9824
60416	21344	9152
61440	21728	9072
62464	22016	9392
63488	23088	9328
64512	22400	9488
65536	45712	19472
67584	46688	19664
69632	44288	19936
71680	45600	20688
73728	45328	21088
75776	46688	21600
77824	45936	20304
79872	48560	21456
81920	48464	21232
83968	50768	22016
86016	48576	22480
88064	46496	22096
90112	44368	22912
92160	45744	23344
94208	44592	23696
96256	46240	25216
98304	44160	24816
100352	48416	26240
102400	46048	26896
104448	48096	27600
106496	59952	27824
108544	109152	33664
110592	47168	25984
112640	46384	25696
114688	46080	25360
116736	121904	34736
118784	47072	26080
120832	45216	24864
122880	45424	24944
124928	120016	32416
126976	44944	24208
129024	45424	24848
131072	101136	50688
135168	150832	54656
139264	88576	48688
143360	234544	65760
147456	94768	50448
151552	188128	58992
155648	206832	61232
159744	91776	47472
163840	86528	46816
167936	88288	48112
172032	157424	54496
176128	231152	63792
180224	86384	47552
184320	231568	62928
188416	89584	48176
192512	154256	54000
196608	228816	64208
200704	90128	47152
204800	156832	53584
208896	224096	61488
212992	264464	67392
217088	199344	58512
221184	157184	55552
225280	81600	43424
229376	83440	45552
233472	155392	51888
237568	101392	47120
241664	135376	51776
245760	152704	53568
249856	218896	61424
253952	160704	52624
258048	82928	45632
262144	307776	105248
270336	308560	106800
278528	305840	105824
286720	163776	89088
294912	162320	89664
303104	231840	96032
311296	442512	121696
319488	441184	122480
327680	162336	87872
335872	369312	112384
344064	158752	89328
352256	160176	88496
360448	229584	96768
368640	237680	100928
376832	358256	112080
385024	364816	112720
393216	236448	98592
401408	284928	102592
409600	222912	95344
417792	171440	89920
425984	344688	112016
434176	223888	96688
442368	291872	104832
450560	224000	97536
458752	291152	105200
466944	226032	96624
475136	225728	97616
483328	156576	88288
491520	158528	89584
499712	222064	96912
507904	217024	95440
516096	220720	97408
524288	376400	186912
540672	761968	233872
557056	409280	188144
573440	393680	186256
589824	498848	204528
606208	424608	190544
622592	369152	187808
638976	365120	185872
655360	491136	205584
671744	420224	193792
688128	544784	210336
704512	467312	202128
720896	556112	213408
737280	415648	191360
753664	419712	198160
770048	478800	203200
786432	472368	204144
802816	412832	197632
819200	410176	196912
835584	405136	196352
851968	521744	212816
868352	596944	222752
884736	598864	227008
901120	323760	183600
917504	498432	209728
933888	385472	197328
950272	392880	197680
966656	391360	194160
983040	353632	190944
999424	424784	199152
1015808	434640	199632
1032192	491088	212880
1048576	965248	418720
1081344	900096	410000
1114112	682352	374336
1146880	1033520	436000
1179648	949664	413520
1212416	903056	413104
1245184	883760	404512
1277952	780912	390272
1310720	942640	416608
1343488	767616	380688
1376256	746672	384448
1409024	685136	368576
1441792	575120	340832
1474560	784800	386240
1507328	642496	357920
1540096	748944	372864
1572864	670288	365280
1605632	688080	364112
1638400	617440	336528
1671168	489056	306528
1703936	697024	351216
1736704	675664	345056
1769472	614144	332800
1802240	439264	284800
1835008	573056	316432
1867776	416112	276080
1900544	588000	315056
1933312	455680	277984
1966080	595360	312208
1998848	411920	258960
2031616	461040	268672
2064384	480432	278992
2097152	724816	478192
2162688	844272	503216
2228224	692752	451680
2293760	624496	419376
2359296	329488	288560
2424832	258816	258656
2490368	237440	237344
2555904	224064	224032
2621440	220720	220688
2686976	199024	198944
2752512	199952	199872
2818048	205536	205520
2883584	207488	207440
2949120	185248	185216
3014656	180400	180352
3080192	169024	168992
3145728	187600	187552
3211264	223648	223632
3276800	166816	166816
3342336	142640	142608
3407872	135344	135296
3473408	120576	120560
3538944	113088	113072
3604480	105424	105376
3670016	102560	102544
3735552	103520	103504
3801088	98032	97984
3866624	87536	87504
3932160	92464	92432
3997696	83136	83120
4063232	76576	76480
4128768	67328	67312
4194304	106032	105968
4325376	111968	111904
4456448	99904	99856
4587520	91232	91216
4718592	90272	90256
4849664	74096	74096
4980736	60704	60656
5111808	56720	56640
5242880	57648	57568
5373952	59776	59696
5505024	57792	57776
5636096	44288	44240
5767168	40752	40704
5898240	37872	37824
6029312	59216	59216
6160384	44768	44736
6291456	37728	37696
6422528	40192	40176
6553600	37952	37952
6684672	50544	50544
6815744	38992	38880
6946816	33568	33536
7077888	34288	34256
7208960	28320	28320
7340032	22944	22944
7471104	23056	23056
7602176	21024	21024
7733248	19104	19088
7864320	18624	18608
7995392	14464	14464
8126464	12608	12608
8257536	12496	12496
8388608	19952	19920
8650752	11168	11152
8912896	8320	8224
9175040	9744	9744
9437184	12816	12768
9699328	8064	8032
9961472	8240	8192
10223616	10016	9984
10485760	4864	4752
10747904	4080	4048
11010048	5392	5392
11272192	8672	8592
11534336	8096	8096
11796480	5840	5840
12058624	2768	2768
12320768	3760	3760
12582912	3264	3248
12845056	2880	2832
13107200	1488	1472
13369344	1920	1904
13631488	1744	1744
13893632	1488	1488
14155776	2160	2160
14417920	1328	1296
14680064	624	592
14942208	1744	1712
15204352	800	800
15466496	608	592
15728640	1008	992
15990784	752	752
16252928	976	960
16515072	416	416
16777216	1296	1280
17301504	1296	1296
17825792	528	496
18350080	288	224
18874368	160	160
19398656	544	544
19922944	496	448
20447232	272	240
20971520	192	128
21495808	144	144
22020096	416	400
22544384	80	48
23068672	128	80
23592960	304	272
24117248	80	80
24641536	64	64
25165824	208	208
25690112	320	304
26214400	64	48
26738688	32	32
27262976	48	48
27787264	96	64
28311552	48	16
28835840	48	48
29360128	16	16
29884416	176	176
30408704	160	128
30932992	96	96
31457280	64	64
31981568	32	32
32505856	48	48
33030144	48	48
33554432	96	64
34603008	112	112
35651584	144	80
36700160	144	128
37748736	32	32
38797312	176	80
39845888	32	16
40894464	80	64
41943040	96	48
42991616	192	80
44040192	160	96
45088768	112	112
46137344	96	64
47185920	160	128
48234496	32	32
49283072	256	160
50331648	32	32
51380224	96	64
52428800	128	80
53477376	128	64
54525952	64	64
55574528	80	32
56623104	96	64
57671680	176	48
58720256	80	80
59768832	48	48
60817408	48	48
61865984	112	64
62914560	16	16
63963136	96	48
65011712	144	96
66060288	128	128
67108864	80	80
69206016	128	112
71303168	176	96
73400320	192	176
75497472	176	96
77594624	80	80
79691776	144	144
81788928	64	16
83886080	128	64
85983232	112	96
88080384	144	96
90177536	208	128
92274688	32	32
94371840	112	80
96468992	64	64
98566144	128	64
100663296	128	80
102760448	96	96
104857600	80	32
106954752	240	176
109051904	64	16
111149056	192	144
113246208	80	48
115343360	16	16
117440512	160	96
119537664	64	64
121634816	96	96
123731968	96	80
125829120	112	64
127926272	128	96
130023424	112	32
132120576	176	112
134217728	96	80
138412032	96	48
142606336	128	112
146800640	208	176
150994944	128	64
155189248	128	80
159383552	80	16
163577856	176	160
167772160	112	96
171966464	80	64
176160768	0	0
180355072	128	112
184549376	80	32
188743680	64	64
192937984	96	80
197132288	48	32
201326592	112	112
205520896	64	48
209715200	16	16
213909504	80	80
218103808	16	16
222298112	48	32
226492416	16	16
230686720	32	16
234881024	16	16
239075328	16	16
243269632	0	0
247463936	0	0
251658240	16	16
255852544	32	16
260046848	16	16
264241152	0	0
268435456	96	80
276824064	48	48
285212672	48	48
293601280	32	32
301989888	96	32
310378496	16	16
318767104	32	32
327155712	16	16
335544320	32	32
343932928	0	0
352321536	16	16
360710144	16	0
369098752	48	48
377487360	16	16
385875968	16	16
394264576	64	32
402653184	0	0
411041792	48	48
419430400	16	16
427819008	32	16
436207616	0	0
444596224	16	16
452984832	0	0
461373440	0	0
469762048	0	0
478150656	16	16
486539264	0	0
494927872	32	32
503316480	0	0
511705088	48	0
520093696	0	0
528482304	0	0
536870912	0	0
553648128	0	0
570425344	0	0
587202560	0	0
603979776	0	0
620756992	0	0
637534208	0	0
654311424	0	0
671088640	0	0
687865856	0	0
704643072	0	0
721420288	0	0
738197504	0	0
754974720	0	0
771751936	0	0
788529152	0	0
805306368	0	0
822083584	0	0
838860800	0	0
855638016	0	0
872415232	0	0
889192448	0	0
905969664	0	0
922746880	0	0
939524096	0	0
956301312	0	0
973078528	0	0
989855744	0	0
1006632960	0	0
1023410176	0	0
1040187392	0	0
1056964608	0	0
1073741824	0	0
1107296256	0	0
1140850688	0	0
1174405120	0	0
1207959552	0	0
1241513984	0	0
1275068416	0	0
1308622848	0	0
1342177280	0	0
1375731712	0	0
1409286144	0	0
1442840576	0	0
1476395008	0	0
1509949440	0	0
1543503872	0	0
1577058304	0	0
1610612736	0	0
1644167168	0	0
1677721600	0	0
1711276032	0	0
1744830464	0	0
1778384896	0	0
1811939328	0	0
1845493760	0	0
1879048192	0	0
1912602624	0	0
1946157056	0	0
1979711488	0	0
2013265920	0	0
2046820352	0	0
2080374784	0	0
2113929216	0	0
2147483648	0	0
2214592512	0	0
2281701376	0	0
2348810240	0	0
2415919104	0	0
2483027968	0	0
2550136832	0	0
2617245696	0	0
2684354560	0	0
2751463424	0	0
2818572288	0	0
2885681152	0	0
2952790016	0	0
3019898880	0	0
3087007744	0	0
3154116608	0	0
3221225472	0	0
3288334336	0	0
3355443200	0	0
3422552064	0	0
3489660928	0	0
3556769792	0	0
3623878656	0	0
3690987520	0	0
3758096384	0	0
3825205248	0	0
3892314112	0	0
3959422976	0	0
4026531840	0	0
4093640704	0	0
4160749568	0	0
4227858432	0	0
~~~~~~~~~~Reuse Distance Profiler output end~~~~~~~~~~

Sampler size:9427

DRAM Statistics
 CHANNEL 0
 RQ ROW_BUFFER_HIT:     312850  ROW_BUFFER_MISS:   55122806
 DBUS AVG_CONGESTED_CYCLE:    4.00432
 WQ ROW_BUFFER_HIT:    6661075  ROW_BUFFER_MISS:   30178002  FULL:          0


CPU 0 Branch Prediction Accuracy: 89.3481% MPKI: 20.8104 Average ROB Occupancy at Mispredict: 27.5272
Branch type MPKI
BRANCH_DIRECT_JUMP: 6e-06
BRANCH_INDIRECT: 0
BRANCH_CONDITIONAL: 20.8104
BRANCH_DIRECT_CALL: 6.66667e-07
BRANCH_INDIRECT_CALL: 3.46667e-05
BRANCH_RETURN: 6.66667e-07

