
*** ChampSim Multicore Out-of-Order Simulator ***

Warmup Instructions: 50000000
Simulation Instructions: 1500000000
Number of CPUs: 1
Off-chip DRAM Size: 4 GiB Channels: 1 Width: 64-bit Data Rate: 3200 MT/s

VirtualMemory physical capacity: 8588881920 num_ppages: 2096895
VirtualMemory page size: 4096 log2_page_size: 12

CPU 0 runs /s/traces/champsim_traces/473.astar-153B.champsimtrace.xz
CPU 0 Bimodal branch predictor
Basic BTB sets: 1024 ways: 8 indirect buffer size: 4096 RAS size: 64
Initializing LRU.
Initializing LRU.
Initializing LRU.
Initializing LRU.
Initializing rdLRU.
Initializing LRU.
Heartbeat CPU 0 instructions: 2000001 cycles: 500081 heartbeat IPC: 3.99935 cumulative IPC: 3.99935 (Simulation time: 0 hr 0 min 58 sec) 
Heartbeat CPU 0 instructions: 4000001 cycles: 1000081 heartbeat IPC: 4 cumulative IPC: 3.99968 (Simulation time: 0 hr 2 min 9 sec) 
Heartbeat CPU 0 instructions: 6000001 cycles: 1500081 heartbeat IPC: 4 cumulative IPC: 3.99978 (Simulation time: 0 hr 3 min 17 sec) 
Heartbeat CPU 0 instructions: 8000001 cycles: 2000081 heartbeat IPC: 4 cumulative IPC: 3.99984 (Simulation time: 0 hr 4 min 25 sec) 
Heartbeat CPU 0 instructions: 10000001 cycles: 2500081 heartbeat IPC: 4 cumulative IPC: 3.99987 (Simulation time: 0 hr 5 min 33 sec) 
Heartbeat CPU 0 instructions: 12000001 cycles: 3000081 heartbeat IPC: 4 cumulative IPC: 3.99989 (Simulation time: 0 hr 6 min 37 sec) 
Heartbeat CPU 0 instructions: 14000001 cycles: 3500081 heartbeat IPC: 4 cumulative IPC: 3.99991 (Simulation time: 0 hr 7 min 41 sec) 
Heartbeat CPU 0 instructions: 16000001 cycles: 4000081 heartbeat IPC: 4 cumulative IPC: 3.99992 (Simulation time: 0 hr 8 min 47 sec) 
Heartbeat CPU 0 instructions: 18000001 cycles: 4500081 heartbeat IPC: 4 cumulative IPC: 3.99993 (Simulation time: 0 hr 9 min 51 sec) 
Heartbeat CPU 0 instructions: 20000001 cycles: 5000081 heartbeat IPC: 4 cumulative IPC: 3.99994 (Simulation time: 0 hr 10 min 59 sec) 
Heartbeat CPU 0 instructions: 22000001 cycles: 5500081 heartbeat IPC: 4 cumulative IPC: 3.99994 (Simulation time: 0 hr 12 min 7 sec) 
Heartbeat CPU 0 instructions: 24000001 cycles: 6000081 heartbeat IPC: 4 cumulative IPC: 3.99995 (Simulation time: 0 hr 13 min 13 sec) 
Heartbeat CPU 0 instructions: 26000001 cycles: 6500081 heartbeat IPC: 4 cumulative IPC: 3.99995 (Simulation time: 0 hr 14 min 19 sec) 
Heartbeat CPU 0 instructions: 28000001 cycles: 7000081 heartbeat IPC: 4 cumulative IPC: 3.99995 (Simulation time: 0 hr 15 min 28 sec) 
Heartbeat CPU 0 instructions: 30000001 cycles: 7500081 heartbeat IPC: 4 cumulative IPC: 3.99996 (Simulation time: 0 hr 16 min 31 sec) 
Heartbeat CPU 0 instructions: 32000001 cycles: 8000081 heartbeat IPC: 4 cumulative IPC: 3.99996 (Simulation time: 0 hr 17 min 37 sec) 
Heartbeat CPU 0 instructions: 34000001 cycles: 8500081 heartbeat IPC: 4 cumulative IPC: 3.99996 (Simulation time: 0 hr 18 min 40 sec) 
Heartbeat CPU 0 instructions: 36000001 cycles: 9000081 heartbeat IPC: 4 cumulative IPC: 3.99996 (Simulation time: 0 hr 19 min 37 sec) 
Heartbeat CPU 0 instructions: 38000001 cycles: 9500081 heartbeat IPC: 4 cumulative IPC: 3.99997 (Simulation time: 0 hr 20 min 38 sec) 
Heartbeat CPU 0 instructions: 40000001 cycles: 10000081 heartbeat IPC: 4 cumulative IPC: 3.99997 (Simulation time: 0 hr 21 min 41 sec) 
Heartbeat CPU 0 instructions: 42000001 cycles: 10500081 heartbeat IPC: 4 cumulative IPC: 3.99997 (Simulation time: 0 hr 22 min 47 sec) 
Heartbeat CPU 0 instructions: 44000001 cycles: 11000081 heartbeat IPC: 4 cumulative IPC: 3.99997 (Simulation time: 0 hr 23 min 54 sec) 
Heartbeat CPU 0 instructions: 46000001 cycles: 11500081 heartbeat IPC: 4 cumulative IPC: 3.99997 (Simulation time: 0 hr 24 min 58 sec) 
Heartbeat CPU 0 instructions: 48000001 cycles: 12000081 heartbeat IPC: 4 cumulative IPC: 3.99997 (Simulation time: 0 hr 26 min 3 sec) 
Heartbeat CPU 0 instructions: 50000001 cycles: 12500081 heartbeat IPC: 4 cumulative IPC: 3.99997 (Simulation time: 0 hr 27 min 7 sec) 

Warmup complete CPU 0 instructions: 50000001 cycles: 12500081 (Simulation time: 0 hr 27 min 7 sec) 

Heartbeat CPU 0 instructions: 52000003 cycles: 14930705 heartbeat IPC: 0.822835 cumulative IPC: 0.822835 (Simulation time: 0 hr 28 min 18 sec) 

Region of Interest Statistics
cpu0_DTLB TOTAL     ACCESS:     499302  HIT:     493676  MISS:       5626
cpu0_DTLB LOAD      ACCESS:     391557  HIT:     385992  MISS:       5565
cpu0_DTLB RFO       ACCESS:     107745  HIT:     107684  MISS:         61
cpu0_DTLB PREFETCH  ACCESS:          0  HIT:          0  MISS:          0
cpu0_DTLB WRITEBACK ACCESS:          0  HIT:          0  MISS:          0
cpu0_ITLB TOTAL     ACCESS:     227834  HIT:     227834  MISS:          0
cpu0_ITLB LOAD      ACCESS:     227834  HIT:     227834  MISS:          0
cpu0_ITLB RFO       ACCESS:          0  HIT:          0  MISS:          0
cpu0_ITLB PREFETCH  ACCESS:          0  HIT:          0  MISS:          0
cpu0_ITLB WRITEBACK ACCESS:          0  HIT:          0  MISS:          0
cpu0_STLB TOTAL     ACCESS:       5626  HIT:       5444  MISS:        182
cpu0_STLB LOAD      ACCESS:       5565  HIT:       5389  MISS:        176
cpu0_STLB RFO       ACCESS:         61  HIT:         55  MISS:          6
cpu0_STLB PREFETCH  ACCESS:          0  HIT:          0  MISS:          0
cpu0_STLB WRITEBACK ACCESS:          0  HIT:          0  MISS:          0
cpu0_L1D TOTAL     ACCESS:     606656  HIT:     600098  MISS:       6558
cpu0_L1D LOAD      ACCESS:     343677  HIT:     337643  MISS:       6034
cpu0_L1D RFO       ACCESS:     262797  HIT:     262274  MISS:        523
cpu0_L1D PREFETCH  ACCESS:          0  HIT:          0  MISS:          0
cpu0_L1D WRITEBACK ACCESS:          0  HIT:          0  MISS:          0
cpu0_L2C TOTAL     ACCESS:       9923  HIT:       5137  MISS:       4786
cpu0_L2C LOAD      ACCESS:       6030  HIT:       1709  MISS:       4321
cpu0_L2C RFO       ACCESS:        523  HIT:         59  MISS:        464
cpu0_L2C PREFETCH  ACCESS:          0  HIT:          0  MISS:          0
cpu0_L2C WRITEBACK ACCESS:       3369  HIT:       3368  MISS:          1
LLC TOTAL     ACCESS:       7668  HIT:       5199  MISS:       2469
LLC LOAD      ACCESS:       4321  HIT:       2313  MISS:       2008
LLC RFO       ACCESS:        464  HIT:        147  MISS:        317
LLC PREFETCH  ACCESS:          0  HIT:          0  MISS:          0
LLC WRITEBACK ACCESS:       2883  HIT:       2739  MISS:        144
Heartbeat CPU 0 instructions: 54000000 cycles: 17433004 heartbeat IPC: 0.799264 cumulative IPC: 0.810878 (Simulation time: 0 hr 29 min 34 sec) 

Region of Interest Statistics
cpu0_DTLB TOTAL     ACCESS:     998947  HIT:     987497  MISS:      11450
cpu0_DTLB LOAD      ACCESS:     783359  HIT:     771993  MISS:      11366
cpu0_DTLB RFO       ACCESS:     215588  HIT:     215504  MISS:         84
cpu0_DTLB PREFETCH  ACCESS:          0  HIT:          0  MISS:          0
cpu0_DTLB WRITEBACK ACCESS:          0  HIT:          0  MISS:          0
cpu0_ITLB TOTAL     ACCESS:     456772  HIT:     456772  MISS:          0
cpu0_ITLB LOAD      ACCESS:     456772  HIT:     456772  MISS:          0
cpu0_ITLB RFO       ACCESS:          0  HIT:          0  MISS:          0
cpu0_ITLB PREFETCH  ACCESS:          0  HIT:          0  MISS:          0
cpu0_ITLB WRITEBACK ACCESS:          0  HIT:          0  MISS:          0
cpu0_STLB TOTAL     ACCESS:      11450  HIT:      11087  MISS:        363
cpu0_STLB LOAD      ACCESS:      11366  HIT:      11016  MISS:        350
cpu0_STLB RFO       ACCESS:         84  HIT:         71  MISS:         13
cpu0_STLB PREFETCH  ACCESS:          0  HIT:          0  MISS:          0
cpu0_STLB WRITEBACK ACCESS:          0  HIT:          0  MISS:          0
cpu0_L1D TOTAL     ACCESS:    1211857  HIT:    1198388  MISS:      13469
cpu0_L1D LOAD      ACCESS:     686287  HIT:     673877  MISS:      12410
cpu0_L1D RFO       ACCESS:     525207  HIT:     524155  MISS:       1052
cpu0_L1D PREFETCH  ACCESS:          0  HIT:          0  MISS:          0
cpu0_L1D WRITEBACK ACCESS:          0  HIT:          0  MISS:          0
cpu0_L2C TOTAL     ACCESS:      20433  HIT:       9991  MISS:      10442
cpu0_L2C LOAD      ACCESS:      12406  HIT:       2923  MISS:       9483
cpu0_L2C RFO       ACCESS:       1052  HIT:         94  MISS:        958
cpu0_L2C PREFETCH  ACCESS:          0  HIT:          0  MISS:          0
cpu0_L2C WRITEBACK ACCESS:       6968  HIT:       6967  MISS:          1
LLC TOTAL     ACCESS:      16618  HIT:      11075  MISS:       5543
LLC LOAD      ACCESS:       9483  HIT:       4939  MISS:       4544
LLC RFO       ACCESS:        958  HIT:        288  MISS:        670
LLC PREFETCH  ACCESS:          0  HIT:          0  MISS:          0
LLC WRITEBACK ACCESS:       6177  HIT:       5848  MISS:        329
Heartbeat CPU 0 instructions: 56000000 cycles: 19861305 heartbeat IPC: 0.823621 cumulative IPC: 0.815082 (Simulation time: 0 hr 30 min 44 sec) 

Region of Interest Statistics
cpu0_DTLB TOTAL     ACCESS:    1496240  HIT:    1479544  MISS:      16696
cpu0_DTLB LOAD      ACCESS:    1172787  HIT:    1156217  MISS:      16570
cpu0_DTLB RFO       ACCESS:     323453  HIT:     323327  MISS:        126
cpu0_DTLB PREFETCH  ACCESS:          0  HIT:          0  MISS:          0
cpu0_DTLB WRITEBACK ACCESS:          0  HIT:          0  MISS:          0
cpu0_ITLB TOTAL     ACCESS:     684128  HIT:     684128  MISS:          0
cpu0_ITLB LOAD      ACCESS:     684128  HIT:     684128  MISS:          0
cpu0_ITLB RFO       ACCESS:          0  HIT:          0  MISS:          0
cpu0_ITLB PREFETCH  ACCESS:          0  HIT:          0  MISS:          0
cpu0_ITLB WRITEBACK ACCESS:          0  HIT:          0  MISS:          0
cpu0_STLB TOTAL     ACCESS:      16696  HIT:      16187  MISS:        509
cpu0_STLB LOAD      ACCESS:      16570  HIT:      16075  MISS:        495
cpu0_STLB RFO       ACCESS:        126  HIT:        112  MISS:         14
cpu0_STLB PREFETCH  ACCESS:          0  HIT:          0  MISS:          0
cpu0_STLB WRITEBACK ACCESS:          0  HIT:          0  MISS:          0
cpu0_L1D TOTAL     ACCESS:    1816174  HIT:    1796311  MISS:      19863
cpu0_L1D LOAD      ACCESS:    1027601  HIT:    1009311  MISS:      18290
cpu0_L1D RFO       ACCESS:     788064  HIT:     786500  MISS:       1564
cpu0_L1D PREFETCH  ACCESS:          0  HIT:          0  MISS:          0
cpu0_L1D WRITEBACK ACCESS:          0  HIT:          0  MISS:          0
cpu0_L2C TOTAL     ACCESS:      30125  HIT:      14695  MISS:      15430
cpu0_L2C LOAD      ACCESS:      18283  HIT:       4281  MISS:      14002
cpu0_L2C RFO       ACCESS:       1564  HIT:        137  MISS:       1427
cpu0_L2C PREFETCH  ACCESS:          0  HIT:          0  MISS:          0
cpu0_L2C WRITEBACK ACCESS:      10269  HIT:      10268  MISS:          1
LLC TOTAL     ACCESS:      24384  HIT:      16267  MISS:       8117
LLC LOAD      ACCESS:      14002  HIT:       7391  MISS:       6611
LLC RFO       ACCESS:       1427  HIT:        449  MISS:        978
LLC PREFETCH  ACCESS:          0  HIT:          0  MISS:          0
LLC WRITEBACK ACCESS:       8955  HIT:       8427  MISS:        528
Heartbeat CPU 0 instructions: 58000002 cycles: 22228771 heartbeat IPC: 0.844786 cumulative IPC: 0.82231 (Simulation time: 0 hr 31 min 54 sec) 

Region of Interest Statistics
cpu0_DTLB TOTAL     ACCESS:    1997034  HIT:    1975619  MISS:      21415
cpu0_DTLB LOAD      ACCESS:    1565883  HIT:    1544688  MISS:      21195
cpu0_DTLB RFO       ACCESS:     431151  HIT:     430931  MISS:        220
cpu0_DTLB PREFETCH  ACCESS:          0  HIT:          0  MISS:          0
cpu0_DTLB WRITEBACK ACCESS:          0  HIT:          0  MISS:          0
cpu0_ITLB TOTAL     ACCESS:     912056  HIT:     912056  MISS:          0
cpu0_ITLB LOAD      ACCESS:     912056  HIT:     912056  MISS:          0
cpu0_ITLB RFO       ACCESS:          0  HIT:          0  MISS:          0
cpu0_ITLB PREFETCH  ACCESS:          0  HIT:          0  MISS:          0
cpu0_ITLB WRITEBACK ACCESS:          0  HIT:          0  MISS:          0
cpu0_STLB TOTAL     ACCESS:      21415  HIT:      20763  MISS:        652
cpu0_STLB LOAD      ACCESS:      21195  HIT:      20588  MISS:        607
cpu0_STLB RFO       ACCESS:        220  HIT:        175  MISS:         45
cpu0_STLB PREFETCH  ACCESS:          0  HIT:          0  MISS:          0
cpu0_STLB WRITEBACK ACCESS:          0  HIT:          0  MISS:          0
cpu0_L1D TOTAL     ACCESS:    2424973  HIT:    2399661  MISS:      25312
cpu0_L1D LOAD      ACCESS:    1374272  HIT:    1351386  MISS:      22886
cpu0_L1D RFO       ACCESS:    1050049  HIT:    1047633  MISS:       2416
cpu0_L1D PREFETCH  ACCESS:          0  HIT:          0  MISS:          0
cpu0_L1D WRITEBACK ACCESS:          0  HIT:          0  MISS:          0
cpu0_L2C TOTAL     ACCESS:      38585  HIT:      19386  MISS:      19199
cpu0_L2C LOAD      ACCESS:      22877  HIT:       5867  MISS:      17010
cpu0_L2C RFO       ACCESS:       2416  HIT:        229  MISS:       2187
cpu0_L2C PREFETCH  ACCESS:          0  HIT:          0  MISS:          0
cpu0_L2C WRITEBACK ACCESS:      13282  HIT:      13280  MISS:          2
LLC TOTAL     ACCESS:      30506  HIT:      20308  MISS:      10198
LLC LOAD      ACCESS:      17010  HIT:       9001  MISS:       8009
LLC RFO       ACCESS:       2187  HIT:        674  MISS:       1513
LLC PREFETCH  ACCESS:          0  HIT:          0  MISS:          0
LLC WRITEBACK ACCESS:      11309  HIT:      10633  MISS:        676
Heartbeat CPU 0 instructions: 60000001 cycles: 24539373 heartbeat IPC: 0.865575 cumulative IPC: 0.830614 (Simulation time: 0 hr 32 min 55 sec) 

Region of Interest Statistics
cpu0_DTLB TOTAL     ACCESS:    2501711  HIT:    2477284  MISS:      24427
cpu0_DTLB LOAD      ACCESS:    1962816  HIT:    1938708  MISS:      24108
cpu0_DTLB RFO       ACCESS:     538895  HIT:     538576  MISS:        319
cpu0_DTLB PREFETCH  ACCESS:          0  HIT:          0  MISS:          0
cpu0_DTLB WRITEBACK ACCESS:          0  HIT:          0  MISS:          0
cpu0_ITLB TOTAL     ACCESS:    1140745  HIT:    1140745  MISS:          0
cpu0_ITLB LOAD      ACCESS:    1140745  HIT:    1140745  MISS:          0
cpu0_ITLB RFO       ACCESS:          0  HIT:          0  MISS:          0
cpu0_ITLB PREFETCH  ACCESS:          0  HIT:          0  MISS:          0
cpu0_ITLB WRITEBACK ACCESS:          0  HIT:          0  MISS:          0
cpu0_STLB TOTAL     ACCESS:      24427  HIT:      23710  MISS:        717
cpu0_STLB LOAD      ACCESS:      24108  HIT:      23476  MISS:        632
cpu0_STLB RFO       ACCESS:        319  HIT:        234  MISS:         85
cpu0_STLB PREFETCH  ACCESS:          0  HIT:          0  MISS:          0
cpu0_STLB WRITEBACK ACCESS:          0  HIT:          0  MISS:          0
cpu0_L1D TOTAL     ACCESS:    3039626  HIT:    3009919  MISS:      29707
cpu0_L1D LOAD      ACCESS:    1728010  HIT:    1702165  MISS:      25845
cpu0_L1D RFO       ACCESS:    1310899  HIT:    1307059  MISS:       3840
cpu0_L1D PREFETCH  ACCESS:          0  HIT:          0  MISS:          0
cpu0_L1D WRITEBACK ACCESS:          0  HIT:          0  MISS:          0
cpu0_L2C TOTAL     ACCESS:      45806  HIT:      24006  MISS:      21800
cpu0_L2C LOAD      ACCESS:      25836  HIT:       7572  MISS:      18264
cpu0_L2C RFO       ACCESS:       3840  HIT:        306  MISS:       3534
cpu0_L2C PREFETCH  ACCESS:          0  HIT:          0  MISS:          0
cpu0_L2C WRITEBACK ACCESS:      16108  HIT:      16106  MISS:          2
LLC TOTAL     ACCESS:      34784  HIT:      22510  MISS:      12274
LLC LOAD      ACCESS:      18264  HIT:       9450  MISS:       8814
LLC RFO       ACCESS:       3534  HIT:        887  MISS:       2647
LLC PREFETCH  ACCESS:          0  HIT:          0  MISS:          0
LLC WRITEBACK ACCESS:      12986  HIT:      12173  MISS:        813
Heartbeat CPU 0 instructions: 62000003 cycles: 26977909 heartbeat IPC: 0.820165 cumulative IPC: 0.828854 (Simulation time: 0 hr 34 min 11 sec) 

Region of Interest Statistics
cpu0_DTLB TOTAL     ACCESS:    3002179  HIT:    2972754  MISS:      29425
cpu0_DTLB LOAD      ACCESS:    2355543  HIT:    2326518  MISS:      29025
cpu0_DTLB RFO       ACCESS:     646636  HIT:     646236  MISS:        400
cpu0_DTLB PREFETCH  ACCESS:          0  HIT:          0  MISS:          0
cpu0_DTLB WRITEBACK ACCESS:          0  HIT:          0  MISS:          0
cpu0_ITLB TOTAL     ACCESS:    1369332  HIT:    1369332  MISS:          0
cpu0_ITLB LOAD      ACCESS:    1369332  HIT:    1369332  MISS:          0
cpu0_ITLB RFO       ACCESS:          0  HIT:          0  MISS:          0
cpu0_ITLB PREFETCH  ACCESS:          0  HIT:          0  MISS:          0
cpu0_ITLB WRITEBACK ACCESS:          0  HIT:          0  MISS:          0
cpu0_STLB TOTAL     ACCESS:      29425  HIT:      28563  MISS:        862
cpu0_STLB LOAD      ACCESS:      29025  HIT:      28306  MISS:        719
cpu0_STLB RFO       ACCESS:        400  HIT:        257  MISS:        143
cpu0_STLB PREFETCH  ACCESS:          0  HIT:          0  MISS:          0
cpu0_STLB WRITEBACK ACCESS:          0  HIT:          0  MISS:          0
cpu0_L1D TOTAL     ACCESS:    3647446  HIT:    3612086  MISS:      35360
cpu0_L1D LOAD      ACCESS:    2074165  HIT:    2043442  MISS:      30723
cpu0_L1D RFO       ACCESS:    1572419  HIT:    1567808  MISS:       4611
cpu0_L1D PREFETCH  ACCESS:          0  HIT:          0  MISS:          0
cpu0_L1D WRITEBACK ACCESS:          0  HIT:          0  MISS:          0
cpu0_L2C TOTAL     ACCESS:      54809  HIT:      28198  MISS:      26611
cpu0_L2C LOAD      ACCESS:      30714  HIT:       8373  MISS:      22341
cpu0_L2C RFO       ACCESS:       4611  HIT:        344  MISS:       4267
cpu0_L2C PREFETCH  ACCESS:          0  HIT:          0  MISS:          0
cpu0_L2C WRITEBACK ACCESS:      19458  HIT:      19456  MISS:          2
LLC TOTAL     ACCESS:      42691  HIT:      27414  MISS:      15277
LLC LOAD      ACCESS:      22341  HIT:      11424  MISS:      10917
LLC RFO       ACCESS:       4267  HIT:       1102  MISS:       3165
LLC PREFETCH  ACCESS:          0  HIT:          0  MISS:          0
LLC WRITEBACK ACCESS:      16082  HIT:      14888  MISS:       1194
Heartbeat CPU 0 instructions: 64000003 cycles: 29336892 heartbeat IPC: 0.847823 cumulative IPC: 0.831511 (Simulation time: 0 hr 35 min 25 sec) 

Region of Interest Statistics
cpu0_DTLB TOTAL     ACCESS:    3504931  HIT:    3470970  MISS:      33961
cpu0_DTLB LOAD      ACCESS:    2751243  HIT:    2717776  MISS:      33467
cpu0_DTLB RFO       ACCESS:     753688  HIT:     753194  MISS:        494
cpu0_DTLB PREFETCH  ACCESS:          0  HIT:          0  MISS:          0
cpu0_DTLB WRITEBACK ACCESS:          0  HIT:          0  MISS:          0
cpu0_ITLB TOTAL     ACCESS:    1597340  HIT:    1597340  MISS:          0
cpu0_ITLB LOAD      ACCESS:    1597340  HIT:    1597340  MISS:          0
cpu0_ITLB RFO       ACCESS:          0  HIT:          0  MISS:          0
cpu0_ITLB PREFETCH  ACCESS:          0  HIT:          0  MISS:          0
cpu0_ITLB WRITEBACK ACCESS:          0  HIT:          0  MISS:          0
cpu0_STLB TOTAL     ACCESS:      33961  HIT:      32994  MISS:        967
cpu0_STLB LOAD      ACCESS:      33467  HIT:      32684  MISS:        783
cpu0_STLB RFO       ACCESS:        494  HIT:        310  MISS:        184
cpu0_STLB PREFETCH  ACCESS:          0  HIT:          0  MISS:          0
cpu0_STLB WRITEBACK ACCESS:          0  HIT:          0  MISS:          0
cpu0_L1D TOTAL     ACCESS:    4255137  HIT:    4214367  MISS:      40770
cpu0_L1D LOAD      ACCESS:    2421428  HIT:    2386394  MISS:      35034
cpu0_L1D RFO       ACCESS:    1832742  HIT:    1827034  MISS:       5708
cpu0_L1D PREFETCH  ACCESS:          0  HIT:          0  MISS:          0
cpu0_L1D WRITEBACK ACCESS:          0  HIT:          0  MISS:          0
cpu0_L2C TOTAL     ACCESS:      63281  HIT:      33363  MISS:      29918
cpu0_L2C LOAD      ACCESS:      35025  HIT:      10404  MISS:      24621
cpu0_L2C RFO       ACCESS:       5708  HIT:        414  MISS:       5294
cpu0_L2C PREFETCH  ACCESS:          0  HIT:          0  MISS:          0
cpu0_L2C WRITEBACK ACCESS:      22520  HIT:      22518  MISS:          2
LLC TOTAL     ACCESS:      48207  HIT:      30579  MISS:      17628
LLC LOAD      ACCESS:      24621  HIT:      12479  MISS:      12142
LLC RFO       ACCESS:       5294  HIT:       1385  MISS:       3909
LLC PREFETCH  ACCESS:          0  HIT:          0  MISS:          0
LLC WRITEBACK ACCESS:      18291  HIT:      16715  MISS:       1576
Heartbeat CPU 0 instructions: 66000002 cycles: 31712920 heartbeat IPC: 0.84174 cumulative IPC: 0.832776 (Simulation time: 0 hr 36 min 38 sec) 

Region of Interest Statistics
cpu0_DTLB TOTAL     ACCESS:    4005414  HIT:    3965701  MISS:      39713
cpu0_DTLB LOAD      ACCESS:    3144098  HIT:    3105032  MISS:      39066
cpu0_DTLB RFO       ACCESS:     861316  HIT:     860669  MISS:        647
cpu0_DTLB PREFETCH  ACCESS:          0  HIT:          0  MISS:          0
cpu0_DTLB WRITEBACK ACCESS:          0  HIT:          0  MISS:          0
cpu0_ITLB TOTAL     ACCESS:    1825048  HIT:    1825048  MISS:          0
cpu0_ITLB LOAD      ACCESS:    1825048  HIT:    1825048  MISS:          0
cpu0_ITLB RFO       ACCESS:          0  HIT:          0  MISS:          0
cpu0_ITLB PREFETCH  ACCESS:          0  HIT:          0  MISS:          0
cpu0_ITLB WRITEBACK ACCESS:          0  HIT:          0  MISS:          0
cpu0_STLB TOTAL     ACCESS:      39713  HIT:      38588  MISS:       1125
cpu0_STLB LOAD      ACCESS:      39066  HIT:      38185  MISS:        881
cpu0_STLB RFO       ACCESS:        647  HIT:        403  MISS:        244
cpu0_STLB PREFETCH  ACCESS:          0  HIT:          0  MISS:          0
cpu0_STLB WRITEBACK ACCESS:          0  HIT:          0  MISS:          0
cpu0_L1D TOTAL     ACCESS:    4860799  HIT:    4814639  MISS:      46160
cpu0_L1D LOAD      ACCESS:    2766207  HIT:    2726688  MISS:      39519
cpu0_L1D RFO       ACCESS:    2093467  HIT:    2086855  MISS:       6612
cpu0_L1D PREFETCH  ACCESS:          0  HIT:          0  MISS:          0
cpu0_L1D WRITEBACK ACCESS:          0  HIT:          0  MISS:          0
cpu0_L2C TOTAL     ACCESS:      71745  HIT:      38092  MISS:      33653
cpu0_L2C LOAD      ACCESS:      39510  HIT:      12007  MISS:      27503
cpu0_L2C RFO       ACCESS:       6612  HIT:        466  MISS:       6146
cpu0_L2C PREFETCH  ACCESS:          0  HIT:          0  MISS:          0
cpu0_L2C WRITEBACK ACCESS:      25594  HIT:      25591  MISS:          3
LLC TOTAL     ACCESS:      54492  HIT:      34215  MISS:      20277
LLC LOAD      ACCESS:      27503  HIT:      13737  MISS:      13766
LLC RFO       ACCESS:       6146  HIT:       1594  MISS:       4552
LLC PREFETCH  ACCESS:          0  HIT:          0  MISS:          0
LLC WRITEBACK ACCESS:      20842  HIT:      18884  MISS:       1958
Heartbeat CPU 0 instructions: 68000001 cycles: 34031776 heartbeat IPC: 0.862494 cumulative IPC: 0.835977 (Simulation time: 0 hr 37 min 46 sec) 

Region of Interest Statistics
cpu0_DTLB TOTAL     ACCESS:    4510026  HIT:    4466630  MISS:      43396
cpu0_DTLB LOAD      ACCESS:    3541397  HIT:    3498747  MISS:      42650
cpu0_DTLB RFO       ACCESS:     968629  HIT:     967883  MISS:        746
cpu0_DTLB PREFETCH  ACCESS:          0  HIT:          0  MISS:          0
cpu0_DTLB WRITEBACK ACCESS:          0  HIT:          0  MISS:          0
cpu0_ITLB TOTAL     ACCESS:    2053976  HIT:    2053976  MISS:          0
cpu0_ITLB LOAD      ACCESS:    2053976  HIT:    2053976  MISS:          0
cpu0_ITLB RFO       ACCESS:          0  HIT:          0  MISS:          0
cpu0_ITLB PREFETCH  ACCESS:          0  HIT:          0  MISS:          0
cpu0_ITLB WRITEBACK ACCESS:          0  HIT:          0  MISS:          0
cpu0_STLB TOTAL     ACCESS:      43396  HIT:      42149  MISS:       1247
cpu0_STLB LOAD      ACCESS:      42650  HIT:      41690  MISS:        960
cpu0_STLB RFO       ACCESS:        746  HIT:        459  MISS:        287
cpu0_STLB PREFETCH  ACCESS:          0  HIT:          0  MISS:          0
cpu0_STLB WRITEBACK ACCESS:          0  HIT:          0  MISS:          0
cpu0_L1D TOTAL     ACCESS:    5472730  HIT:    5421040  MISS:      51690
cpu0_L1D LOAD      ACCESS:    3118164  HIT:    3074572  MISS:      43592
cpu0_L1D RFO       ACCESS:    2353324  HIT:    2345276  MISS:       8048
cpu0_L1D PREFETCH  ACCESS:          0  HIT:          0  MISS:          0
cpu0_L1D WRITEBACK ACCESS:          0  HIT:          0  MISS:          0
cpu0_L2C TOTAL     ACCESS:      80524  HIT:      44273  MISS:      36251
cpu0_L2C LOAD      ACCESS:      43582  HIT:      14879  MISS:      28703
cpu0_L2C RFO       ACCESS:       8048  HIT:        504  MISS:       7544
cpu0_L2C PREFETCH  ACCESS:          0  HIT:          0  MISS:          0
cpu0_L2C WRITEBACK ACCESS:      28844  HIT:      28841  MISS:          3
LLC TOTAL     ACCESS:      58942  HIT:      36429  MISS:      22513
LLC LOAD      ACCESS:      28703  HIT:      14112  MISS:      14591
LLC RFO       ACCESS:       7544  HIT:       1817  MISS:       5727
LLC PREFETCH  ACCESS:          0  HIT:          0  MISS:          0
LLC WRITEBACK ACCESS:      22694  HIT:      20500  MISS:       2194
Heartbeat CPU 0 instructions: 70000000 cycles: 36376242 heartbeat IPC: 0.853072 cumulative IPC: 0.837656 (Simulation time: 0 hr 39 min 1 sec) 

Region of Interest Statistics
cpu0_DTLB TOTAL     ACCESS:    5013945  HIT:    4965955  MISS:      47990
cpu0_DTLB LOAD      ACCESS:    3938306  HIT:    3891170  MISS:      47136
cpu0_DTLB RFO       ACCESS:    1075639  HIT:    1074785  MISS:        854
cpu0_DTLB PREFETCH  ACCESS:          0  HIT:          0  MISS:          0
cpu0_DTLB WRITEBACK ACCESS:          0  HIT:          0  MISS:          0
cpu0_ITLB TOTAL     ACCESS:    2282805  HIT:    2282805  MISS:          0
cpu0_ITLB LOAD      ACCESS:    2282805  HIT:    2282805  MISS:          0
cpu0_ITLB RFO       ACCESS:          0  HIT:          0  MISS:          0
cpu0_ITLB PREFETCH  ACCESS:          0  HIT:          0  MISS:          0
cpu0_ITLB WRITEBACK ACCESS:          0  HIT:          0  MISS:          0
cpu0_STLB TOTAL     ACCESS:      47990  HIT:      46652  MISS:       1338
cpu0_STLB LOAD      ACCESS:      47136  HIT:      46113  MISS:       1023
cpu0_STLB RFO       ACCESS:        854  HIT:        539  MISS:        315
cpu0_STLB PREFETCH  ACCESS:          0  HIT:          0  MISS:          0
cpu0_STLB WRITEBACK ACCESS:          0  HIT:          0  MISS:          0
cpu0_L1D TOTAL     ACCESS:    6082200  HIT:    6024486  MISS:      57714
cpu0_L1D LOAD      ACCESS:    3467630  HIT:    3419324  MISS:      48306
cpu0_L1D RFO       ACCESS:    2613239  HIT:    2603895  MISS:       9344
cpu0_L1D PREFETCH  ACCESS:          0  HIT:          0  MISS:          0
cpu0_L1D WRITEBACK ACCESS:          0  HIT:          0  MISS:          0
cpu0_L2C TOTAL     ACCESS:      90028  HIT:      50993  MISS:      39035
cpu0_L2C LOAD      ACCESS:      48294  HIT:      18016  MISS:      30278
cpu0_L2C RFO       ACCESS:       9344  HIT:        591  MISS:       8753
cpu0_L2C PREFETCH  ACCESS:          0  HIT:          0  MISS:          0
cpu0_L2C WRITEBACK ACCESS:      32326  HIT:      32323  MISS:          3
LLC TOTAL     ACCESS:      63753  HIT:      38854  MISS:      24899
LLC LOAD      ACCESS:      30278  HIT:      14619  MISS:      15659
LLC RFO       ACCESS:       8753  HIT:       2002  MISS:       6751
LLC PREFETCH  ACCESS:          0  HIT:          0  MISS:          0
LLC WRITEBACK ACCESS:      24721  HIT:      22233  MISS:       2488
Heartbeat CPU 0 instructions: 72000000 cycles: 38711518 heartbeat IPC: 0.85643 cumulative IPC: 0.839328 (Simulation time: 0 hr 40 min 13 sec) 

Region of Interest Statistics
cpu0_DTLB TOTAL     ACCESS:    5517736  HIT:    5465375  MISS:      52361
cpu0_DTLB LOAD      ACCESS:    4335245  HIT:    4283872  MISS:      51373
cpu0_DTLB RFO       ACCESS:    1182491  HIT:    1181503  MISS:        988
cpu0_DTLB PREFETCH  ACCESS:          0  HIT:          0  MISS:          0
cpu0_DTLB WRITEBACK ACCESS:          0  HIT:          0  MISS:          0
cpu0_ITLB TOTAL     ACCESS:    2510942  HIT:    2510942  MISS:          0
cpu0_ITLB LOAD      ACCESS:    2510942  HIT:    2510942  MISS:          0
cpu0_ITLB RFO       ACCESS:          0  HIT:          0  MISS:          0
cpu0_ITLB PREFETCH  ACCESS:          0  HIT:          0  MISS:          0
cpu0_ITLB WRITEBACK ACCESS:          0  HIT:          0  MISS:          0
cpu0_STLB TOTAL     ACCESS:      52361  HIT:      50932  MISS:       1429
cpu0_STLB LOAD      ACCESS:      51373  HIT:      50302  MISS:       1071
cpu0_STLB RFO       ACCESS:        988  HIT:        630  MISS:        358
cpu0_STLB PREFETCH  ACCESS:          0  HIT:          0  MISS:          0
cpu0_STLB WRITEBACK ACCESS:          0  HIT:          0  MISS:          0
cpu0_L1D TOTAL     ACCESS:    6689200  HIT:    6625890  MISS:      63310
cpu0_L1D LOAD      ACCESS:    3815493  HIT:    3762939  MISS:      52554
cpu0_L1D RFO       ACCESS:    2872285  HIT:    2861598  MISS:      10687
cpu0_L1D PREFETCH  ACCESS:          0  HIT:          0  MISS:          0
cpu0_L1D WRITEBACK ACCESS:          0  HIT:          0  MISS:          0
cpu0_L2C TOTAL     ACCESS:      98974  HIT:      57103  MISS:      41871
cpu0_L2C LOAD      ACCESS:      52542  HIT:      20684  MISS:      31858
cpu0_L2C RFO       ACCESS:      10687  HIT:        678  MISS:      10009
cpu0_L2C PREFETCH  ACCESS:          0  HIT:          0  MISS:          0
cpu0_L2C WRITEBACK ACCESS:      35676  HIT:      35673  MISS:          3
LLC TOTAL     ACCESS:      68682  HIT:      41335  MISS:      27347
LLC LOAD      ACCESS:      31858  HIT:      15090  MISS:      16768
LLC RFO       ACCESS:      10009  HIT:       2249  MISS:       7760
LLC PREFETCH  ACCESS:          0  HIT:          0  MISS:          0
LLC WRITEBACK ACCESS:      26814  HIT:      23996  MISS:       2818
Heartbeat CPU 0 instructions: 74000000 cycles: 41071001 heartbeat IPC: 0.847643 cumulative IPC: 0.840015 (Simulation time: 0 hr 41 min 24 sec) 

Region of Interest Statistics
cpu0_DTLB TOTAL     ACCESS:    6021655  HIT:    5965052  MISS:      56603
cpu0_DTLB LOAD      ACCESS:    4732256  HIT:    4676765  MISS:      55491
cpu0_DTLB RFO       ACCESS:    1289399  HIT:    1288287  MISS:       1112
cpu0_DTLB PREFETCH  ACCESS:          0  HIT:          0  MISS:          0
cpu0_DTLB WRITEBACK ACCESS:          0  HIT:          0  MISS:          0
cpu0_ITLB TOTAL     ACCESS:    2739420  HIT:    2739420  MISS:          0
cpu0_ITLB LOAD      ACCESS:    2739420  HIT:    2739420  MISS:          0
cpu0_ITLB RFO       ACCESS:          0  HIT:          0  MISS:          0
cpu0_ITLB PREFETCH  ACCESS:          0  HIT:          0  MISS:          0
cpu0_ITLB WRITEBACK ACCESS:          0  HIT:          0  MISS:          0
cpu0_STLB TOTAL     ACCESS:      56603  HIT:      55046  MISS:       1557
cpu0_STLB LOAD      ACCESS:      55491  HIT:      54326  MISS:       1165
cpu0_STLB RFO       ACCESS:       1112  HIT:        720  MISS:        392
cpu0_STLB PREFETCH  ACCESS:          0  HIT:          0  MISS:          0
cpu0_STLB WRITEBACK ACCESS:          0  HIT:          0  MISS:          0
cpu0_L1D TOTAL     ACCESS:    7297293  HIT:    7227943  MISS:      69350
cpu0_L1D LOAD      ACCESS:    4164855  HIT:    4107606  MISS:      57249
cpu0_L1D RFO       ACCESS:    3130888  HIT:    3118864  MISS:      12024
cpu0_L1D PREFETCH  ACCESS:          0  HIT:          0  MISS:          0
cpu0_L1D WRITEBACK ACCESS:          0  HIT:          0  MISS:          0
cpu0_L2C TOTAL     ACCESS:     108596  HIT:      64014  MISS:      44582
cpu0_L2C LOAD      ACCESS:      57237  HIT:      23922  MISS:      33315
cpu0_L2C RFO       ACCESS:      12024  HIT:        761  MISS:      11263
cpu0_L2C PREFETCH  ACCESS:          0  HIT:          0  MISS:          0
cpu0_L2C WRITEBACK ACCESS:      39258  HIT:      39255  MISS:          3
LLC TOTAL     ACCESS:      73356  HIT:      43586  MISS:      29770
LLC LOAD      ACCESS:      33315  HIT:      15481  MISS:      17834
LLC RFO       ACCESS:      11263  HIT:       2486  MISS:       8777
LLC PREFETCH  ACCESS:          0  HIT:          0  MISS:          0
LLC WRITEBACK ACCESS:      28777  HIT:      25619  MISS:       3158
Heartbeat CPU 0 instructions: 76000000 cycles: 43451175 heartbeat IPC: 0.840275 cumulative IPC: 0.840035 (Simulation time: 0 hr 42 min 34 sec) 

Region of Interest Statistics
cpu0_DTLB TOTAL     ACCESS:    6526368  HIT:    6464438  MISS:      61930
cpu0_DTLB LOAD      ACCESS:    5130100  HIT:    5069389  MISS:      60711
cpu0_DTLB RFO       ACCESS:    1396268  HIT:    1395049  MISS:       1219
cpu0_DTLB PREFETCH  ACCESS:          0  HIT:          0  MISS:          0
cpu0_DTLB WRITEBACK ACCESS:          0  HIT:          0  MISS:          0
cpu0_ITLB TOTAL     ACCESS:    2968735  HIT:    2968735  MISS:          0
cpu0_ITLB LOAD      ACCESS:    2968735  HIT:    2968735  MISS:          0
cpu0_ITLB RFO       ACCESS:          0  HIT:          0  MISS:          0
cpu0_ITLB PREFETCH  ACCESS:          0  HIT:          0  MISS:          0
cpu0_ITLB WRITEBACK ACCESS:          0  HIT:          0  MISS:          0
cpu0_STLB TOTAL     ACCESS:      61930  HIT:      60172  MISS:       1758
cpu0_STLB LOAD      ACCESS:      60711  HIT:      59383  MISS:       1328
cpu0_STLB RFO       ACCESS:       1219  HIT:        789  MISS:        430
cpu0_STLB PREFETCH  ACCESS:          0  HIT:          0  MISS:          0
cpu0_STLB WRITEBACK ACCESS:          0  HIT:          0  MISS:          0
cpu0_L1D TOTAL     ACCESS:    7906467  HIT:    7830287  MISS:      76180
cpu0_L1D LOAD      ACCESS:    4514588  HIT:    4451844  MISS:      62744
cpu0_L1D RFO       ACCESS:    3390129  HIT:    3376772  MISS:      13357
cpu0_L1D PREFETCH  ACCESS:          0  HIT:          0  MISS:          0
cpu0_L1D WRITEBACK ACCESS:          0  HIT:          0  MISS:          0
cpu0_L2C TOTAL     ACCESS:     119297  HIT:      71757  MISS:      47540
cpu0_L2C LOAD      ACCESS:      62732  HIT:      27728  MISS:      35004
cpu0_L2C RFO       ACCESS:      13357  HIT:        825  MISS:      12532
cpu0_L2C PREFETCH  ACCESS:          0  HIT:          0  MISS:          0
cpu0_L2C WRITEBACK ACCESS:      43129  HIT:      43126  MISS:          3
LLC TOTAL     ACCESS:      78524  HIT:      45970  MISS:      32554
LLC LOAD      ACCESS:      35004  HIT:      15954  MISS:      19050
LLC RFO       ACCESS:      12532  HIT:       2588  MISS:       9944
LLC PREFETCH  ACCESS:          0  HIT:          0  MISS:          0
LLC WRITEBACK ACCESS:      30987  HIT:      27428  MISS:       3559
Heartbeat CPU 0 instructions: 78000004 cycles: 45883151 heartbeat IPC: 0.822378 cumulative IPC: 0.838749 (Simulation time: 0 hr 43 min 46 sec) 

Region of Interest Statistics
cpu0_DTLB TOTAL     ACCESS:    7031718  HIT:    6964278  MISS:      67440
cpu0_DTLB LOAD      ACCESS:    5528750  HIT:    5462637  MISS:      66113
cpu0_DTLB RFO       ACCESS:    1502968  HIT:    1501641  MISS:       1327
cpu0_DTLB PREFETCH  ACCESS:          0  HIT:          0  MISS:          0
cpu0_DTLB WRITEBACK ACCESS:          0  HIT:          0  MISS:          0
cpu0_ITLB TOTAL     ACCESS:    3198992  HIT:    3198992  MISS:          0
cpu0_ITLB LOAD      ACCESS:    3198992  HIT:    3198992  MISS:          0
cpu0_ITLB RFO       ACCESS:          0  HIT:          0  MISS:          0
cpu0_ITLB PREFETCH  ACCESS:          0  HIT:          0  MISS:          0
cpu0_ITLB WRITEBACK ACCESS:          0  HIT:          0  MISS:          0
cpu0_STLB TOTAL     ACCESS:      67440  HIT:      65501  MISS:       1939
cpu0_STLB LOAD      ACCESS:      66113  HIT:      64641  MISS:       1472
cpu0_STLB RFO       ACCESS:       1327  HIT:        860  MISS:        467
cpu0_STLB PREFETCH  ACCESS:          0  HIT:          0  MISS:          0
cpu0_STLB WRITEBACK ACCESS:          0  HIT:          0  MISS:          0
cpu0_L1D TOTAL     ACCESS:    8516858  HIT:    8433815  MISS:      83043
cpu0_L1D LOAD      ACCESS:    4865642  HIT:    4797269  MISS:      68373
cpu0_L1D RFO       ACCESS:    3649285  HIT:    3634696  MISS:      14589
cpu0_L1D PREFETCH  ACCESS:          0  HIT:          0  MISS:          0
cpu0_L1D WRITEBACK ACCESS:          0  HIT:          0  MISS:          0
cpu0_L2C TOTAL     ACCESS:     130081  HIT:      79411  MISS:      50670
cpu0_L2C LOAD      ACCESS:      68361  HIT:      31389  MISS:      36972
cpu0_L2C RFO       ACCESS:      14589  HIT:        896  MISS:      13693
cpu0_L2C PREFETCH  ACCESS:          0  HIT:          0  MISS:          0
cpu0_L2C WRITEBACK ACCESS:      47050  HIT:      47047  MISS:          3
LLC TOTAL     ACCESS:      84061  HIT:      48634  MISS:      35427
LLC LOAD      ACCESS:      36972  HIT:      16534  MISS:      20438
LLC RFO       ACCESS:      13693  HIT:       2696  MISS:      10997
LLC PREFETCH  ACCESS:          0  HIT:          0  MISS:          0
LLC WRITEBACK ACCESS:      33394  HIT:      29404  MISS:       3990
Heartbeat CPU 0 instructions: 80000000 cycles: 48263130 heartbeat IPC: 0.840342 cumulative IPC: 0.838855 (Simulation time: 0 hr 44 min 50 sec) 

Region of Interest Statistics
cpu0_DTLB TOTAL     ACCESS:    7534741  HIT:    7463350  MISS:      71391
cpu0_DTLB LOAD      ACCESS:    5924745  HIT:    5854778  MISS:      69967
cpu0_DTLB RFO       ACCESS:    1609996  HIT:    1608572  MISS:       1424
cpu0_DTLB PREFETCH  ACCESS:          0  HIT:          0  MISS:          0
cpu0_DTLB WRITEBACK ACCESS:          0  HIT:          0  MISS:          0
cpu0_ITLB TOTAL     ACCESS:    3428653  HIT:    3428653  MISS:          0
cpu0_ITLB LOAD      ACCESS:    3428653  HIT:    3428653  MISS:          0
cpu0_ITLB RFO       ACCESS:          0  HIT:          0  MISS:          0
cpu0_ITLB PREFETCH  ACCESS:          0  HIT:          0  MISS:          0
cpu0_ITLB WRITEBACK ACCESS:          0  HIT:          0  MISS:          0
cpu0_STLB TOTAL     ACCESS:      71391  HIT:      69374  MISS:       2017
cpu0_STLB LOAD      ACCESS:      69967  HIT:      68456  MISS:       1511
cpu0_STLB RFO       ACCESS:       1424  HIT:        918  MISS:        506
cpu0_STLB PREFETCH  ACCESS:          0  HIT:          0  MISS:          0
cpu0_STLB WRITEBACK ACCESS:          0  HIT:          0  MISS:          0
cpu0_L1D TOTAL     ACCESS:    9127722  HIT:    9039224  MISS:      88498
cpu0_L1D LOAD      ACCESS:    5216635  HIT:    5144103  MISS:      72532
cpu0_L1D RFO       ACCESS:    3909078  HIT:    3893193  MISS:      15885
cpu0_L1D PREFETCH  ACCESS:          0  HIT:          0  MISS:          0
cpu0_L1D WRITEBACK ACCESS:          0  HIT:          0  MISS:          0
cpu0_L2C TOTAL     ACCESS:     138761  HIT:      85219  MISS:      53542
cpu0_L2C LOAD      ACCESS:      72520  HIT:      33923  MISS:      38597
cpu0_L2C RFO       ACCESS:      15885  HIT:        945  MISS:      14940
cpu0_L2C PREFETCH  ACCESS:          0  HIT:          0  MISS:          0
cpu0_L2C WRITEBACK ACCESS:      50275  HIT:      50272  MISS:          3
LLC TOTAL     ACCESS:      89092  HIT:      50976  MISS:      38116
LLC LOAD      ACCESS:      38597  HIT:      16924  MISS:      21673
LLC RFO       ACCESS:      14940  HIT:       2818  MISS:      12122
LLC PREFETCH  ACCESS:          0  HIT:          0  MISS:          0
LLC WRITEBACK ACCESS:      35553  HIT:      31234  MISS:       4319
Heartbeat CPU 0 instructions: 82000004 cycles: 50624580 heartbeat IPC: 0.846939 cumulative IPC: 0.839355 (Simulation time: 0 hr 46 min 1 sec) 

Region of Interest Statistics
cpu0_DTLB TOTAL     ACCESS:    8039199  HIT:    7964357  MISS:      74842
cpu0_DTLB LOAD      ACCESS:    6321750  HIT:    6248408  MISS:      73342
cpu0_DTLB RFO       ACCESS:    1717449  HIT:    1715949  MISS:       1500
cpu0_DTLB PREFETCH  ACCESS:          0  HIT:          0  MISS:          0
cpu0_DTLB WRITEBACK ACCESS:          0  HIT:          0  MISS:          0
cpu0_ITLB TOTAL     ACCESS:    3657642  HIT:    3657642  MISS:          0
cpu0_ITLB LOAD      ACCESS:    3657642  HIT:    3657642  MISS:          0
cpu0_ITLB RFO       ACCESS:          0  HIT:          0  MISS:          0
cpu0_ITLB PREFETCH  ACCESS:          0  HIT:          0  MISS:          0
cpu0_ITLB WRITEBACK ACCESS:          0  HIT:          0  MISS:          0
cpu0_STLB TOTAL     ACCESS:      74842  HIT:      72684  MISS:       2158
cpu0_STLB LOAD      ACCESS:      73342  HIT:      71726  MISS:       1616
cpu0_STLB RFO       ACCESS:       1500  HIT:        958  MISS:        542
cpu0_STLB PREFETCH  ACCESS:          0  HIT:          0  MISS:          0
cpu0_STLB WRITEBACK ACCESS:          0  HIT:          0  MISS:          0
cpu0_L1D TOTAL     ACCESS:    9741140  HIT:    9647336  MISS:      93804
cpu0_L1D LOAD      ACCESS:    5568846  HIT:    5492396  MISS:      76450
cpu0_L1D RFO       ACCESS:    4170144  HIT:    4152872  MISS:      17272
cpu0_L1D PREFETCH  ACCESS:          0  HIT:          0  MISS:          0
cpu0_L1D WRITEBACK ACCESS:          0  HIT:          0  MISS:          0
cpu0_L2C TOTAL     ACCESS:     147389  HIT:      90979  MISS:      56410
cpu0_L2C LOAD      ACCESS:      76438  HIT:      36326  MISS:      40112
cpu0_L2C RFO       ACCESS:      17272  HIT:        981  MISS:      16291
cpu0_L2C PREFETCH  ACCESS:          0  HIT:          0  MISS:          0
cpu0_L2C WRITEBACK ACCESS:      53597  HIT:      53593  MISS:          4
LLC TOTAL     ACCESS:      94103  HIT:      53192  MISS:      40911
LLC LOAD      ACCESS:      40112  HIT:      17254  MISS:      22858
LLC RFO       ACCESS:      16291  HIT:       2909  MISS:      13382
LLC PREFETCH  ACCESS:          0  HIT:          0  MISS:          0
LLC WRITEBACK ACCESS:      37697  HIT:      33029  MISS:       4668
Heartbeat CPU 0 instructions: 84000003 cycles: 52939322 heartbeat IPC: 0.864027 cumulative IPC: 0.840768 (Simulation time: 0 hr 47 min 9 sec) 

Region of Interest Statistics
cpu0_DTLB TOTAL     ACCESS:    8544602  HIT:    8467085  MISS:      77517
cpu0_DTLB LOAD      ACCESS:    6719588  HIT:    6643632  MISS:      75956
cpu0_DTLB RFO       ACCESS:    1825014  HIT:    1823453  MISS:       1561
cpu0_DTLB PREFETCH  ACCESS:          0  HIT:          0  MISS:          0
cpu0_DTLB WRITEBACK ACCESS:          0  HIT:          0  MISS:          0
cpu0_ITLB TOTAL     ACCESS:    3887354  HIT:    3887354  MISS:          0
cpu0_ITLB LOAD      ACCESS:    3887354  HIT:    3887354  MISS:          0
cpu0_ITLB RFO       ACCESS:          0  HIT:          0  MISS:          0
cpu0_ITLB PREFETCH  ACCESS:          0  HIT:          0  MISS:          0
cpu0_ITLB WRITEBACK ACCESS:          0  HIT:          0  MISS:          0
cpu0_STLB TOTAL     ACCESS:      77517  HIT:      75294  MISS:       2223
cpu0_STLB LOAD      ACCESS:      75956  HIT:      74307  MISS:       1649
cpu0_STLB RFO       ACCESS:       1561  HIT:        987  MISS:        574
cpu0_STLB PREFETCH  ACCESS:          0  HIT:          0  MISS:          0
cpu0_STLB WRITEBACK ACCESS:          0  HIT:          0  MISS:          0
cpu0_L1D TOTAL     ACCESS:   10356089  HIT:   10257297  MISS:      98792
cpu0_L1D LOAD      ACCESS:    5923921  HIT:    5844010  MISS:      79911
cpu0_L1D RFO       ACCESS:    4429953  HIT:    4411162  MISS:      18791
cpu0_L1D PREFETCH  ACCESS:          0  HIT:          0  MISS:          0
cpu0_L1D WRITEBACK ACCESS:          0  HIT:          0  MISS:          0
cpu0_L2C TOTAL     ACCESS:     155472  HIT:      96533  MISS:      58939
cpu0_L2C LOAD      ACCESS:      79899  HIT:      38763  MISS:      41136
cpu0_L2C RFO       ACCESS:      18791  HIT:        998  MISS:      17793
cpu0_L2C PREFETCH  ACCESS:          0  HIT:          0  MISS:          0
cpu0_L2C WRITEBACK ACCESS:      56692  HIT:      56687  MISS:          5
LLC TOTAL     ACCESS:      98585  HIT:      55115  MISS:      43470
LLC LOAD      ACCESS:      41136  HIT:      17420  MISS:      23716
LLC RFO       ACCESS:      17793  HIT:       2974  MISS:      14819
LLC PREFETCH  ACCESS:          0  HIT:          0  MISS:          0
LLC WRITEBACK ACCESS:      39651  HIT:      34720  MISS:       4931
Heartbeat CPU 0 instructions: 86000001 cycles: 55268696 heartbeat IPC: 0.858599 cumulative IPC: 0.841739 (Simulation time: 0 hr 48 min 23 sec) 

Region of Interest Statistics
cpu0_DTLB TOTAL     ACCESS:    9049653  HIT:    8969275  MISS:      80378
cpu0_DTLB LOAD      ACCESS:    7117063  HIT:    7038320  MISS:      78743
cpu0_DTLB RFO       ACCESS:    1932590  HIT:    1930955  MISS:       1635
cpu0_DTLB PREFETCH  ACCESS:          0  HIT:          0  MISS:          0
cpu0_DTLB WRITEBACK ACCESS:          0  HIT:          0  MISS:          0
cpu0_ITLB TOTAL     ACCESS:    4116630  HIT:    4116630  MISS:          0
cpu0_ITLB LOAD      ACCESS:    4116630  HIT:    4116630  MISS:          0
cpu0_ITLB RFO       ACCESS:          0  HIT:          0  MISS:          0
cpu0_ITLB PREFETCH  ACCESS:          0  HIT:          0  MISS:          0
cpu0_ITLB WRITEBACK ACCESS:          0  HIT:          0  MISS:          0
cpu0_STLB TOTAL     ACCESS:      80378  HIT:      78059  MISS:       2319
cpu0_STLB LOAD      ACCESS:      78743  HIT:      77035  MISS:       1708
cpu0_STLB RFO       ACCESS:       1635  HIT:       1024  MISS:        611
cpu0_STLB PREFETCH  ACCESS:          0  HIT:          0  MISS:          0
cpu0_STLB WRITEBACK ACCESS:          0  HIT:          0  MISS:          0
cpu0_L1D TOTAL     ACCESS:   10970771  HIT:   10867208  MISS:     103563
cpu0_L1D LOAD      ACCESS:    6277969  HIT:    6194743  MISS:      83226
cpu0_L1D RFO       ACCESS:    4690491  HIT:    4670258  MISS:      20233
cpu0_L1D PREFETCH  ACCESS:          0  HIT:          0  MISS:          0
cpu0_L1D WRITEBACK ACCESS:          0  HIT:          0  MISS:          0
cpu0_L2C TOTAL     ACCESS:     163243  HIT:     101883  MISS:      61360
cpu0_L2C LOAD      ACCESS:      83213  HIT:      41072  MISS:      42141
cpu0_L2C RFO       ACCESS:      20233  HIT:       1024  MISS:      19209
cpu0_L2C PREFETCH  ACCESS:          0  HIT:          0  MISS:          0
cpu0_L2C WRITEBACK ACCESS:      59693  HIT:      59688  MISS:          5
LLC TOTAL     ACCESS:     102860  HIT:      56872  MISS:      45988
LLC LOAD      ACCESS:      42141  HIT:      17598  MISS:      24543
LLC RFO       ACCESS:      19209  HIT:       3005  MISS:      16204
LLC PREFETCH  ACCESS:          0  HIT:          0  MISS:          0
LLC WRITEBACK ACCESS:      41505  HIT:      36268  MISS:       5237
Heartbeat CPU 0 instructions: 88000001 cycles: 57611870 heartbeat IPC: 0.853543 cumulative IPC: 0.842352 (Simulation time: 0 hr 49 min 36 sec) 

Region of Interest Statistics
cpu0_DTLB TOTAL     ACCESS:    9552387  HIT:    9469249  MISS:      83138
cpu0_DTLB LOAD      ACCESS:    7511599  HIT:    7430201  MISS:      81398
cpu0_DTLB RFO       ACCESS:    2040788  HIT:    2039048  MISS:       1740
cpu0_DTLB PREFETCH  ACCESS:          0  HIT:          0  MISS:          0
cpu0_DTLB WRITEBACK ACCESS:          0  HIT:          0  MISS:          0
cpu0_ITLB TOTAL     ACCESS:    4345358  HIT:    4345358  MISS:          0
cpu0_ITLB LOAD      ACCESS:    4345358  HIT:    4345358  MISS:          0
cpu0_ITLB RFO       ACCESS:          0  HIT:          0  MISS:          0
cpu0_ITLB PREFETCH  ACCESS:          0  HIT:          0  MISS:          0
cpu0_ITLB WRITEBACK ACCESS:          0  HIT:          0  MISS:          0
cpu0_STLB TOTAL     ACCESS:      83138  HIT:      80628  MISS:       2510
cpu0_STLB LOAD      ACCESS:      81398  HIT:      79539  MISS:       1859
cpu0_STLB RFO       ACCESS:       1740  HIT:       1089  MISS:        651
cpu0_STLB PREFETCH  ACCESS:          0  HIT:          0  MISS:          0
cpu0_STLB WRITEBACK ACCESS:          0  HIT:          0  MISS:          0
cpu0_L1D TOTAL     ACCESS:   11584533  HIT:   11477103  MISS:     107430
cpu0_L1D LOAD      ACCESS:    6629994  HIT:    6544140  MISS:      85854
cpu0_L1D RFO       ACCESS:    4952037  HIT:    4930566  MISS:      21471
cpu0_L1D PREFETCH  ACCESS:          0  HIT:          0  MISS:          0
cpu0_L1D WRITEBACK ACCESS:          0  HIT:          0  MISS:          0
cpu0_L2C TOTAL     ACCESS:     169628  HIT:     105487  MISS:      64141
cpu0_L2C LOAD      ACCESS:      85840  HIT:      42110  MISS:      43730
cpu0_L2C RFO       ACCESS:      21471  HIT:       1070  MISS:      20401
cpu0_L2C PREFETCH  ACCESS:          0  HIT:          0  MISS:          0
cpu0_L2C WRITEBACK ACCESS:      62212  HIT:      62207  MISS:          5
LLC TOTAL     ACCESS:     107878  HIT:      59041  MISS:      48837
LLC LOAD      ACCESS:      43730  HIT:      17878  MISS:      25852
LLC RFO       ACCESS:      20401  HIT:       3032  MISS:      17369
LLC PREFETCH  ACCESS:          0  HIT:          0  MISS:          0
LLC WRITEBACK ACCESS:      43742  HIT:      38130  MISS:       5612
Heartbeat CPU 0 instructions: 90000000 cycles: 59966032 heartbeat IPC: 0.849559 cumulative IPC: 0.842709 (Simulation time: 0 hr 50 min 49 sec) 

Region of Interest Statistics
cpu0_DTLB TOTAL     ACCESS:   10054880  HIT:    9968405  MISS:      86475
cpu0_DTLB LOAD      ACCESS:    7906557  HIT:    7821915  MISS:      84642
cpu0_DTLB RFO       ACCESS:    2148323  HIT:    2146490  MISS:       1833
cpu0_DTLB PREFETCH  ACCESS:          0  HIT:          0  MISS:          0
cpu0_DTLB WRITEBACK ACCESS:          0  HIT:          0  MISS:          0
cpu0_ITLB TOTAL     ACCESS:    4574276  HIT:    4574276  MISS:          0
cpu0_ITLB LOAD      ACCESS:    4574276  HIT:    4574276  MISS:          0
cpu0_ITLB RFO       ACCESS:          0  HIT:          0  MISS:          0
cpu0_ITLB PREFETCH  ACCESS:          0  HIT:          0  MISS:          0
cpu0_ITLB WRITEBACK ACCESS:          0  HIT:          0  MISS:          0
cpu0_STLB TOTAL     ACCESS:      86475  HIT:      83811  MISS:       2664
cpu0_STLB LOAD      ACCESS:      84642  HIT:      82672  MISS:       1970
cpu0_STLB RFO       ACCESS:       1833  HIT:       1139  MISS:        694
cpu0_STLB PREFETCH  ACCESS:          0  HIT:          0  MISS:          0
cpu0_STLB WRITEBACK ACCESS:          0  HIT:          0  MISS:          0
cpu0_L1D TOTAL     ACCESS:   12195426  HIT:   12083871  MISS:     111555
cpu0_L1D LOAD      ACCESS:    6980705  HIT:    6892040  MISS:      88665
cpu0_L1D RFO       ACCESS:    5212068  HIT:    5189308  MISS:      22760
cpu0_L1D PREFETCH  ACCESS:          0  HIT:          0  MISS:          0
cpu0_L1D WRITEBACK ACCESS:          0  HIT:          0  MISS:          0
cpu0_L2C TOTAL     ACCESS:     176359  HIT:     109426  MISS:      66933
cpu0_L2C LOAD      ACCESS:      88651  HIT:      43396  MISS:      45255
cpu0_L2C RFO       ACCESS:      22760  HIT:       1095  MISS:      21665
cpu0_L2C PREFETCH  ACCESS:          0  HIT:          0  MISS:          0
cpu0_L2C WRITEBACK ACCESS:      64818  HIT:      64812  MISS:          6
LLC TOTAL     ACCESS:     112888  HIT:      61224  MISS:      51664
LLC LOAD      ACCESS:      45255  HIT:      18084  MISS:      27171
LLC RFO       ACCESS:      21665  HIT:       3105  MISS:      18560
LLC PREFETCH  ACCESS:          0  HIT:          0  MISS:          0
LLC WRITEBACK ACCESS:      45961  HIT:      40032  MISS:       5929
Heartbeat CPU 0 instructions: 92000003 cycles: 62307322 heartbeat IPC: 0.854231 cumulative IPC: 0.843251 (Simulation time: 0 hr 52 min 2 sec) 

Region of Interest Statistics
cpu0_DTLB TOTAL     ACCESS:   10555204  HIT:   10464846  MISS:      90358
cpu0_DTLB LOAD      ACCESS:    8300397  HIT:    8211985  MISS:      88412
cpu0_DTLB RFO       ACCESS:    2254807  HIT:    2252861  MISS:       1946
cpu0_DTLB PREFETCH  ACCESS:          0  HIT:          0  MISS:          0
cpu0_DTLB WRITEBACK ACCESS:          0  HIT:          0  MISS:          0
cpu0_ITLB TOTAL     ACCESS:    4803316  HIT:    4803316  MISS:          0
cpu0_ITLB LOAD      ACCESS:    4803316  HIT:    4803316  MISS:          0
cpu0_ITLB RFO       ACCESS:          0  HIT:          0  MISS:          0
cpu0_ITLB PREFETCH  ACCESS:          0  HIT:          0  MISS:          0
cpu0_ITLB WRITEBACK ACCESS:          0  HIT:          0  MISS:          0
cpu0_STLB TOTAL     ACCESS:      90358  HIT:      87558  MISS:       2800
cpu0_STLB LOAD      ACCESS:      88412  HIT:      86344  MISS:       2068
cpu0_STLB RFO       ACCESS:       1946  HIT:       1214  MISS:        732
cpu0_STLB PREFETCH  ACCESS:          0  HIT:          0  MISS:          0
cpu0_STLB WRITEBACK ACCESS:          0  HIT:          0  MISS:          0
cpu0_L1D TOTAL     ACCESS:   12802756  HIT:   12685844  MISS:     116912
cpu0_L1D LOAD      ACCESS:    7329912  HIT:    7237224  MISS:      92688
cpu0_L1D RFO       ACCESS:    5470055  HIT:    5445976  MISS:      24079
cpu0_L1D PREFETCH  ACCESS:          0  HIT:          0  MISS:          0
cpu0_L1D WRITEBACK ACCESS:          0  HIT:          0  MISS:          0
cpu0_L2C TOTAL     ACCESS:     185025  HIT:     115393  MISS:      69632
cpu0_L2C LOAD      ACCESS:      92674  HIT:      46003  MISS:      46671
cpu0_L2C RFO       ACCESS:      24079  HIT:       1131  MISS:      22948
cpu0_L2C PREFETCH  ACCESS:          0  HIT:          0  MISS:          0
cpu0_L2C WRITEBACK ACCESS:      68127  HIT:      68121  MISS:          6
LLC TOTAL     ACCESS:     117707  HIT:      63381  MISS:      54326
LLC LOAD      ACCESS:      46671  HIT:      18262  MISS:      28409
LLC RFO       ACCESS:      22948  HIT:       3213  MISS:      19735
LLC PREFETCH  ACCESS:          0  HIT:          0  MISS:          0
LLC WRITEBACK ACCESS:      48081  HIT:      41903  MISS:       6178
Heartbeat CPU 0 instructions: 94000001 cycles: 64696407 heartbeat IPC: 0.83714 cumulative IPC: 0.842971 (Simulation time: 0 hr 53 min 13 sec) 

Region of Interest Statistics
cpu0_DTLB TOTAL     ACCESS:   11055813  HIT:   10960890  MISS:      94923
cpu0_DTLB LOAD      ACCESS:    8694523  HIT:    8601653  MISS:      92870
cpu0_DTLB RFO       ACCESS:    2361290  HIT:    2359237  MISS:       2053
cpu0_DTLB PREFETCH  ACCESS:          0  HIT:          0  MISS:          0
cpu0_DTLB WRITEBACK ACCESS:          0  HIT:          0  MISS:          0
cpu0_ITLB TOTAL     ACCESS:    5032483  HIT:    5032483  MISS:          0
cpu0_ITLB LOAD      ACCESS:    5032483  HIT:    5032483  MISS:          0
cpu0_ITLB RFO       ACCESS:          0  HIT:          0  MISS:          0
cpu0_ITLB PREFETCH  ACCESS:          0  HIT:          0  MISS:          0
cpu0_ITLB WRITEBACK ACCESS:          0  HIT:          0  MISS:          0
cpu0_STLB TOTAL     ACCESS:      94923  HIT:      91895  MISS:       3028
cpu0_STLB LOAD      ACCESS:      92870  HIT:      90612  MISS:       2258
cpu0_STLB RFO       ACCESS:       2053  HIT:       1283  MISS:        770
cpu0_STLB PREFETCH  ACCESS:          0  HIT:          0  MISS:          0
cpu0_STLB WRITEBACK ACCESS:          0  HIT:          0  MISS:          0
cpu0_L1D TOTAL     ACCESS:   13410887  HIT:   13287738  MISS:     123149
cpu0_L1D LOAD      ACCESS:    7679066  HIT:    7581383  MISS:      97683
cpu0_L1D RFO       ACCESS:    5728804  HIT:    5703491  MISS:      25313
cpu0_L1D PREFETCH  ACCESS:          0  HIT:          0  MISS:          0
cpu0_L1D WRITEBACK ACCESS:          0  HIT:          0  MISS:          0
cpu0_L2C TOTAL     ACCESS:     194739  HIT:     122106  MISS:      72633
cpu0_L2C LOAD      ACCESS:      97667  HIT:      49170  MISS:      48497
cpu0_L2C RFO       ACCESS:      25313  HIT:       1191  MISS:      24122
cpu0_L2C PREFETCH  ACCESS:          0  HIT:          0  MISS:          0
cpu0_L2C WRITEBACK ACCESS:      71606  HIT:      71600  MISS:          6
LLC TOTAL     ACCESS:     123155  HIT:      66037  MISS:      57118
LLC LOAD      ACCESS:      48497  HIT:      18683  MISS:      29814
LLC RFO       ACCESS:      24122  HIT:       3294  MISS:      20828
LLC PREFETCH  ACCESS:          0  HIT:          0  MISS:          0
LLC WRITEBACK ACCESS:      50528  HIT:      44056  MISS:       6472
Heartbeat CPU 0 instructions: 96000000 cycles: 67124793 heartbeat IPC: 0.823592 cumulative IPC: 0.84211 (Simulation time: 0 hr 54 min 25 sec) 

Region of Interest Statistics
cpu0_DTLB TOTAL     ACCESS:   11558590  HIT:   11457841  MISS:     100749
cpu0_DTLB LOAD      ACCESS:    9090194  HIT:    8991592  MISS:      98602
cpu0_DTLB RFO       ACCESS:    2468396  HIT:    2466249  MISS:       2147
cpu0_DTLB PREFETCH  ACCESS:          0  HIT:          0  MISS:          0
cpu0_DTLB WRITEBACK ACCESS:          0  HIT:          0  MISS:          0
cpu0_ITLB TOTAL     ACCESS:    5262586  HIT:    5262586  MISS:          0
cpu0_ITLB LOAD      ACCESS:    5262586  HIT:    5262586  MISS:          0
cpu0_ITLB RFO       ACCESS:          0  HIT:          0  MISS:          0
cpu0_ITLB PREFETCH  ACCESS:          0  HIT:          0  MISS:          0
cpu0_ITLB WRITEBACK ACCESS:          0  HIT:          0  MISS:          0
cpu0_STLB TOTAL     ACCESS:     100749  HIT:      97594  MISS:       3155
cpu0_STLB LOAD      ACCESS:      98602  HIT:      96261  MISS:       2341
cpu0_STLB RFO       ACCESS:       2147  HIT:       1333  MISS:        814
cpu0_STLB PREFETCH  ACCESS:          0  HIT:          0  MISS:          0
cpu0_STLB WRITEBACK ACCESS:          0  HIT:          0  MISS:          0
cpu0_L1D TOTAL     ACCESS:   14020142  HIT:   13889318  MISS:     130824
cpu0_L1D LOAD      ACCESS:    8029481  HIT:    7925343  MISS:     104138
cpu0_L1D RFO       ACCESS:    5987517  HIT:    5960987  MISS:      26530
cpu0_L1D PREFETCH  ACCESS:          0  HIT:          0  MISS:          0
cpu0_L1D WRITEBACK ACCESS:          0  HIT:          0  MISS:          0
cpu0_L2C TOTAL     ACCESS:     206663  HIT:     130641  MISS:      76022
cpu0_L2C LOAD      ACCESS:     104121  HIT:      53394  MISS:      50727
cpu0_L2C RFO       ACCESS:      26530  HIT:       1249  MISS:      25281
cpu0_L2C PREFETCH  ACCESS:          0  HIT:          0  MISS:          0
cpu0_L2C WRITEBACK ACCESS:      75856  HIT:      75850  MISS:          6
LLC TOTAL     ACCESS:     129140  HIT:      69081  MISS:      60059
LLC LOAD      ACCESS:      50727  HIT:      19281  MISS:      31446
LLC RFO       ACCESS:      25281  HIT:       3410  MISS:      21871
LLC PREFETCH  ACCESS:          0  HIT:          0  MISS:          0
LLC WRITEBACK ACCESS:      53124  HIT:      46386  MISS:       6738
Heartbeat CPU 0 instructions: 98000000 cycles: 69560725 heartbeat IPC: 0.821041 cumulative IPC: 0.84121 (Simulation time: 0 hr 55 min 35 sec) 

Region of Interest Statistics
cpu0_DTLB TOTAL     ACCESS:   12061305  HIT:   11955389  MISS:     105916
cpu0_DTLB LOAD      ACCESS:    9485828  HIT:    9382166  MISS:     103662
cpu0_DTLB RFO       ACCESS:    2575477  HIT:    2573223  MISS:       2254
cpu0_DTLB PREFETCH  ACCESS:          0  HIT:          0  MISS:          0
cpu0_DTLB WRITEBACK ACCESS:          0  HIT:          0  MISS:          0
cpu0_ITLB TOTAL     ACCESS:    5492275  HIT:    5492275  MISS:          0
cpu0_ITLB LOAD      ACCESS:    5492275  HIT:    5492275  MISS:          0
cpu0_ITLB RFO       ACCESS:          0  HIT:          0  MISS:          0
cpu0_ITLB PREFETCH  ACCESS:          0  HIT:          0  MISS:          0
cpu0_ITLB WRITEBACK ACCESS:          0  HIT:          0  MISS:          0
cpu0_STLB TOTAL     ACCESS:     105916  HIT:     102620  MISS:       3296
cpu0_STLB LOAD      ACCESS:     103662  HIT:     101219  MISS:       2443
cpu0_STLB RFO       ACCESS:       2254  HIT:       1401  MISS:        853
cpu0_STLB PREFETCH  ACCESS:          0  HIT:          0  MISS:          0
cpu0_STLB WRITEBACK ACCESS:          0  HIT:          0  MISS:          0
cpu0_L1D TOTAL     ACCESS:   14628465  HIT:   14490840  MISS:     137625
cpu0_L1D LOAD      ACCESS:    8379063  HIT:    8269338  MISS:     109725
cpu0_L1D RFO       ACCESS:    6246117  HIT:    6218377  MISS:      27740
cpu0_L1D PREFETCH  ACCESS:          0  HIT:          0  MISS:          0
cpu0_L1D WRITEBACK ACCESS:          0  HIT:          0  MISS:          0
cpu0_L2C TOTAL     ACCESS:     217284  HIT:     137856  MISS:      79428
cpu0_L2C LOAD      ACCESS:     109706  HIT:      56714  MISS:      52992
cpu0_L2C RFO       ACCESS:      27740  HIT:       1318  MISS:      26422
cpu0_L2C PREFETCH  ACCESS:          0  HIT:          0  MISS:          0
cpu0_L2C WRITEBACK ACCESS:      79678  HIT:      79672  MISS:          6
LLC TOTAL     ACCESS:     135091  HIT:      72075  MISS:      63016
LLC LOAD      ACCESS:      52992  HIT:      19873  MISS:      33119
LLC RFO       ACCESS:      26422  HIT:       3494  MISS:      22928
LLC PREFETCH  ACCESS:          0  HIT:          0  MISS:          0
LLC WRITEBACK ACCESS:      55669  HIT:      48704  MISS:       6965
Heartbeat CPU 0 instructions: 100000003 cycles: 71963050 heartbeat IPC: 0.832528 cumulative IPC: 0.840859 (Simulation time: 0 hr 56 min 47 sec) 

Region of Interest Statistics
cpu0_DTLB TOTAL     ACCESS:   12563004  HIT:   12453029  MISS:     109975
cpu0_DTLB LOAD      ACCESS:    9881051  HIT:    9773410  MISS:     107641
cpu0_DTLB RFO       ACCESS:    2681953  HIT:    2679619  MISS:       2334
cpu0_DTLB PREFETCH  ACCESS:          0  HIT:          0  MISS:          0
cpu0_DTLB WRITEBACK ACCESS:          0  HIT:          0  MISS:          0
cpu0_ITLB TOTAL     ACCESS:    5720801  HIT:    5720801  MISS:          0
cpu0_ITLB LOAD      ACCESS:    5720801  HIT:    5720801  MISS:          0
cpu0_ITLB RFO       ACCESS:          0  HIT:          0  MISS:          0
cpu0_ITLB PREFETCH  ACCESS:          0  HIT:          0  MISS:          0
cpu0_ITLB WRITEBACK ACCESS:          0  HIT:          0  MISS:          0
cpu0_STLB TOTAL     ACCESS:     109975  HIT:     106408  MISS:       3567
cpu0_STLB LOAD      ACCESS:     107641  HIT:     104964  MISS:       2677
cpu0_STLB RFO       ACCESS:       2334  HIT:       1444  MISS:        890
cpu0_STLB PREFETCH  ACCESS:          0  HIT:          0  MISS:          0
cpu0_STLB WRITEBACK ACCESS:          0  HIT:          0  MISS:          0
cpu0_L1D TOTAL     ACCESS:   15234659  HIT:   15092327  MISS:     142332
cpu0_L1D LOAD      ACCESS:    8727555  HIT:    8614395  MISS:     113160
cpu0_L1D RFO       ACCESS:    6503548  HIT:    6474549  MISS:      28999
cpu0_L1D PREFETCH  ACCESS:          0  HIT:          0  MISS:          0
cpu0_L1D WRITEBACK ACCESS:          0  HIT:          0  MISS:          0
cpu0_L2C TOTAL     ACCESS:     224965  HIT:     142440  MISS:      82525
cpu0_L2C LOAD      ACCESS:     113140  HIT:      58236  MISS:      54904
cpu0_L2C RFO       ACCESS:      28999  HIT:       1392  MISS:      27607
cpu0_L2C PREFETCH  ACCESS:          0  HIT:          0  MISS:          0
cpu0_L2C WRITEBACK ACCESS:      82653  HIT:      82647  MISS:          6
LLC TOTAL     ACCESS:     140510  HIT:      74514  MISS:      65996
LLC LOAD      ACCESS:      54904  HIT:      20132  MISS:      34772
LLC RFO       ACCESS:      27607  HIT:       3543  MISS:      24064
LLC PREFETCH  ACCESS:          0  HIT:          0  MISS:          0
LLC WRITEBACK ACCESS:      57991  HIT:      50835  MISS:       7156
Heartbeat CPU 0 instructions: 102000002 cycles: 74337193 heartbeat IPC: 0.842409 cumulative IPC: 0.840919 (Simulation time: 0 hr 57 min 57 sec) 

Region of Interest Statistics
cpu0_DTLB TOTAL     ACCESS:   13063737  HIT:   12950110  MISS:     113627
cpu0_DTLB LOAD      ACCESS:   10275452  HIT:   10164243  MISS:     111209
cpu0_DTLB RFO       ACCESS:    2788285  HIT:    2785867  MISS:       2418
cpu0_DTLB PREFETCH  ACCESS:          0  HIT:          0  MISS:          0
cpu0_DTLB WRITEBACK ACCESS:          0  HIT:          0  MISS:          0
cpu0_ITLB TOTAL     ACCESS:    5949150  HIT:    5949150  MISS:          0
cpu0_ITLB LOAD      ACCESS:    5949150  HIT:    5949150  MISS:          0
cpu0_ITLB RFO       ACCESS:          0  HIT:          0  MISS:          0
cpu0_ITLB PREFETCH  ACCESS:          0  HIT:          0  MISS:          0
cpu0_ITLB WRITEBACK ACCESS:          0  HIT:          0  MISS:          0
cpu0_STLB TOTAL     ACCESS:     113627  HIT:     109909  MISS:       3718
cpu0_STLB LOAD      ACCESS:     111209  HIT:     108421  MISS:       2788
cpu0_STLB RFO       ACCESS:       2418  HIT:       1488  MISS:        930
cpu0_STLB PREFETCH  ACCESS:          0  HIT:          0  MISS:          0
cpu0_STLB WRITEBACK ACCESS:          0  HIT:          0  MISS:          0
cpu0_L1D TOTAL     ACCESS:   15840991  HIT:   15693867  MISS:     147124
cpu0_L1D LOAD      ACCESS:    9075829  HIT:    8959225  MISS:     116604
cpu0_L1D RFO       ACCESS:    6761455  HIT:    6731137  MISS:      30318
cpu0_L1D PREFETCH  ACCESS:          0  HIT:          0  MISS:          0
cpu0_L1D WRITEBACK ACCESS:          0  HIT:          0  MISS:          0
cpu0_L2C TOTAL     ACCESS:     232662  HIT:     147115  MISS:      85547
cpu0_L2C LOAD      ACCESS:     116583  HIT:      59894  MISS:      56689
cpu0_L2C RFO       ACCESS:      30318  HIT:       1475  MISS:      28843
cpu0_L2C PREFETCH  ACCESS:          0  HIT:          0  MISS:          0
cpu0_L2C WRITEBACK ACCESS:      85559  HIT:      85553  MISS:          6
LLC TOTAL     ACCESS:     145776  HIT:      77043  MISS:      68733
LLC LOAD      ACCESS:      56689  HIT:      20444  MISS:      36245
LLC RFO       ACCESS:      28843  HIT:       3613  MISS:      25230
LLC PREFETCH  ACCESS:          0  HIT:          0  MISS:          0
LLC WRITEBACK ACCESS:      60235  HIT:      52981  MISS:       7254
Heartbeat CPU 0 instructions: 104000000 cycles: 76692965 heartbeat IPC: 0.848978 cumulative IPC: 0.841215 (Simulation time: 0 hr 59 min 9 sec) 

Region of Interest Statistics
cpu0_DTLB TOTAL     ACCESS:   13560347  HIT:   13443171  MISS:     117176
cpu0_DTLB LOAD      ACCESS:   10665746  HIT:   10551070  MISS:     114676
cpu0_DTLB RFO       ACCESS:    2894601  HIT:    2892101  MISS:       2500
cpu0_DTLB PREFETCH  ACCESS:          0  HIT:          0  MISS:          0
cpu0_DTLB WRITEBACK ACCESS:          0  HIT:          0  MISS:          0
cpu0_ITLB TOTAL     ACCESS:    6178094  HIT:    6178094  MISS:          0
cpu0_ITLB LOAD      ACCESS:    6178094  HIT:    6178094  MISS:          0
cpu0_ITLB RFO       ACCESS:          0  HIT:          0  MISS:          0
cpu0_ITLB PREFETCH  ACCESS:          0  HIT:          0  MISS:          0
cpu0_ITLB WRITEBACK ACCESS:          0  HIT:          0  MISS:          0
cpu0_STLB TOTAL     ACCESS:     117176  HIT:     113276  MISS:       3900
cpu0_STLB LOAD      ACCESS:     114676  HIT:     111744  MISS:       2932
cpu0_STLB RFO       ACCESS:       2500  HIT:       1532  MISS:        968
cpu0_STLB PREFETCH  ACCESS:          0  HIT:          0  MISS:          0
cpu0_STLB WRITEBACK ACCESS:          0  HIT:          0  MISS:          0
cpu0_L1D TOTAL     ACCESS:   16446769  HIT:   16294795  MISS:     151974
cpu0_L1D LOAD      ACCESS:    9423029  HIT:    9302891  MISS:     120138
cpu0_L1D RFO       ACCESS:    7019851  HIT:    6988217  MISS:      31634
cpu0_L1D PREFETCH  ACCESS:          0  HIT:          0  MISS:          0
cpu0_L1D WRITEBACK ACCESS:          0  HIT:          0  MISS:          0
cpu0_L2C TOTAL     ACCESS:     240457  HIT:     152107  MISS:      88350
cpu0_L2C LOAD      ACCESS:     120117  HIT:      61904  MISS:      58213
cpu0_L2C RFO       ACCESS:      31634  HIT:       1512  MISS:      30122
cpu0_L2C PREFETCH  ACCESS:          0  HIT:          0  MISS:          0
cpu0_L2C WRITEBACK ACCESS:      88504  HIT:      88498  MISS:          6
LLC TOTAL     ACCESS:     150641  HIT:      79243  MISS:      71398
LLC LOAD      ACCESS:      58213  HIT:      20666  MISS:      37547
LLC RFO       ACCESS:      30122  HIT:       3679  MISS:      26443
LLC PREFETCH  ACCESS:          0  HIT:          0  MISS:          0
LLC WRITEBACK ACCESS:      62297  HIT:      54893  MISS:       7404
Heartbeat CPU 0 instructions: 106000003 cycles: 79024700 heartbeat IPC: 0.857732 cumulative IPC: 0.841794 (Simulation time: 1 hr 0 min 14 sec) 

Region of Interest Statistics
cpu0_DTLB TOTAL     ACCESS:   14060186  HIT:   13939438  MISS:     120748
cpu0_DTLB LOAD      ACCESS:   11059424  HIT:   10941250  MISS:     118174
cpu0_DTLB RFO       ACCESS:    3000762  HIT:    2998188  MISS:       2574
cpu0_DTLB PREFETCH  ACCESS:          0  HIT:          0  MISS:          0
cpu0_DTLB WRITEBACK ACCESS:          0  HIT:          0  MISS:          0
cpu0_ITLB TOTAL     ACCESS:    6407062  HIT:    6407062  MISS:          0
cpu0_ITLB LOAD      ACCESS:    6407062  HIT:    6407062  MISS:          0
cpu0_ITLB RFO       ACCESS:          0  HIT:          0  MISS:          0
cpu0_ITLB PREFETCH  ACCESS:          0  HIT:          0  MISS:          0
cpu0_ITLB WRITEBACK ACCESS:          0  HIT:          0  MISS:          0
cpu0_STLB TOTAL     ACCESS:     120748  HIT:     116687  MISS:       4061
cpu0_STLB LOAD      ACCESS:     118174  HIT:     115120  MISS:       3054
cpu0_STLB RFO       ACCESS:       2574  HIT:       1567  MISS:       1007
cpu0_STLB PREFETCH  ACCESS:          0  HIT:          0  MISS:          0
cpu0_STLB WRITEBACK ACCESS:          0  HIT:          0  MISS:          0
cpu0_L1D TOTAL     ACCESS:   17054138  HIT:   16897199  MISS:     156939
cpu0_L1D LOAD      ACCESS:    9772066  HIT:    9648350  MISS:     123716
cpu0_L1D RFO       ACCESS:    7278022  HIT:    7245001  MISS:      33021
cpu0_L1D PREFETCH  ACCESS:          0  HIT:          0  MISS:          0
cpu0_L1D WRITEBACK ACCESS:          0  HIT:          0  MISS:          0
cpu0_L2C TOTAL     ACCESS:     248499  HIT:     157383  MISS:      91116
cpu0_L2C LOAD      ACCESS:     123695  HIT:      64079  MISS:      59616
cpu0_L2C RFO       ACCESS:      33021  HIT:       1536  MISS:      31485
cpu0_L2C PREFETCH  ACCESS:          0  HIT:          0  MISS:          0
cpu0_L2C WRITEBACK ACCESS:      91581  HIT:      91575  MISS:          6
LLC TOTAL     ACCESS:     155472  HIT:      81490  MISS:      73982
LLC LOAD      ACCESS:      59616  HIT:      20916  MISS:      38700
LLC RFO       ACCESS:      31485  HIT:       3747  MISS:      27738
LLC PREFETCH  ACCESS:          0  HIT:          0  MISS:          0
LLC WRITEBACK ACCESS:      64362  HIT:      56822  MISS:       7540
Heartbeat CPU 0 instructions: 108000000 cycles: 81345454 heartbeat IPC: 0.861788 cumulative IPC: 0.842468 (Simulation time: 1 hr 1 min 25 sec) 

Region of Interest Statistics
cpu0_DTLB TOTAL     ACCESS:   14560454  HIT:   14436729  MISS:     123725
cpu0_DTLB LOAD      ACCESS:   11453673  HIT:   11332581  MISS:     121092
cpu0_DTLB RFO       ACCESS:    3106781  HIT:    3104148  MISS:       2633
cpu0_DTLB PREFETCH  ACCESS:          0  HIT:          0  MISS:          0
cpu0_DTLB WRITEBACK ACCESS:          0  HIT:          0  MISS:          0
cpu0_ITLB TOTAL     ACCESS:    6636229  HIT:    6636229  MISS:          0
cpu0_ITLB LOAD      ACCESS:    6636229  HIT:    6636229  MISS:          0
cpu0_ITLB RFO       ACCESS:          0  HIT:          0  MISS:          0
cpu0_ITLB PREFETCH  ACCESS:          0  HIT:          0  MISS:          0
cpu0_ITLB WRITEBACK ACCESS:          0  HIT:          0  MISS:          0
cpu0_STLB TOTAL     ACCESS:     123725  HIT:     119479  MISS:       4246
cpu0_STLB LOAD      ACCESS:     121092  HIT:     117888  MISS:       3204
cpu0_STLB RFO       ACCESS:       2633  HIT:       1591  MISS:       1042
cpu0_STLB PREFETCH  ACCESS:          0  HIT:          0  MISS:          0
cpu0_STLB WRITEBACK ACCESS:          0  HIT:          0  MISS:          0
cpu0_L1D TOTAL     ACCESS:   17661609  HIT:   17499763  MISS:     161846
cpu0_L1D LOAD      ACCESS:   10121321  HIT:    9994141  MISS:     127180
cpu0_L1D RFO       ACCESS:    7536054  HIT:    7501592  MISS:      34462
cpu0_L1D PREFETCH  ACCESS:          0  HIT:          0  MISS:          0
cpu0_L1D WRITEBACK ACCESS:          0  HIT:          0  MISS:          0
cpu0_L2C TOTAL     ACCESS:     256397  HIT:     162460  MISS:      93937
cpu0_L2C LOAD      ACCESS:     127157  HIT:      66147  MISS:      61010
cpu0_L2C RFO       ACCESS:      34462  HIT:       1552  MISS:      32910
cpu0_L2C PREFETCH  ACCESS:          0  HIT:          0  MISS:          0
cpu0_L2C WRITEBACK ACCESS:      94574  HIT:      94568  MISS:          6
LLC TOTAL     ACCESS:     160460  HIT:      83868  MISS:      76592
LLC LOAD      ACCESS:      61010  HIT:      21197  MISS:      39813
LLC RFO       ACCESS:      32910  HIT:       3812  MISS:      29098
LLC PREFETCH  ACCESS:          0  HIT:          0  MISS:          0
LLC WRITEBACK ACCESS:      66529  HIT:      58853  MISS:       7676
Heartbeat CPU 0 instructions: 110000002 cycles: 83642663 heartbeat IPC: 0.870623 cumulative IPC: 0.843377 (Simulation time: 1 hr 2 min 34 sec) 

Region of Interest Statistics
cpu0_DTLB TOTAL     ACCESS:   15060035  HIT:   14933111  MISS:     126924
cpu0_DTLB LOAD      ACCESS:   11847187  HIT:   11722965  MISS:     124222
cpu0_DTLB RFO       ACCESS:    3212848  HIT:    3210146  MISS:       2702
cpu0_DTLB PREFETCH  ACCESS:          0  HIT:          0  MISS:          0
cpu0_DTLB WRITEBACK ACCESS:          0  HIT:          0  MISS:          0
cpu0_ITLB TOTAL     ACCESS:    6865319  HIT:    6865319  MISS:          0
cpu0_ITLB LOAD      ACCESS:    6865319  HIT:    6865319  MISS:          0
cpu0_ITLB RFO       ACCESS:          0  HIT:          0  MISS:          0
cpu0_ITLB PREFETCH  ACCESS:          0  HIT:          0  MISS:          0
cpu0_ITLB WRITEBACK ACCESS:          0  HIT:          0  MISS:          0
cpu0_STLB TOTAL     ACCESS:     126924  HIT:     122567  MISS:       4357
cpu0_STLB LOAD      ACCESS:     124222  HIT:     120947  MISS:       3275
cpu0_STLB RFO       ACCESS:       2702  HIT:       1620  MISS:       1082
cpu0_STLB PREFETCH  ACCESS:          0  HIT:          0  MISS:          0
cpu0_STLB WRITEBACK ACCESS:          0  HIT:          0  MISS:          0
cpu0_L1D TOTAL     ACCESS:   18268365  HIT:   18101326  MISS:     167039
cpu0_L1D LOAD      ACCESS:   10469922  HIT:   10339004  MISS:     130918
cpu0_L1D RFO       ACCESS:    7794098  HIT:    7758181  MISS:      35917
cpu0_L1D PREFETCH  ACCESS:          0  HIT:          0  MISS:          0
cpu0_L1D WRITEBACK ACCESS:          0  HIT:          0  MISS:          0
cpu0_L2C TOTAL     ACCESS:     264776  HIT:     167951  MISS:      96825
cpu0_L2C LOAD      ACCESS:     130894  HIT:      68437  MISS:      62457
cpu0_L2C RFO       ACCESS:      35917  HIT:       1566  MISS:      34351
cpu0_L2C PREFETCH  ACCESS:          0  HIT:          0  MISS:          0
cpu0_L2C WRITEBACK ACCESS:      97761  HIT:      97755  MISS:          6
LLC TOTAL     ACCESS:     165507  HIT:      86380  MISS:      79127
LLC LOAD      ACCESS:      62457  HIT:      21621  MISS:      40836
LLC RFO       ACCESS:      34351  HIT:       3833  MISS:      30518
LLC PREFETCH  ACCESS:          0  HIT:          0  MISS:          0
LLC WRITEBACK ACCESS:      68688  HIT:      60920  MISS:       7768
Heartbeat CPU 0 instructions: 112000000 cycles: 85984204 heartbeat IPC: 0.854138 cumulative IPC: 0.84372 (Simulation time: 1 hr 3 min 46 sec) 

Region of Interest Statistics
cpu0_DTLB TOTAL     ACCESS:   15560317  HIT:   15430046  MISS:     130271
cpu0_DTLB LOAD      ACCESS:   12241132  HIT:   12113655  MISS:     127477
cpu0_DTLB RFO       ACCESS:    3319185  HIT:    3316391  MISS:       2794
cpu0_DTLB PREFETCH  ACCESS:          0  HIT:          0  MISS:          0
cpu0_DTLB WRITEBACK ACCESS:          0  HIT:          0  MISS:          0
cpu0_ITLB TOTAL     ACCESS:    7094172  HIT:    7094172  MISS:          0
cpu0_ITLB LOAD      ACCESS:    7094172  HIT:    7094172  MISS:          0
cpu0_ITLB RFO       ACCESS:          0  HIT:          0  MISS:          0
cpu0_ITLB PREFETCH  ACCESS:          0  HIT:          0  MISS:          0
cpu0_ITLB WRITEBACK ACCESS:          0  HIT:          0  MISS:          0
cpu0_STLB TOTAL     ACCESS:     130271  HIT:     125760  MISS:       4511
cpu0_STLB LOAD      ACCESS:     127477  HIT:     124084  MISS:       3393
cpu0_STLB RFO       ACCESS:       2794  HIT:       1676  MISS:       1118
cpu0_STLB PREFETCH  ACCESS:          0  HIT:          0  MISS:          0
cpu0_STLB WRITEBACK ACCESS:          0  HIT:          0  MISS:          0
cpu0_L1D TOTAL     ACCESS:   18875622  HIT:   18703788  MISS:     171834
cpu0_L1D LOAD      ACCESS:   10819207  HIT:   10684803  MISS:     134404
cpu0_L1D RFO       ACCESS:    8051916  HIT:    8014692  MISS:      37224
cpu0_L1D PREFETCH  ACCESS:          0  HIT:          0  MISS:          0
cpu0_L1D WRITEBACK ACCESS:          0  HIT:          0  MISS:          0
cpu0_L2C TOTAL     ACCESS:     272536  HIT:     173037  MISS:      99499
cpu0_L2C LOAD      ACCESS:     134380  HIT:      70495  MISS:      63885
cpu0_L2C RFO       ACCESS:      37224  HIT:       1628  MISS:      35596
cpu0_L2C PREFETCH  ACCESS:          0  HIT:          0  MISS:          0
cpu0_L2C WRITEBACK ACCESS:     100726  HIT:     100720  MISS:          6
LLC TOTAL     ACCESS:     170256  HIT:      88591  MISS:      81665
LLC LOAD      ACCESS:      63885  HIT:      21844  MISS:      42041
LLC RFO       ACCESS:      35596  HIT:       3857  MISS:      31739
LLC PREFETCH  ACCESS:          0  HIT:          0  MISS:          0
LLC WRITEBACK ACCESS:      70763  HIT:      62883  MISS:       7880
Heartbeat CPU 0 instructions: 114000004 cycles: 88346560 heartbeat IPC: 0.846614 cumulative IPC: 0.84381 (Simulation time: 1 hr 4 min 55 sec) 

Region of Interest Statistics
cpu0_DTLB TOTAL     ACCESS:   16060640  HIT:   15926374  MISS:     134266
cpu0_DTLB LOAD      ACCESS:   12634885  HIT:   12503520  MISS:     131365
cpu0_DTLB RFO       ACCESS:    3425755  HIT:    3422854  MISS:       2901
cpu0_DTLB PREFETCH  ACCESS:          0  HIT:          0  MISS:          0
cpu0_DTLB WRITEBACK ACCESS:          0  HIT:          0  MISS:          0
cpu0_ITLB TOTAL     ACCESS:    7323141  HIT:    7323141  MISS:          0
cpu0_ITLB LOAD      ACCESS:    7323141  HIT:    7323141  MISS:          0
cpu0_ITLB RFO       ACCESS:          0  HIT:          0  MISS:          0
cpu0_ITLB PREFETCH  ACCESS:          0  HIT:          0  MISS:          0
cpu0_ITLB WRITEBACK ACCESS:          0  HIT:          0  MISS:          0
cpu0_STLB TOTAL     ACCESS:     134266  HIT:     129611  MISS:       4655
cpu0_STLB LOAD      ACCESS:     131365  HIT:     127863  MISS:       3502
cpu0_STLB RFO       ACCESS:       2901  HIT:       1748  MISS:       1153
cpu0_STLB PREFETCH  ACCESS:          0  HIT:          0  MISS:          0
cpu0_STLB WRITEBACK ACCESS:          0  HIT:          0  MISS:          0
cpu0_L1D TOTAL     ACCESS:   19484408  HIT:   19307112  MISS:     177296
cpu0_L1D LOAD      ACCESS:   11168325  HIT:   11029754  MISS:     138571
cpu0_L1D RFO       ACCESS:    8311440  HIT:    8272921  MISS:      38519
cpu0_L1D PREFETCH  ACCESS:          0  HIT:          0  MISS:          0
cpu0_L1D WRITEBACK ACCESS:          0  HIT:          0  MISS:          0
cpu0_L2C TOTAL     ACCESS:     281194  HIT:     178820  MISS:     102374
cpu0_L2C LOAD      ACCESS:     138543  HIT:      73004  MISS:      65539
cpu0_L2C RFO       ACCESS:      38519  HIT:       1705  MISS:      36814
cpu0_L2C PREFETCH  ACCESS:          0  HIT:          0  MISS:          0
cpu0_L2C WRITEBACK ACCESS:     103926  HIT:     103917  MISS:          9
LLC TOTAL     ACCESS:     175446  HIT:      91195  MISS:      84251
LLC LOAD      ACCESS:      65539  HIT:      22215  MISS:      43324
LLC RFO       ACCESS:      36814  HIT:       3893  MISS:      32921
LLC PREFETCH  ACCESS:          0  HIT:          0  MISS:          0
LLC WRITEBACK ACCESS:      73081  HIT:      65080  MISS:       8001
Heartbeat CPU 0 instructions: 116000001 cycles: 90676511 heartbeat IPC: 0.858386 cumulative IPC: 0.844244 (Simulation time: 1 hr 6 min 5 sec) 

Region of Interest Statistics
cpu0_DTLB TOTAL     ACCESS:   16561092  HIT:   16422740  MISS:     138352
cpu0_DTLB LOAD      ACCESS:   13029048  HIT:   12893690  MISS:     135358
cpu0_DTLB RFO       ACCESS:    3532044  HIT:    3529050  MISS:       2994
cpu0_DTLB PREFETCH  ACCESS:          0  HIT:          0  MISS:          0
cpu0_DTLB WRITEBACK ACCESS:          0  HIT:          0  MISS:          0
[...]
cpu0_L1D PREFETCH  ACCESS:          0  HIT:          0  MISS:          0
cpu0_L1D WRITEBACK ACCESS:          0  HIT:          0  MISS:          0
cpu0_L2C TOTAL     ACCESS:   10816962  HIT:    7649549  MISS:    3167413
cpu0_L2C LOAD      ACCESS:    6979467  HIT:    4303211  MISS:    2676256
cpu0_L2C RFO       ACCESS:     916549  HIT:     425821  MISS:     490728
cpu0_L2C PREFETCH  ACCESS:          0  HIT:          0  MISS:          0
cpu0_L2C WRITEBACK ACCESS:    2912841  HIT:    2912694  MISS:        147
LLC TOTAL     ACCESS:    5245650  HIT:    2107161  MISS:    3138489
LLC LOAD      ACCESS:    2676246  HIT:     122870  MISS:    2553376
LLC RFO       ACCESS:     490728  HIT:       7298  MISS:     483430
LLC PREFETCH  ACCESS:          0  HIT:          0  MISS:          0
LLC WRITEBACK ACCESS:    2078394  HIT:    1976821  MISS:     101573
Finished CPU 0 instructions: 1500000004 cycles: 1934456331 cumulative IPC: 0.775412 (Simulation time: 15 hr 5 min 26 sec) 

ChampSim completed all CPUs

Region of Interest Statistics

CPU 0 cumulative IPC: 0.775412 instructions: 1500000004 cycles: 1934456331
cpu0_DTLB TOTAL     ACCESS:  374729722  HIT:  369707381  MISS:    5022341
cpu0_DTLB LOAD      ACCESS:  294166614  HIT:  289217192  MISS:    4949422
cpu0_DTLB RFO       ACCESS:   80563108  HIT:   80490189  MISS:      72919
cpu0_DTLB PREFETCH  ACCESS:          0  HIT:          0  MISS:          0
cpu0_DTLB WRITEBACK ACCESS:          0  HIT:          0  MISS:          0
cpu0_DTLB TRANSLATION ACCESS:          0  HIT:          0  MISS:          0
cpu0_DTLB PREFETCH  REQUESTED:          0  ISSUED:          0  USEFUL:          0  USELESS:          0
cpu0_DTLB AVERAGE MISS LATENCY: 10.3194 cycles
cpu0_ITLB TOTAL     ACCESS:  171211480  HIT:  171211480  MISS:          0
cpu0_ITLB LOAD      ACCESS:  171211480  HIT:  171211480  MISS:          0
cpu0_ITLB RFO       ACCESS:          0  HIT:          0  MISS:          0
cpu0_ITLB PREFETCH  ACCESS:          0  HIT:          0  MISS:          0
cpu0_ITLB WRITEBACK ACCESS:          0  HIT:          0  MISS:          0
cpu0_ITLB TRANSLATION ACCESS:          0  HIT:          0  MISS:          0
cpu0_ITLB PREFETCH  REQUESTED:          0  ISSUED:          0  USEFUL:          0  USELESS:          0
cpu0_ITLB AVERAGE MISS LATENCY: -nan cycles
cpu0_STLB TOTAL     ACCESS:    5022341  HIT:    4325999  MISS:     696342
cpu0_STLB LOAD      ACCESS:    4949422  HIT:    4268946  MISS:     680476
cpu0_STLB RFO       ACCESS:      72919  HIT:      57053  MISS:      15866
cpu0_STLB PREFETCH  ACCESS:          0  HIT:          0  MISS:          0
cpu0_STLB WRITEBACK ACCESS:          0  HIT:          0  MISS:          0
cpu0_STLB TRANSLATION ACCESS:          0  HIT:          0  MISS:          0
cpu0_STLB PREFETCH  REQUESTED:          0  ISSUED:          0  USEFUL:          0  USELESS:          0
cpu0_STLB AVERAGE MISS LATENCY: 9.43381 cycles
cpu0_L1D TOTAL     ACCESS:  453734895  HIT:  445827841  MISS:    7907054
cpu0_L1D LOAD      ACCESS:  257473938  HIT:  250491539  MISS:    6982399
cpu0_L1D RFO       ACCESS:  195566188  HIT:  194649638  MISS:     916550
cpu0_L1D PREFETCH  ACCESS:          0  HIT:          0  MISS:          0
cpu0_L1D WRITEBACK ACCESS:          0  HIT:          0  MISS:          0
cpu0_L1D TRANSLATION ACCESS:     694769  HIT:     686664  MISS:       8105
cpu0_L1D PREFETCH  REQUESTED:          0  ISSUED:          0  USEFUL:          0  USELESS:          0
cpu0_L1D AVERAGE MISS LATENCY: 81.4603 cycles
cpu0_L2C TOTAL     ACCESS:   10816962  HIT:    7649549  MISS:    3167413
cpu0_L2C LOAD      ACCESS:    6979467  HIT:    4303211  MISS:    2676256
cpu0_L2C RFO       ACCESS:     916549  HIT:     425821  MISS:     490728
cpu0_L2C PREFETCH  ACCESS:          0  HIT:          0  MISS:          0
cpu0_L2C WRITEBACK ACCESS:    2912841  HIT:    2912694  MISS:        147
cpu0_L2C TRANSLATION ACCESS:       8105  HIT:       7823  MISS:        282
cpu0_L2C PREFETCH  REQUESTED:          0  ISSUED:          0  USEFUL:          0  USELESS:          0
cpu0_L2C AVERAGE MISS LATENCY: 175.874 cycles
LLC TOTAL     ACCESS:    5245650  HIT:    2107161  MISS:    3138489
LLC LOAD      ACCESS:    2676246  HIT:     122870  MISS:    2553376
LLC RFO       ACCESS:     490728  HIT:       7298  MISS:     483430
LLC PREFETCH  ACCESS:          0  HIT:          0  MISS:          0
LLC WRITEBACK ACCESS:    2078394  HIT:    1976821  MISS:     101573
LLC TRANSLATION ACCESS:        282  HIT:        172  MISS:        110
LLC PREFETCH  REQUESTED:          0  ISSUED:          0  USEFUL:          0  USELESS:          0
LLC AVERAGE MISS LATENCY: 156.302 cycles
~~~~~~~~~~Reuse Distance Profiler output~~~~~~~~~~
0	121474064	10223952
1	34163040	17374256
2	24637616	18494896
3	41670736	32325104
4	22820608	20127696
5	10579568	9503968
6	12222864	8954368
7	17501584	13610752
8	13712080	7975216
9	14253920	10489472
10	8343920	4925072
11	7012288	4917648
12	8301696	6166592
13	10401392	8979664
14	7642016	6118176
15	6616368	5475728
16	5871648	5090976
17	8571520	7351216
18	8143424	4746400
19	6266736	3419200
20	2928256	2034784
21	3712816	2944592
22	3288320	2494832
23	2674032	2202288
24	2314048	1560624
25	2782944	2123232
26	2990144	2195312
27	2486160	1782736
28	2644624	2031808
29	1916864	1146912
30	1315264	881808
31	1028192	733024
32	931184	720176
33	1070528	956032
34	588832	450672
35	610544	314784
36	465296	336800
37	590944	532688
38	594448	545904
39	818432	735264
40	512816	472400
41	373456	313312
42	487152	330992
43	606144	485232
44	855216	624912
45	932496	804752
46	609776	525648
47	405424	311232
48	354096	290128
49	391296	329392
50	500112	426256
51	295024	229856
52	340192	276944
53	303024	204272
54	388080	329088
55	335936	258816
56	465200	369888
57	506512	331584
58	774560	695360
59	405616	287328
60	436400	297488
61	347376	278048
62	227632	160000
63	269616	192304
64	462240	378784
66	405088	328096
68	646464	524512
70	695824	513664
72	598032	297680
74	474656	291520
76	462064	283600
78	427968	265008
80	314512	205440
82	390944	297392
84	249840	160064
86	352752	240096
88	421248	236832
90	331312	221728
92	401824	293680
94	325712	253840
96	390960	314128
98	380128	267888
100	369296	201408
102	300544	176176
104	404720	201120
106	370336	206688
108	493936	199920
110	390480	246928
112	437520	260848
114	392352	206976
116	444000	241232
118	373552	186672
120	308096	145088
122	212192	152192
124	229840	136656
126	214160	147840
128	592448	485360
132	668032	585280
136	753136	685360
140	1361328	1284288
144	1267280	1192400
148	537344	479168
152	333584	274480
156	243632	202032
160	149152	119296
164	128752	96912
168	143952	112528
172	114368	91392
176	93968	69616
180	93696	69984
184	77696	57984
188	61808	47440
192	72704	56896
196	92016	75808
200	174256	159968
204	198000	184032
208	139888	124288
212	108624	93712
216	65040	53072
220	49648	36768
224	38112	25664
228	27392	17408
232	19008	10624
236	15232	7040
240	13360	6272
244	11888	5152
248	10528	4160
252	9328	3360
256	13328	5904
264	10080	5072
272	10224	6400
280	8976	6528
288	7600	5104
296	8320	6864
304	9840	8688
312	10880	9584
320	15136	13728
328	13040	11920
336	9920	8832
344	5632	4800
352	6800	5264
360	6640	5504
368	11200	10560
376	31840	30688
384	36112	35120
392	23104	22448
400	29360	28592
408	22256	21536
416	31568	31072
424	22480	22096
432	19648	19168
440	21168	20848
448	18064	17760
456	10224	9664
464	7232	6784
472	8672	8160
480	20080	19712
488	40080	39840
496	50976	50592
504	62384	62048
512	40672	39584
528	15600	15072
544	22256	21840
560	28784	28464
576	11920	11568
592	3680	3264
608	2064	1760
624	1728	1520
640	1808	1536
656	1600	1472
672	1504	1248
688	1840	1600
704	1536	1248
720	832	656
736	848	656
752	672	464
768	1120	912
784	1312	1104
800	960	864
816	1264	1104
832	1120	928
848	1088	784
864	576	384
880	512	320
896	592	368
912	656	464
928	1280	1104
944	1232	1024
960	960	752
976	1072	832
992	512	240
1008	720	624
1024	880	640
1056	832	448
1088	1104	688
1120	1008	576
1152	960	592
1184	816	528
1216	656	352
1248	1184	704
1280	1184	880
1312	912	544
1344	800	384
1376	608	288
1408	576	400
1440	688	400
1472	688	256
1504	768	336
1536	848	336
1568	496	240
1600	576	320
1632	576	336
1664	576	192
1696	544	320
1728	656	320
1760	544	240
1792	688	400
1824	736	432
1856	528	272
1888	688	336
1920	624	288
1952	624	288
1984	512	288
2016	736	528
2048	1136	672
2112	1424	896
2176	1600	928
2240	1824	1152
2304	1952	1104
2368	1792	1296
2432	1792	1248
2496	1728	1200
2560	1808	1296
2624	1808	1376
2688	1760	1376
2752	1840	1200
2816	2288	1472
2880	2144	1488
2944	2368	1664
3008	2336	1680
3072	2432	1840
3136	2912	2224
3200	2768	2048
3264	2704	2064
3328	2624	2080
3392	2800	2384
3456	2480	1920
3520	2752	2208
3584	2800	2304
3648	3280	2576
3712	2624	2032
3776	3120	2496
3840	2928	2352
3904	2512	1984
3968	2320	1728
4032	2624	1968
4096	5520	4320
4224	5712	4480
4352	5904	4640
4480	5632	4464
4608	5216	3968
4736	5248	4192
4864	5744	4544
4992	5696	4432
5120	5280	3808
5248	4976	3728
5376	4928	3776
5504	4896	3792
5632	4528	3456
5760	5104	3776
5888	5328	3984
6016	4576	3376
6144	4048	2752
6272	4304	2976
6400	4128	3168
6528	4176	3040
6656	3728	2640
6784	3408	2432
6912	4080	3120
7040	4000	2896
7168	3392	2496
7296	3712	2576
7424	3536	2448
7552	3600	2544
7680	3424	2384
7808	3888	2672
7936	3136	2112
8064	3568	2416
8192	6464	4192
8448	6672	4512
8704	6080	4288
8960	6432	4496
9216	6960	4704
9472	6496	4576
9728	7264	5072
9984	7472	5424
10240	7248	5152
10496	6704	4528
10752	7120	5168
11008	6592	4848
11264	7088	5152
11520	7024	5296
11776	7568	5632
12032	7968	6000
12288	7312	5488
12544	6848	5088
12800	6976	5296
13056	6928	5392
13312	6928	5104
13568	6848	5008
13824	6800	5040
14080	7120	5456
14336	7056	5168
14592	6880	4976
14848	6560	4992
15104	6320	4592
15360	7024	5184
15616	6592	5072
15872	6832	4800
16128	6992	5056
16384	13616	10032
16896	14752	10672
17408	14272	10624
17920	15216	11104
18432	14768	11184
18944	14176	10368
19456	14736	10896
19968	16256	11920
20480	15648	11216
20992	16032	11888
21504	16560	12544
22016	17376	12944
22528	17536	13520
23040	18496	14048
23552	17696	13856
24064	19120	14368
24576	19376	14992
25088	22032	17296
25600	21136	16704
26112	21984	17632
26624	23936	19632
27136	24272	19984
27648	24592	20544
28160	26720	22656
28672	27456	22960
29184	26928	22224
29696	28640	24080
30208	29008	24352
30720	29616	24704
31232	31104	26176
31744	32528	27776
32256	31680	27536
32768	67216	57968
33792	74224	64464
34816	77344	68496
35840	83392	73616
36864	85840	76592
37888	88400	79280
38912	95728	86080
39936	94448	85440
40960	96320	87280
41984	100144	90240
43008	103840	94368
44032	102448	93632
45056	104176	95184
46080	106208	97216
47104	107312	98176
48128	108832	100240
49152	104864	96256
50176	107360	98544
51200	106032	96368
52224	106560	97792
53248	108400	99152
54272	104336	95728
55296	105600	96848
56320	104480	94912
57344	104032	94480
58368	102160	93152
59392	100272	91328
60416	98384	89296
61440	95984	87232
62464	93712	84496
63488	92448	84352
64512	89040	80672
65536	173456	156976
67584	160400	144240
69632	151632	135312
71680	142352	126896
73728	128736	114176
75776	122688	108352
77824	109136	95088
79872	101216	86768
81920	87104	74352
83968	81232	69184
86016	74688	63184
88064	68640	57744
90112	64320	54640
92160	61168	51120
94208	54016	44896
96256	48240	39088
98304	41792	33632
100352	38304	30896
102400	35536	28624
104448	30224	24176
106496	27872	22464
108544	26528	21536
110592	22832	17904
112640	20192	15888
114688	20176	16368
116736	17888	14224
118784	16576	13440
120832	14912	12384
122880	14208	11696
124928	12384	10160
126976	12256	10176
129024	11072	9376
131072	21760	18912
135168	19280	17184
139264	16400	15104
143360	14624	13552
147456	11920	11392
151552	11264	10768
155648	9744	9408
159744	7952	7744
163840	7568	7392
167936	5744	5568
172032	5264	5168
176128	4848	4832
180224	4016	3984
184320	3152	3136
188416	3280	3280
192512	2768	2768
196608	2464	2464
200704	2144	2144
204800	1952	1952
208896	2192	2192
212992	2160	2160
217088	1920	1920
221184	1808	1808
225280	1760	1760
229376	1424	1424
233472	1584	1584
237568	1664	1664
241664	1024	1024
245760	1504	1504
249856	1360	1360
253952	1296	1296
258048	1056	1056
262144	2512	2512
270336	2144	2144
278528	2544	2544
286720	2608	2608
294912	1648	1648
303104	2016	2016
311296	1920	1920
319488	1504	1504
327680	1584	1584
335872	1584	1584
344064	1616	1616
352256	1456	1456
360448	1520	1520
368640	1520	1520
376832	1264	1264
385024	1120	1120
393216	1328	1328
401408	1088	1088
409600	1424	1424
417792	1216	1216
425984	1136	1136
434176	1136	1136
442368	944	944
450560	1088	1088
458752	1088	1088
466944	880	880
475136	1168	1168
483328	912	912
491520	1216	1216
499712	1024	1024
507904	1120	1120
516096	688	688
524288	1872	1872
540672	1792	1792
557056	1888	1888
573440	2016	2016
589824	1856	1856
606208	1616	1616
622592	1760	1760
638976	1504	1504
655360	1792	1792
671744	1760	1760
688128	1840	1840
704512	1824	1824
720896	1792	1792
737280	1872	1872
753664	1600	1600
770048	1968	1968
786432	1728	1728
802816	1488	1488
819200	1280	1280
835584	1760	1760
851968	1888	1888
868352	1776	1776
884736	1680	1680
901120	1648	1648
917504	1296	1296
933888	1664	1664
950272	1296	1296
966656	1280	1280
983040	1376	1376
999424	1360	1360
1015808	1344	1344
1032192	1168	1168
1048576	2496	2496
1081344	2528	2528
1114112	2432	2432
1146880	2608	2608
1179648	2112	2112
1212416	1904	1904
1245184	2384	2384
1277952	2560	2560
1310720	2464	2464
1343488	2208	2208
1376256	2480	2480
1409024	2448	2448
1441792	2800	2800
1474560	2416	2416
1507328	3184	3184
1540096	7344	7296
1572864	15648	15408
1605632	8160	7792
1638400	6096	6016
1671168	12416	12160
1703936	14608	14272
1736704	23280	22848
1769472	22928	22160
1802240	18752	18272
1835008	6816	6384
1867776	1456	1456
1900544	1392	1376
1933312	1072	1072
1966080	1568	1568
1998848	1200	1184
2031616	1344	1344
2064384	1264	1232
2097152	2784	2784
2162688	2592	2592
2228224	2128	2128
2293760	3696	3632
2359296	4048	3920
2424832	2304	2272
2490368	2192	2112
2555904	2416	2352
2621440	2448	2416
2686976	1808	1808
2752512	2368	2304
2818048	2544	2464
2883584	3152	3040
2949120	2000	2000
3014656	2016	2000
3080192	1600	1600
3145728	1840	1712
3211264	1936	1776
3276800	1440	1392
3342336	1616	1472
3407872	1760	1360
3473408	1520	1216
3538944	1856	1504
3604480	2000	1456
3670016	1456	1248
3735552	1504	1472
3801088	1728	1648
3866624	1712	1376
3932160	2880	1936
3997696	2192	1776
4063232	1568	1456
4128768	1616	1584
4194304	2992	2944
4325376	3280	3136
4456448	3184	3040
4587520	3168	3136
4718592	2928	2832
4849664	3280	3120
4980736	4576	4208
5111808	7856	6304
5242880	5344	4160
5373952	4672	3792
5505024	5728	5024
5636096	6672	5536
5767168	9536	6912
5898240	9984	7840
6029312	11856	10240
6160384	10432	8944
6291456	10432	8576
6422528	10928	8736
6553600	7312	5808
6684672	6288	5584
6815744	6448	5520
6946816	7440	6544
7077888	14880	10848
7208960	16624	11328
7340032	11552	8464
7471104	13808	8896
7602176	10576	7904
7733248	7696	5792
7864320	8608	6464
7995392	5088	4480
8126464	5328	4656
8257536	5520	4512
8388608	12416	11056
8650752	10288	8992
8912896	12800	11632
9175040	20304	18448
9437184	28016	21744
9699328	51072	46496
9961472	46256	44688
10223616	15776	15120
10485760	17008	16528
10747904	51856	51200
11010048	122672	119392
11272192	65712	62896
11534336	40224	37504
11796480	87968	84768
12058624	99568	96144
12320768	83232	79392
12582912	35792	33280
12845056	24464	22432
13107200	30752	29120
13369344	73616	69712
13631488	90960	85776
13893632	80352	73648
14155776	59296	54416
14417920	66576	62160
14680064	57168	52048
14942208	55040	49360
15204352	50304	45472
15466496	38704	34624
15728640	35952	32080
15990784	45984	42176
16252928	63600	54576
16515072	48080	44080
16777216	159856	142704
17301504	193952	171104
17825792	111696	90496
18350080	95040	72912
18874368	31904	23408
19398656	55760	35936
19922944	40944	21744
20447232	25200	12192
20971520	5040	864
21495808	1344	0
22020096	1936	0
22544384	2176	0
23068672	2384	0
23592960	2160	0
24117248	2016	0
24641536	1888	0
25165824	1216	0
25690112	752	0
26214400	1568	0
26738688	1808	0
27262976	880	0
27787264	2400	0
28311552	1824	0
28835840	1616	0
29360128	5776	0
29884416	5376	0
30408704	3968	0
30932992	4032	0
31457280	1312	0
31981568	2544	0
32505856	176	0
33030144	608	0
33554432	1616	0
34603008	1232	0
35651584	5392	0
36700160	1904	0
37748736	2208	0
38797312	8352	0
39845888	2000	0
40894464	304	0
41943040	48	0
42991616	64	0
44040192	400	0
45088768	112	0
46137344	160	0
47185920	3440	0
48234496	7968	0
49283072	3360	0
50331648	976	0
51380224	16	0
52428800	288	0
53477376	5744	0
54525952	272	0
55574528	1952	0
56623104	192	0
57671680	192	0
58720256	16	0
59768832	176	0
60817408	320	0
61865984	528	0
62914560	240	0
63963136	128	0
65011712	976	0
66060288	1328	0
67108864	352	0
69206016	320	0
71303168	912	0
73400320	2016	0
75497472	32	0
77594624	944	0
79691776	224	0
81788928	80	0
83886080	832	0
85983232	480	0
88080384	256	0
90177536	1360	0
92274688	2480	0
94371840	384	0
96468992	1664	0
98566144	0	0
100663296	0	0
102760448	576	0
104857600	32	0
106954752	16	0
109051904	768	0
111149056	240	0
113246208	592	0
115343360	256	0
117440512	64	0
119537664	304	0
121634816	0	0
123731968	0	0
125829120	80	0
127926272	96	0
130023424	640	0
132120576	176	0
134217728	96	0
138412032	1088	0
142606336	1648	0
146800640	0	0
150994944	192	0
155189248	0	0
159383552	480	0
163577856	0	0
167772160	304	0
171966464	0	0
176160768	16	16
180355072	192	0
184549376	16	0
188743680	96	0
192937984	0	0
197132288	16	0
201326592	0	0
205520896	32	0
209715200	64	0
213909504	144	0
218103808	208	0
222298112	0	0
226492416	0	0
230686720	0	0
234881024	0	0
239075328	672	0
243269632	0	0
247463936	0	0
251658240	0	0
255852544	576	0
260046848	0	0
264241152	0	0
268435456	32	0
276824064	0	0
285212672	0	0
293601280	0	0
301989888	0	0
310378496	144	0
318767104	0	0
327155712	0	0
335544320	0	0
343932928	0	0
352321536	0	0
360710144	0	0
369098752	0	0
377487360	0	0
385875968	0	0
394264576	0	0
402653184	0	0
411041792	0	0
419430400	0	0
427819008	0	0
436207616	0	0
444596224	0	0
452984832	0	0
461373440	0	0
469762048	0	0
478150656	0	0
486539264	0	0
494927872	0	0
503316480	0	0
511705088	0	0
520093696	0	0
528482304	0	0
536870912	0	0
553648128	0	0
570425344	0	0
587202560	0	0
603979776	0	0
620756992	0	0
637534208	0	0
654311424	0	0
671088640	0	0
687865856	0	0
704643072	0	0
721420288	0	0
738197504	0	0
754974720	0	0
771751936	0	0
788529152	0	0
805306368	0	0
822083584	0	0
838860800	0	0
855638016	0	0
872415232	0	0
889192448	0	0
905969664	0	0
922746880	0	0
939524096	0	0
956301312	0	0
973078528	0	0
989855744	0	0
1006632960	0	0
1023410176	0	0
1040187392	0	0
1056964608	0	0
1073741824	0	0
1107296256	0	0
1140850688	0	0
1174405120	0	0
1207959552	0	0
1241513984	0	0
1275068416	0	0
1308622848	0	0
1342177280	0	0
1375731712	0	0
1409286144	0	0
1442840576	0	0
1476395008	0	0
1509949440	0	0
1543503872	0	0
1577058304	0	0
1610612736	0	0
1644167168	0	0
1677721600	0	0
1711276032	0	0
1744830464	0	0
1778384896	0	0
1811939328	0	0
1845493760	0	0
1879048192	0	0
1912602624	0	0
1946157056	0	0
1979711488	0	0
2013265920	0	0
2046820352	0	0
2080374784	0	0
2113929216	0	0
2147483648	0	0
2214592512	0	0
2281701376	0	0
2348810240	0	0
2415919104	0	0
2483027968	0	0
2550136832	0	0
2617245696	0	0
2684354560	0	0
2751463424	0	0
2818572288	0	0
2885681152	0	0
2952790016	0	0
3019898880	0	0
3087007744	0	0
3154116608	0	0
3221225472	0	0
3288334336	0	0
3355443200	0	0
3422552064	0	0
3489660928	0	0
3556769792	0	0
3623878656	0	0
3690987520	0	0
3758096384	0	0
3825205248	0	0
3892314112	0	0
3959422976	0	0
4026531840	0	0
4093640704	0	0
4160749568	0	0
4227858432	0	0
~~~~~~~~~~Reuse Distance Profiler output end~~~~~~~~~~

Sampler size:18497

DRAM Statistics
 CHANNEL 0
 RQ ROW_BUFFER_HIT:     202048  ROW_BUFFER_MISS:    2834854
 DBUS AVG_CONGESTED_CYCLE:    3.62755
 WQ ROW_BUFFER_HIT:     200307  ROW_BUFFER_MISS:    1831548  FULL:          0


CPU 0 Branch Prediction Accuracy: 77.2357% MPKI: 29.7067 Average ROB Occupancy at Mispredict: 44.2075
Branch type MPKI
BRANCH_DIRECT_JUMP: 0
BRANCH_INDIRECT: 0
BRANCH_CONDITIONAL: 29.7067
BRANCH_DIRECT_CALL: 0
BRANCH_INDIRECT_CALL: 0
BRANCH_RETURN: 0

