
*** ChampSim Multicore Out-of-Order Simulator ***

Warmup Instructions: 50000000
Simulation Instructions: 1500000000
Number of CPUs: 1
Off-chip DRAM Size: 4 GiB Channels: 1 Width: 64-bit Data Rate: 3200 MT/s

VirtualMemory physical capacity: 8588881920 num_ppages: 2096895
VirtualMemory page size: 4096 log2_page_size: 12

CPU 0 runs /s/traces/champsim_traces/481.wrf-1254B.champsimtrace.xz
CPU 0 Bimodal branch predictor
Basic BTB sets: 1024 ways: 8 indirect buffer size: 4096 RAS size: 64
Initializing LRU.
Initializing LRU.
Initializing LRU.
Initializing LRU.
Initializing rdLRU.
Initializing LRU.
Heartbeat CPU 0 instructions: 2000004 cycles: 501678 heartbeat IPC: 3.98663 cumulative IPC: 3.98663 (Simulation time: 0 hr 1 min 13 sec) 
Heartbeat CPU 0 instructions: 4000002 cycles: 1004658 heartbeat IPC: 3.9763 cumulative IPC: 3.98146 (Simulation time: 0 hr 2 min 29 sec) 
Heartbeat CPU 0 instructions: 6000001 cycles: 1530802 heartbeat IPC: 3.80124 cumulative IPC: 3.91951 (Simulation time: 0 hr 3 min 49 sec) 
Heartbeat CPU 0 instructions: 8000001 cycles: 2063659 heartbeat IPC: 3.75335 cumulative IPC: 3.87661 (Simulation time: 0 hr 5 min 7 sec) 
Heartbeat CPU 0 instructions: 10000001 cycles: 2596519 heartbeat IPC: 3.75333 cumulative IPC: 3.85131 (Simulation time: 0 hr 6 min 23 sec) 
Heartbeat CPU 0 instructions: 12000000 cycles: 3119020 heartbeat IPC: 3.82774 cumulative IPC: 3.84736 (Simulation time: 0 hr 7 min 26 sec) 
Heartbeat CPU 0 instructions: 14000003 cycles: 3626138 heartbeat IPC: 3.94386 cumulative IPC: 3.86086 (Simulation time: 0 hr 8 min 16 sec) 
Heartbeat CPU 0 instructions: 16000001 cycles: 4189972 heartbeat IPC: 3.54714 cumulative IPC: 3.81864 (Simulation time: 0 hr 9 min 30 sec) 
Heartbeat CPU 0 instructions: 18000003 cycles: 4760916 heartbeat IPC: 3.50297 cumulative IPC: 3.78079 (Simulation time: 0 hr 10 min 47 sec) 
Heartbeat CPU 0 instructions: 20000003 cycles: 5324736 heartbeat IPC: 3.54723 cumulative IPC: 3.75606 (Simulation time: 0 hr 11 min 53 sec) 
Heartbeat CPU 0 instructions: 22000003 cycles: 5888571 heartbeat IPC: 3.54714 cumulative IPC: 3.73605 (Simulation time: 0 hr 13 min 4 sec) 
Heartbeat CPU 0 instructions: 24000003 cycles: 6459499 heartbeat IPC: 3.50307 cumulative IPC: 3.71546 (Simulation time: 0 hr 14 min 16 sec) 
Heartbeat CPU 0 instructions: 26000001 cycles: 7023334 heartbeat IPC: 3.54713 cumulative IPC: 3.70195 (Simulation time: 0 hr 15 min 29 sec) 
Heartbeat CPU 0 instructions: 28000003 cycles: 7587794 heartbeat IPC: 3.54321 cumulative IPC: 3.69014 (Simulation time: 0 hr 16 min 40 sec) 
Heartbeat CPU 0 instructions: 30000001 cycles: 8158097 heartbeat IPC: 3.5069 cumulative IPC: 3.67733 (Simulation time: 0 hr 17 min 39 sec) 
Heartbeat CPU 0 instructions: 32000001 cycles: 8721931 heartbeat IPC: 3.54714 cumulative IPC: 3.66891 (Simulation time: 0 hr 18 min 51 sec) 
Heartbeat CPU 0 instructions: 34000004 cycles: 9287877 heartbeat IPC: 3.53391 cumulative IPC: 3.66069 (Simulation time: 0 hr 19 min 59 sec) 
Heartbeat CPU 0 instructions: 36000003 cycles: 9856695 heartbeat IPC: 3.51606 cumulative IPC: 3.65234 (Simulation time: 0 hr 21 min 11 sec) 
Heartbeat CPU 0 instructions: 38000003 cycles: 10420530 heartbeat IPC: 3.54714 cumulative IPC: 3.64665 (Simulation time: 0 hr 22 min 8 sec) 
Heartbeat CPU 0 instructions: 40000003 cycles: 10994851 heartbeat IPC: 3.48237 cumulative IPC: 3.63807 (Simulation time: 0 hr 23 min 22 sec) 
Heartbeat CPU 0 instructions: 42000000 cycles: 11599712 heartbeat IPC: 3.30654 cumulative IPC: 3.62078 (Simulation time: 0 hr 24 min 31 sec) 
Heartbeat CPU 0 instructions: 44000001 cycles: 12194090 heartbeat IPC: 3.36486 cumulative IPC: 3.60831 (Simulation time: 0 hr 25 min 47 sec) 
Heartbeat CPU 0 instructions: 46000003 cycles: 12798954 heartbeat IPC: 3.30653 cumulative IPC: 3.59404 (Simulation time: 0 hr 27 min 0 sec) 
Heartbeat CPU 0 instructions: 48000000 cycles: 13393330 heartbeat IPC: 3.36487 cumulative IPC: 3.58387 (Simulation time: 0 hr 28 min 20 sec) 
Heartbeat CPU 0 instructions: 50000002 cycles: 13998194 heartbeat IPC: 3.30653 cumulative IPC: 3.57189 (Simulation time: 0 hr 29 min 37 sec) 

Warmup complete CPU 0 instructions: 50000002 cycles: 13998194 (Simulation time: 0 hr 29 min 37 sec) 

Heartbeat CPU 0 instructions: 52000001 cycles: 15038471 heartbeat IPC: 1.92256 cumulative IPC: 1.92256 (Simulation time: 0 hr 31 min 22 sec) 

Region of Interest Statistics
cpu0_DTLB TOTAL     ACCESS:     418120  HIT:     418012  MISS:        108
cpu0_DTLB LOAD      ACCESS:     377310  HIT:     377202  MISS:        108
cpu0_DTLB RFO       ACCESS:      40810  HIT:      40810  MISS:          0
cpu0_DTLB PREFETCH  ACCESS:          0  HIT:          0  MISS:          0
cpu0_DTLB WRITEBACK ACCESS:          0  HIT:          0  MISS:          0
cpu0_ITLB TOTAL     ACCESS:      19547  HIT:      19547  MISS:          0
cpu0_ITLB LOAD      ACCESS:      19547  HIT:      19547  MISS:          0
cpu0_ITLB RFO       ACCESS:          0  HIT:          0  MISS:          0
cpu0_ITLB PREFETCH  ACCESS:          0  HIT:          0  MISS:          0
cpu0_ITLB WRITEBACK ACCESS:          0  HIT:          0  MISS:          0
cpu0_L1I TOTAL     ACCESS:        856  HIT:        856  MISS:          0
cpu0_L1I LOAD      ACCESS:        856  HIT:        856  MISS:          0
cpu0_L1I RFO       ACCESS:          0  HIT:          0  MISS:          0
cpu0_L1I PREFETCH  ACCESS:          0  HIT:          0  MISS:          0
cpu0_L1I WRITEBACK ACCESS:          0  HIT:          0  MISS:          0
cpu0_STLB TOTAL     ACCESS:        108  HIT:         59  MISS:         49
cpu0_STLB LOAD      ACCESS:        108  HIT:         59  MISS:         49
cpu0_STLB RFO       ACCESS:          0  HIT:          0  MISS:          0
cpu0_STLB PREFETCH  ACCESS:          0  HIT:          0  MISS:          0
cpu0_STLB WRITEBACK ACCESS:          0  HIT:          0  MISS:          0
cpu0_L1D TOTAL     ACCESS:     320277  HIT:     313296  MISS:       6981
cpu0_L1D LOAD      ACCESS:     254312  HIT:     247393  MISS:       6919
cpu0_L1D RFO       ACCESS:      65916  HIT:      65860  MISS:         56
cpu0_L1D PREFETCH  ACCESS:          0  HIT:          0  MISS:          0
cpu0_L1D WRITEBACK ACCESS:          0  HIT:          0  MISS:          0
cpu0_L2C TOTAL     ACCESS:       9367  HIT:       2642  MISS:       6725
cpu0_L2C LOAD      ACCESS:       6919  HIT:        216  MISS:       6703
cpu0_L2C RFO       ACCESS:         56  HIT:         56  MISS:          0
cpu0_L2C PREFETCH  ACCESS:          0  HIT:          0  MISS:          0
cpu0_L2C WRITEBACK ACCESS:       2386  HIT:       2365  MISS:         21
LLC TOTAL     ACCESS:       8912  HIT:       2162  MISS:       6750
LLC LOAD      ACCESS:       6703  HIT:          0  MISS:       6703
LLC RFO       ACCESS:          0  HIT:          0  MISS:          0
LLC PREFETCH  ACCESS:          0  HIT:          0  MISS:          0
LLC WRITEBACK ACCESS:       2208  HIT:       2162  MISS:         46
Heartbeat CPU 0 instructions: 54000000 cycles: 16101135 heartbeat IPC: 1.88206 cumulative IPC: 1.9021 (Simulation time: 0 hr 33 min 11 sec) 

Region of Interest Statistics
cpu0_DTLB TOTAL     ACCESS:     846171  HIT:     845953  MISS:        218
cpu0_DTLB LOAD      ACCESS:     765133  HIT:     764915  MISS:        218
cpu0_DTLB RFO       ACCESS:      81038  HIT:      81038  MISS:          0
cpu0_DTLB PREFETCH  ACCESS:          0  HIT:          0  MISS:          0
cpu0_DTLB WRITEBACK ACCESS:          0  HIT:          0  MISS:          0
cpu0_ITLB TOTAL     ACCESS:      39294  HIT:      39294  MISS:          0
cpu0_ITLB LOAD      ACCESS:      39294  HIT:      39294  MISS:          0
cpu0_ITLB RFO       ACCESS:          0  HIT:          0  MISS:          0
cpu0_ITLB PREFETCH  ACCESS:          0  HIT:          0  MISS:          0
cpu0_ITLB WRITEBACK ACCESS:          0  HIT:          0  MISS:          0
cpu0_L1I TOTAL     ACCESS:       1769  HIT:       1769  MISS:          0
cpu0_L1I LOAD      ACCESS:       1769  HIT:       1769  MISS:          0
cpu0_L1I RFO       ACCESS:          0  HIT:          0  MISS:          0
cpu0_L1I PREFETCH  ACCESS:          0  HIT:          0  MISS:          0
cpu0_L1I WRITEBACK ACCESS:          0  HIT:          0  MISS:          0
cpu0_STLB TOTAL     ACCESS:        218  HIT:        133  MISS:         85
cpu0_STLB LOAD      ACCESS:        218  HIT:        133  MISS:         85
cpu0_STLB RFO       ACCESS:          0  HIT:          0  MISS:          0
cpu0_STLB PREFETCH  ACCESS:          0  HIT:          0  MISS:          0
cpu0_STLB WRITEBACK ACCESS:          0  HIT:          0  MISS:          0
cpu0_L1D TOTAL     ACCESS:     649186  HIT:     635133  MISS:      14053
cpu0_L1D LOAD      ACCESS:     515021  HIT:     501095  MISS:      13926
cpu0_L1D RFO       ACCESS:     134080  HIT:     133963  MISS:        117
cpu0_L1D PREFETCH  ACCESS:          0  HIT:          0  MISS:          0
cpu0_L1D WRITEBACK ACCESS:          0  HIT:          0  MISS:          0
cpu0_L2C TOTAL     ACCESS:      18844  HIT:       5324  MISS:      13520
cpu0_L2C LOAD      ACCESS:      13926  HIT:        458  MISS:      13468
cpu0_L2C RFO       ACCESS:        117  HIT:        117  MISS:          0
cpu0_L2C PREFETCH  ACCESS:          0  HIT:          0  MISS:          0
cpu0_L2C WRITEBACK ACCESS:       4791  HIT:       4740  MISS:         51
LLC TOTAL     ACCESS:      18005  HIT:       4456  MISS:      13549
LLC LOAD      ACCESS:      13468  HIT:          1  MISS:      13467
LLC RFO       ACCESS:          0  HIT:          0  MISS:          0
LLC PREFETCH  ACCESS:          0  HIT:          0  MISS:          0
LLC WRITEBACK ACCESS:       4536  HIT:       4455  MISS:         81
Heartbeat CPU 0 instructions: 56000002 cycles: 17139286 heartbeat IPC: 1.9265 cumulative IPC: 1.91016 (Simulation time: 0 hr 34 min 47 sec) 

Region of Interest Statistics
cpu0_DTLB TOTAL     ACCESS:    1264134  HIT:    1263808  MISS:        326
cpu0_DTLB LOAD      ACCESS:    1142448  HIT:    1142122  MISS:        326
cpu0_DTLB RFO       ACCESS:     121686  HIT:     121686  MISS:          0
cpu0_DTLB PREFETCH  ACCESS:          0  HIT:          0  MISS:          0
cpu0_DTLB WRITEBACK ACCESS:          0  HIT:          0  MISS:          0
cpu0_ITLB TOTAL     ACCESS:      58967  HIT:      58967  MISS:          0
cpu0_ITLB LOAD      ACCESS:      58967  HIT:      58967  MISS:          0
cpu0_ITLB RFO       ACCESS:          0  HIT:          0  MISS:          0
cpu0_ITLB PREFETCH  ACCESS:          0  HIT:          0  MISS:          0
cpu0_ITLB WRITEBACK ACCESS:          0  HIT:          0  MISS:          0
cpu0_L1I TOTAL     ACCESS:       2623  HIT:       2623  MISS:          0
cpu0_L1I LOAD      ACCESS:       2623  HIT:       2623  MISS:          0
cpu0_L1I RFO       ACCESS:          0  HIT:          0  MISS:          0
cpu0_L1I PREFETCH  ACCESS:          0  HIT:          0  MISS:          0
cpu0_L1I WRITEBACK ACCESS:          0  HIT:          0  MISS:          0
cpu0_STLB TOTAL     ACCESS:        326  HIT:        202  MISS:        124
cpu0_STLB LOAD      ACCESS:        326  HIT:        202  MISS:        124
cpu0_STLB RFO       ACCESS:          0  HIT:          0  MISS:          0
cpu0_STLB PREFETCH  ACCESS:          0  HIT:          0  MISS:          0
cpu0_STLB WRITEBACK ACCESS:          0  HIT:          0  MISS:          0
cpu0_L1D TOTAL     ACCESS:     968579  HIT:     947521  MISS:      21058
cpu0_L1D LOAD      ACCESS:     768475  HIT:     747621  MISS:      20854
cpu0_L1D RFO       ACCESS:     199980  HIT:     199791  MISS:        189
cpu0_L1D PREFETCH  ACCESS:          0  HIT:          0  MISS:          0
cpu0_L1D WRITEBACK ACCESS:          0  HIT:          0  MISS:          0
cpu0_L2C TOTAL     ACCESS:      28259  HIT:       8004  MISS:      20255
cpu0_L2C LOAD      ACCESS:      20852  HIT:        681  MISS:      20171
cpu0_L2C RFO       ACCESS:        189  HIT:        189  MISS:          0
cpu0_L2C PREFETCH  ACCESS:          0  HIT:          0  MISS:          0
cpu0_L2C WRITEBACK ACCESS:       7203  HIT:       7121  MISS:         82
LLC TOTAL     ACCESS:      27128  HIT:       6816  MISS:      20312
LLC LOAD      ACCESS:      20171  HIT:          1  MISS:      20170
LLC RFO       ACCESS:          0  HIT:          0  MISS:          0
LLC PREFETCH  ACCESS:          0  HIT:          0  MISS:          0
LLC WRITEBACK ACCESS:       6955  HIT:       6815  MISS:        140
Heartbeat CPU 0 instructions: 58000004 cycles: 18195430 heartbeat IPC: 1.89368 cumulative IPC: 1.90602 (Simulation time: 0 hr 36 min 29 sec) 

Region of Interest Statistics
cpu0_DTLB TOTAL     ACCESS:    1692246  HIT:    1691810  MISS:        436
cpu0_DTLB LOAD      ACCESS:    1530022  HIT:    1529586  MISS:        436
cpu0_DTLB RFO       ACCESS:     162224  HIT:     162224  MISS:          0
cpu0_DTLB PREFETCH  ACCESS:          0  HIT:          0  MISS:          0
cpu0_DTLB WRITEBACK ACCESS:          0  HIT:          0  MISS:          0
cpu0_ITLB TOTAL     ACCESS:      79199  HIT:      79199  MISS:          0
cpu0_ITLB LOAD      ACCESS:      79199  HIT:      79199  MISS:          0
cpu0_ITLB RFO       ACCESS:          0  HIT:          0  MISS:          0
cpu0_ITLB PREFETCH  ACCESS:          0  HIT:          0  MISS:          0
cpu0_ITLB WRITEBACK ACCESS:          0  HIT:          0  MISS:          0
cpu0_L1I TOTAL     ACCESS:       3537  HIT:       3537  MISS:          0
cpu0_L1I LOAD      ACCESS:       3537  HIT:       3537  MISS:          0
cpu0_L1I RFO       ACCESS:          0  HIT:          0  MISS:          0
cpu0_L1I PREFETCH  ACCESS:          0  HIT:          0  MISS:          0
cpu0_L1I WRITEBACK ACCESS:          0  HIT:          0  MISS:          0
cpu0_STLB TOTAL     ACCESS:        436  HIT:        270  MISS:        166
cpu0_STLB LOAD      ACCESS:        436  HIT:        270  MISS:        166
cpu0_STLB RFO       ACCESS:          0  HIT:          0  MISS:          0
cpu0_STLB PREFETCH  ACCESS:          0  HIT:          0  MISS:          0
cpu0_STLB WRITEBACK ACCESS:          0  HIT:          0  MISS:          0
cpu0_L1D TOTAL     ACCESS:    1298225  HIT:    1270111  MISS:      28114
cpu0_L1D LOAD      ACCESS:    1029899  HIT:    1002038  MISS:      27861
cpu0_L1D RFO       ACCESS:     268160  HIT:     267927  MISS:        233
cpu0_L1D PREFETCH  ACCESS:          0  HIT:          0  MISS:          0
cpu0_L1D WRITEBACK ACCESS:          0  HIT:          0  MISS:          0
cpu0_L2C TOTAL     ACCESS:      37710  HIT:      10667  MISS:      27043
cpu0_L2C LOAD      ACCESS:      27859  HIT:        923  MISS:      26936
cpu0_L2C RFO       ACCESS:        233  HIT:        233  MISS:          0
cpu0_L2C PREFETCH  ACCESS:          0  HIT:          0  MISS:          0
cpu0_L2C WRITEBACK ACCESS:       9598  HIT:       9493  MISS:        105
LLC TOTAL     ACCESS:      35867  HIT:       8742  MISS:      27125
LLC LOAD      ACCESS:      26936  HIT:          1  MISS:      26935
LLC RFO       ACCESS:          0  HIT:          0  MISS:          0
LLC PREFETCH  ACCESS:          0  HIT:          0  MISS:          0
LLC WRITEBACK ACCESS:       8929  HIT:       8741  MISS:        188
Heartbeat CPU 0 instructions: 60000000 cycles: 19227560 heartbeat IPC: 1.93774 cumulative IPC: 1.91228 (Simulation time: 0 hr 38 min 12 sec) 

Region of Interest Statistics
cpu0_DTLB TOTAL     ACCESS:    2110370  HIT:    2109826  MISS:        544
cpu0_DTLB LOAD      ACCESS:    1907117  HIT:    1906573  MISS:        544
cpu0_DTLB RFO       ACCESS:     203253  HIT:     203253  MISS:          0
cpu0_DTLB PREFETCH  ACCESS:          0  HIT:          0  MISS:          0
cpu0_DTLB WRITEBACK ACCESS:          0  HIT:          0  MISS:          0
cpu0_ITLB TOTAL     ACCESS:      98931  HIT:      98931  MISS:          0
cpu0_ITLB LOAD      ACCESS:      98931  HIT:      98931  MISS:          0
cpu0_ITLB RFO       ACCESS:          0  HIT:          0  MISS:          0
cpu0_ITLB PREFETCH  ACCESS:          0  HIT:          0  MISS:          0
cpu0_ITLB WRITEBACK ACCESS:          0  HIT:          0  MISS:          0
cpu0_L1I TOTAL     ACCESS:       4392  HIT:       4392  MISS:          0
cpu0_L1I LOAD      ACCESS:       4392  HIT:       4392  MISS:          0
cpu0_L1I RFO       ACCESS:          0  HIT:          0  MISS:          0
cpu0_L1I PREFETCH  ACCESS:          0  HIT:          0  MISS:          0
cpu0_L1I WRITEBACK ACCESS:          0  HIT:          0  MISS:          0
cpu0_STLB TOTAL     ACCESS:        544  HIT:        336  MISS:        208
cpu0_STLB LOAD      ACCESS:        544  HIT:        336  MISS:        208
cpu0_STLB RFO       ACCESS:          0  HIT:          0  MISS:          0
cpu0_STLB PREFETCH  ACCESS:          0  HIT:          0  MISS:          0
cpu0_STLB WRITEBACK ACCESS:          0  HIT:          0  MISS:          0
cpu0_L1D TOTAL     ACCESS:    1617997  HIT:    1582907  MISS:      35090
cpu0_L1D LOAD      ACCESS:    1283715  HIT:    1248941  MISS:      34774
cpu0_L1D RFO       ACCESS:     334074  HIT:     333784  MISS:        290
cpu0_L1D PREFETCH  ACCESS:          0  HIT:          0  MISS:          0
cpu0_L1D WRITEBACK ACCESS:          0  HIT:          0  MISS:          0
cpu0_L2C TOTAL     ACCESS:      47080  HIT:      13303  MISS:      33777
cpu0_L2C LOAD      ACCESS:      34771  HIT:       1132  MISS:      33639
cpu0_L2C RFO       ACCESS:        290  HIT:        290  MISS:          0
cpu0_L2C PREFETCH  ACCESS:          0  HIT:          0  MISS:          0
cpu0_L2C WRITEBACK ACCESS:      11993  HIT:      11858  MISS:        135
LLC TOTAL     ACCESS:      44772  HIT:      10904  MISS:      33868
LLC LOAD      ACCESS:      33639  HIT:          1  MISS:      33638
LLC RFO       ACCESS:          0  HIT:          0  MISS:          0
LLC PREFETCH  ACCESS:          0  HIT:          0  MISS:          0
LLC WRITEBACK ACCESS:      11130  HIT:      10903  MISS:        227
Heartbeat CPU 0 instructions: 62000002 cycles: 20273094 heartbeat IPC: 1.9129 cumulative IPC: 1.91238 (Simulation time: 0 hr 39 min 58 sec) 

Region of Interest Statistics
cpu0_DTLB TOTAL     ACCESS:    2538837  HIT:    2538184  MISS:        653
cpu0_DTLB LOAD      ACCESS:    2294808  HIT:    2294155  MISS:        653
cpu0_DTLB RFO       ACCESS:     244029  HIT:     244029  MISS:          0
cpu0_DTLB PREFETCH  ACCESS:          0  HIT:          0  MISS:          0
cpu0_DTLB WRITEBACK ACCESS:          0  HIT:          0  MISS:          0
cpu0_ITLB TOTAL     ACCESS:     119396  HIT:     119396  MISS:          0
cpu0_ITLB LOAD      ACCESS:     119396  HIT:     119396  MISS:          0
cpu0_ITLB RFO       ACCESS:          0  HIT:          0  MISS:          0
cpu0_ITLB PREFETCH  ACCESS:          0  HIT:          0  MISS:          0
cpu0_ITLB WRITEBACK ACCESS:          0  HIT:          0  MISS:          0
cpu0_L1I TOTAL     ACCESS:       5306  HIT:       5306  MISS:          0
cpu0_L1I LOAD      ACCESS:       5306  HIT:       5306  MISS:          0
cpu0_L1I RFO       ACCESS:          0  HIT:          0  MISS:          0
cpu0_L1I PREFETCH  ACCESS:          0  HIT:          0  MISS:          0
cpu0_L1I WRITEBACK ACCESS:          0  HIT:          0  MISS:          0
cpu0_STLB TOTAL     ACCESS:        653  HIT:        407  MISS:        246
cpu0_STLB LOAD      ACCESS:        653  HIT:        407  MISS:        246
cpu0_STLB RFO       ACCESS:          0  HIT:          0  MISS:          0
cpu0_STLB PREFETCH  ACCESS:          0  HIT:          0  MISS:          0
cpu0_STLB WRITEBACK ACCESS:          0  HIT:          0  MISS:          0
cpu0_L1D TOTAL     ACCESS:    1946793  HIT:    1904606  MISS:      42187
cpu0_L1D LOAD      ACCESS:    1544308  HIT:    1502499  MISS:      41809
cpu0_L1D RFO       ACCESS:     402239  HIT:     401890  MISS:        349
cpu0_L1D PREFETCH  ACCESS:          0  HIT:          0  MISS:          0
cpu0_L1D WRITEBACK ACCESS:          0  HIT:          0  MISS:          0
cpu0_L2C TOTAL     ACCESS:      56599  HIT:      16031  MISS:      40568
cpu0_L2C LOAD      ACCESS:      41806  HIT:       1403  MISS:      40403
cpu0_L2C RFO       ACCESS:        349  HIT:        349  MISS:          0
cpu0_L2C PREFETCH  ACCESS:          0  HIT:          0  MISS:          0
cpu0_L2C WRITEBACK ACCESS:      14415  HIT:      14253  MISS:        162
LLC TOTAL     ACCESS:      53679  HIT:      13003  MISS:      40676
LLC LOAD      ACCESS:      40403  HIT:          1  MISS:      40402
LLC RFO       ACCESS:          0  HIT:          0  MISS:          0
LLC PREFETCH  ACCESS:          0  HIT:          0  MISS:          0
LLC WRITEBACK ACCESS:      13273  HIT:      13002  MISS:        271
Heartbeat CPU 0 instructions: 64000002 cycles: 21303433 heartbeat IPC: 1.94111 cumulative IPC: 1.91643 (Simulation time: 0 hr 41 min 38 sec) 

Region of Interest Statistics
cpu0_DTLB TOTAL     ACCESS:    2957170  HIT:    2956409  MISS:        761
cpu0_DTLB LOAD      ACCESS:    2672123  HIT:    2671362  MISS:        761
cpu0_DTLB RFO       ACCESS:     285047  HIT:     285047  MISS:          0
cpu0_DTLB PREFETCH  ACCESS:          0  HIT:          0  MISS:          0
cpu0_DTLB WRITEBACK ACCESS:          0  HIT:          0  MISS:          0
cpu0_ITLB TOTAL     ACCESS:     138924  HIT:     138924  MISS:          0
cpu0_ITLB LOAD      ACCESS:     138924  HIT:     138924  MISS:          0
cpu0_ITLB RFO       ACCESS:          0  HIT:          0  MISS:          0
cpu0_ITLB PREFETCH  ACCESS:          0  HIT:          0  MISS:          0
cpu0_ITLB WRITEBACK ACCESS:          0  HIT:          0  MISS:          0
cpu0_L1I TOTAL     ACCESS:       6162  HIT:       6162  MISS:          0
cpu0_L1I LOAD      ACCESS:       6162  HIT:       6162  MISS:          0
cpu0_L1I RFO       ACCESS:          0  HIT:          0  MISS:          0
cpu0_L1I PREFETCH  ACCESS:          0  HIT:          0  MISS:          0
cpu0_L1I WRITEBACK ACCESS:          0  HIT:          0  MISS:          0
cpu0_STLB TOTAL     ACCESS:        761  HIT:        478  MISS:        283
cpu0_STLB LOAD      ACCESS:        761  HIT:        478  MISS:        283
cpu0_STLB RFO       ACCESS:          0  HIT:          0  MISS:          0
cpu0_STLB PREFETCH  ACCESS:          0  HIT:          0  MISS:          0
cpu0_STLB WRITEBACK ACCESS:          0  HIT:          0  MISS:          0
cpu0_L1D TOTAL     ACCESS:    2266159  HIT:    2217008  MISS:      49151
cpu0_L1D LOAD      ACCESS:    1797716  HIT:    1748999  MISS:      48717
cpu0_L1D RFO       ACCESS:     468160  HIT:     467759  MISS:        401
cpu0_L1D PREFETCH  ACCESS:          0  HIT:          0  MISS:          0
cpu0_L1D WRITEBACK ACCESS:          0  HIT:          0  MISS:          0
cpu0_L2C TOTAL     ACCESS:      65950  HIT:      18649  MISS:      47301
cpu0_L2C LOAD      ACCESS:      48714  HIT:       1608  MISS:      47106
cpu0_L2C RFO       ACCESS:        401  HIT:        401  MISS:          0
cpu0_L2C PREFETCH  ACCESS:          0  HIT:          0  MISS:          0
cpu0_L2C WRITEBACK ACCESS:      16802  HIT:      16611  MISS:        191
LLC TOTAL     ACCESS:      62618  HIT:      15210  MISS:      47408
LLC LOAD      ACCESS:      47106  HIT:          1  MISS:      47105
LLC RFO       ACCESS:          0  HIT:          0  MISS:          0
LLC PREFETCH  ACCESS:          0  HIT:          0  MISS:          0
LLC WRITEBACK ACCESS:      15508  HIT:      15209  MISS:        299
Heartbeat CPU 0 instructions: 66000004 cycles: 22391654 heartbeat IPC: 1.83786 cumulative IPC: 1.90625 (Simulation time: 0 hr 43 min 22 sec) 

Region of Interest Statistics
cpu0_DTLB TOTAL     ACCESS:    3370664  HIT:    3369781  MISS:        883
cpu0_DTLB LOAD      ACCESS:    3044211  HIT:    3043332  MISS:        879
cpu0_DTLB RFO       ACCESS:     326453  HIT:     326449  MISS:          4
cpu0_DTLB PREFETCH  ACCESS:          0  HIT:          0  MISS:          0
cpu0_DTLB WRITEBACK ACCESS:          0  HIT:          0  MISS:          0
cpu0_ITLB TOTAL     ACCESS:     159128  HIT:     159126  MISS:          2
cpu0_ITLB LOAD      ACCESS:     159128  HIT:     159126  MISS:          2
cpu0_ITLB RFO       ACCESS:          0  HIT:          0  MISS:          0
cpu0_ITLB PREFETCH  ACCESS:          0  HIT:          0  MISS:          0
cpu0_ITLB WRITEBACK ACCESS:          0  HIT:          0  MISS:          0
cpu0_L1I TOTAL     ACCESS:       7033  HIT:       6990  MISS:         43
cpu0_L1I LOAD      ACCESS:       7033  HIT:       6990  MISS:         43
cpu0_L1I RFO       ACCESS:          0  HIT:          0  MISS:          0
cpu0_L1I PREFETCH  ACCESS:          0  HIT:          0  MISS:          0
cpu0_L1I WRITEBACK ACCESS:          0  HIT:          0  MISS:          0
cpu0_STLB TOTAL     ACCESS:        885  HIT:        546  MISS:        339
cpu0_STLB LOAD      ACCESS:        881  HIT:        546  MISS:        335
cpu0_STLB RFO       ACCESS:          4  HIT:          0  MISS:          4
cpu0_STLB PREFETCH  ACCESS:          0  HIT:          0  MISS:          0
cpu0_STLB WRITEBACK ACCESS:          0  HIT:          0  MISS:          0
cpu0_L1D TOTAL     ACCESS:    2593961  HIT:    2537259  MISS:      56702
cpu0_L1D LOAD      ACCESS:    2057550  HIT:    2001591  MISS:      55959
cpu0_L1D RFO       ACCESS:     536073  HIT:     535373  MISS:        700
cpu0_L1D PREFETCH  ACCESS:          0  HIT:          0  MISS:          0
cpu0_L1D WRITEBACK ACCESS:          0  HIT:          0  MISS:          0
cpu0_L2C TOTAL     ACCESS:      76222  HIT:      21463  MISS:      54759
cpu0_L2C LOAD      ACCESS:      55999  HIT:       1851  MISS:      54148
cpu0_L2C RFO       ACCESS:        700  HIT:        462  MISS:        238
cpu0_L2C PREFETCH  ACCESS:          0  HIT:          0  MISS:          0
cpu0_L2C WRITEBACK ACCESS:      19480  HIT:      19116  MISS:        364
LLC TOTAL     ACCESS:      72687  HIT:      17978  MISS:      54709
LLC LOAD      ACCESS:      54148  HIT:          1  MISS:      54147
LLC RFO       ACCESS:        238  HIT:          0  MISS:        238
LLC PREFETCH  ACCESS:          0  HIT:          0  MISS:          0
LLC WRITEBACK ACCESS:      18292  HIT:      17977  MISS:        315
Heartbeat CPU 0 instructions: 68000001 cycles: 23601587 heartbeat IPC: 1.65298 cumulative IPC: 1.87434 (Simulation time: 0 hr 45 min 3 sec) 

Region of Interest Statistics
cpu0_DTLB TOTAL     ACCESS:    3683621  HIT:    3682594  MISS:       1027
cpu0_DTLB LOAD      ACCESS:    3312349  HIT:    3311326  MISS:       1023
cpu0_DTLB RFO       ACCESS:     371272  HIT:     371268  MISS:          4
cpu0_DTLB PREFETCH  ACCESS:          0  HIT:          0  MISS:          0
cpu0_DTLB WRITEBACK ACCESS:          0  HIT:          0  MISS:          0
cpu0_ITLB TOTAL     ACCESS:     177801  HIT:     177799  MISS:          2
cpu0_ITLB LOAD      ACCESS:     177801  HIT:     177799  MISS:          2
cpu0_ITLB RFO       ACCESS:          0  HIT:          0  MISS:          0
cpu0_ITLB PREFETCH  ACCESS:          0  HIT:          0  MISS:          0
cpu0_ITLB WRITEBACK ACCESS:          0  HIT:          0  MISS:          0
cpu0_L1I TOTAL     ACCESS:       7423  HIT:       7380  MISS:         43
cpu0_L1I LOAD      ACCESS:       7423  HIT:       7380  MISS:         43
cpu0_L1I RFO       ACCESS:          0  HIT:          0  MISS:          0
cpu0_L1I PREFETCH  ACCESS:          0  HIT:          0  MISS:          0
cpu0_L1I WRITEBACK ACCESS:          0  HIT:          0  MISS:          0
cpu0_STLB TOTAL     ACCESS:       1029  HIT:        620  MISS:        409
cpu0_STLB LOAD      ACCESS:       1025  HIT:        620  MISS:        405
cpu0_STLB RFO       ACCESS:          4  HIT:          0  MISS:          4
cpu0_STLB PREFETCH  ACCESS:          0  HIT:          0  MISS:          0
cpu0_STLB WRITEBACK ACCESS:          0  HIT:          0  MISS:          0
cpu0_L1D TOTAL     ACCESS:    2928381  HIT:    2862261  MISS:      66120
cpu0_L1D LOAD      ACCESS:    2302929  HIT:    2237671  MISS:      65258
cpu0_L1D RFO       ACCESS:     625044  HIT:     624228  MISS:        816
cpu0_L1D PREFETCH  ACCESS:          0  HIT:          0  MISS:          0
cpu0_L1D WRITEBACK ACCESS:          0  HIT:          0  MISS:          0
cpu0_L2C TOTAL     ACCESS:      88854  HIT:      25273  MISS:      63581
cpu0_L2C LOAD      ACCESS:      65298  HIT:       2337  MISS:      62961
cpu0_L2C RFO       ACCESS:        816  HIT:        578  MISS:        238
cpu0_L2C PREFETCH  ACCESS:          0  HIT:          0  MISS:          0
cpu0_L2C WRITEBACK ACCESS:      22694  HIT:      22321  MISS:        373
LLC TOTAL     ACCESS:      84195  HIT:      20482  MISS:      63713
LLC LOAD      ACCESS:      62961  HIT:          1  MISS:      62960
LLC RFO       ACCESS:        238  HIT:          0  MISS:        238
LLC PREFETCH  ACCESS:          0  HIT:          0  MISS:          0
LLC WRITEBACK ACCESS:      20987  HIT:      20481  MISS:        506
Heartbeat CPU 0 instructions: 70000001 cycles: 24816672 heartbeat IPC: 1.64598 cumulative IPC: 1.84869 (Simulation time: 0 hr 46 min 46 sec) 

Region of Interest Statistics
cpu0_DTLB TOTAL     ACCESS:    3994143  HIT:    3992972  MISS:       1171
cpu0_DTLB LOAD      ACCESS:    3577999  HIT:    3576832  MISS:       1167
cpu0_DTLB RFO       ACCESS:     416144  HIT:     416140  MISS:          4
cpu0_DTLB PREFETCH  ACCESS:          0  HIT:          0  MISS:          0
cpu0_DTLB WRITEBACK ACCESS:          0  HIT:          0  MISS:          0
cpu0_ITLB TOTAL     ACCESS:     196197  HIT:     196195  MISS:          2
cpu0_ITLB LOAD      ACCESS:     196197  HIT:     196195  MISS:          2
cpu0_ITLB RFO       ACCESS:          0  HIT:          0  MISS:          0
cpu0_ITLB PREFETCH  ACCESS:          0  HIT:          0  MISS:          0
cpu0_ITLB WRITEBACK ACCESS:          0  HIT:          0  MISS:          0
cpu0_L1I TOTAL     ACCESS:       7800  HIT:       7757  MISS:         43
cpu0_L1I LOAD      ACCESS:       7800  HIT:       7757  MISS:         43
cpu0_L1I RFO       ACCESS:          0  HIT:          0  MISS:          0
cpu0_L1I PREFETCH  ACCESS:          0  HIT:          0  MISS:          0
cpu0_L1I WRITEBACK ACCESS:          0  HIT:          0  MISS:          0
cpu0_STLB TOTAL     ACCESS:       1173  HIT:        710  MISS:        463
cpu0_STLB LOAD      ACCESS:       1169  HIT:        710  MISS:        459
cpu0_STLB RFO       ACCESS:          4  HIT:          0  MISS:          4
cpu0_STLB PREFETCH  ACCESS:          0  HIT:          0  MISS:          0
cpu0_STLB WRITEBACK ACCESS:          0  HIT:          0  MISS:          0
cpu0_L1D TOTAL     ACCESS:    3261681  HIT:    3186230  MISS:      75451
cpu0_L1D LOAD      ACCESS:    2548263  HIT:    2473792  MISS:      74471
cpu0_L1D RFO       ACCESS:     712956  HIT:     712028  MISS:        928
cpu0_L1D PREFETCH  ACCESS:          0  HIT:          0  MISS:          0
cpu0_L1D WRITEBACK ACCESS:          0  HIT:          0  MISS:          0
cpu0_L2C TOTAL     ACCESS:     101424  HIT:      29082  MISS:      72342
cpu0_L2C LOAD      ACCESS:      74510  HIT:       2796  MISS:      71714
cpu0_L2C RFO       ACCESS:        928  HIT:        690  MISS:        238
cpu0_L2C PREFETCH  ACCESS:          0  HIT:          0  MISS:          0
cpu0_L2C WRITEBACK ACCESS:      25934  HIT:      25554  MISS:        380
LLC TOTAL     ACCESS:      96149  HIT:      23621  MISS:      72528
LLC LOAD      ACCESS:      71714  HIT:          1  MISS:      71713
LLC RFO       ACCESS:        238  HIT:          0  MISS:        238
LLC PREFETCH  ACCESS:          0  HIT:          0  MISS:          0
LLC WRITEBACK ACCESS:      24187  HIT:      23620  MISS:        567
Heartbeat CPU 0 instructions: 72000003 cycles: 26023986 heartbeat IPC: 1.65657 cumulative IPC: 1.8294 (Simulation time: 0 hr 48 min 39 sec) 

Region of Interest Statistics
cpu0_DTLB TOTAL     ACCESS:    4302578  HIT:    4301263  MISS:       1315
cpu0_DTLB LOAD      ACCESS:    3841593  HIT:    3840282  MISS:       1311
cpu0_DTLB RFO       ACCESS:     460985  HIT:     460981  MISS:          4
cpu0_DTLB PREFETCH  ACCESS:          0  HIT:          0  MISS:          0
cpu0_DTLB WRITEBACK ACCESS:          0  HIT:          0  MISS:          0
cpu0_ITLB TOTAL     ACCESS:     214920  HIT:     214918  MISS:          2
cpu0_ITLB LOAD      ACCESS:     214920  HIT:     214918  MISS:          2
cpu0_ITLB RFO       ACCESS:          0  HIT:          0  MISS:          0
cpu0_ITLB PREFETCH  ACCESS:          0  HIT:          0  MISS:          0
cpu0_ITLB WRITEBACK ACCESS:          0  HIT:          0  MISS:          0
cpu0_L1I TOTAL     ACCESS:       8173  HIT:       8130  MISS:         43
cpu0_L1I LOAD      ACCESS:       8173  HIT:       8130  MISS:         43
cpu0_L1I RFO       ACCESS:          0  HIT:          0  MISS:          0
cpu0_L1I PREFETCH  ACCESS:          0  HIT:          0  MISS:          0
cpu0_L1I WRITEBACK ACCESS:          0  HIT:          0  MISS:          0
cpu0_STLB TOTAL     ACCESS:       1317  HIT:        787  MISS:        530
cpu0_STLB LOAD      ACCESS:       1313  HIT:        787  MISS:        526
cpu0_STLB RFO       ACCESS:          4  HIT:          0  MISS:          4
cpu0_STLB PREFETCH  ACCESS:          0  HIT:          0  MISS:          0
cpu0_STLB WRITEBACK ACCESS:          0  HIT:          0  MISS:          0
cpu0_L1D TOTAL     ACCESS:    3592365  HIT:    3507570  MISS:      84795
cpu0_L1D LOAD      ACCESS:    2791206  HIT:    2707500  MISS:      83706
cpu0_L1D RFO       ACCESS:     800630  HIT:     799598  MISS:       1032
cpu0_L1D PREFETCH  ACCESS:          0  HIT:          0  MISS:          0
cpu0_L1D WRITEBACK ACCESS:          0  HIT:          0  MISS:          0
cpu0_L2C TOTAL     ACCESS:     113870  HIT:      32738  MISS:      81132
cpu0_L2C LOAD      ACCESS:      83745  HIT:       3247  MISS:      80498
cpu0_L2C RFO       ACCESS:       1032  HIT:        794  MISS:        238
cpu0_L2C PREFETCH  ACCESS:          0  HIT:          0  MISS:          0
cpu0_L2C WRITEBACK ACCESS:      29036  HIT:      28651  MISS:        385
LLC TOTAL     ACCESS:     107974  HIT:      26640  MISS:      81334
LLC LOAD      ACCESS:      80498  HIT:          1  MISS:      80497
LLC RFO       ACCESS:        238  HIT:          0  MISS:        238
LLC PREFETCH  ACCESS:          0  HIT:          0  MISS:          0
LLC WRITEBACK ACCESS:      27227  HIT:      26639  MISS:        588
Heartbeat CPU 0 instructions: 74000003 cycles: 27222677 heartbeat IPC: 1.66849 cumulative IPC: 1.81482 (Simulation time: 0 hr 50 min 36 sec) 

Region of Interest Statistics
cpu0_DTLB TOTAL     ACCESS:    4615294  HIT:    4613835  MISS:       1459
cpu0_DTLB LOAD      ACCESS:    4109510  HIT:    4108055  MISS:       1455
cpu0_DTLB RFO       ACCESS:     505784  HIT:     505780  MISS:          4
cpu0_DTLB PREFETCH  ACCESS:          0  HIT:          0  MISS:          0
cpu0_DTLB WRITEBACK ACCESS:          0  HIT:          0  MISS:          0
cpu0_ITLB TOTAL     ACCESS:     233729  HIT:     233727  MISS:          2
cpu0_ITLB LOAD      ACCESS:     233729  HIT:     233727  MISS:          2
cpu0_ITLB RFO       ACCESS:          0  HIT:          0  MISS:          0
cpu0_ITLB PREFETCH  ACCESS:          0  HIT:          0  MISS:          0
cpu0_ITLB WRITEBACK ACCESS:          0  HIT:          0  MISS:          0
cpu0_L1I TOTAL     ACCESS:       8563  HIT:       8520  MISS:         43
cpu0_L1I LOAD      ACCESS:       8563  HIT:       8520  MISS:         43
cpu0_L1I RFO       ACCESS:          0  HIT:          0  MISS:          0
cpu0_L1I PREFETCH  ACCESS:          0  HIT:          0  MISS:          0
cpu0_L1I WRITEBACK ACCESS:          0  HIT:          0  MISS:          0
cpu0_STLB TOTAL     ACCESS:       1461  HIT:        877  MISS:        584
cpu0_STLB LOAD      ACCESS:       1457  HIT:        877  MISS:        580
cpu0_STLB RFO       ACCESS:          4  HIT:          0  MISS:          4
cpu0_STLB PREFETCH  ACCESS:          0  HIT:          0  MISS:          0
cpu0_STLB WRITEBACK ACCESS:          0  HIT:          0  MISS:          0
cpu0_L1D TOTAL     ACCESS:    3926684  HIT:    3832501  MISS:      94183
cpu0_L1D LOAD      ACCESS:    3036497  HIT:    2943520  MISS:      92977
cpu0_L1D RFO       ACCESS:     889604  HIT:     888458  MISS:       1146
cpu0_L1D PREFETCH  ACCESS:          0  HIT:          0  MISS:          0
cpu0_L1D WRITEBACK ACCESS:          0  HIT:          0  MISS:          0
cpu0_L2C TOTAL     ACCESS:     126417  HIT:      36467  MISS:      89950
cpu0_L2C LOAD      ACCESS:      93016  HIT:       3707  MISS:      89309
cpu0_L2C RFO       ACCESS:       1146  HIT:        908  MISS:        238
cpu0_L2C PREFETCH  ACCESS:          0  HIT:          0  MISS:          0
cpu0_L2C WRITEBACK ACCESS:      32195  HIT:      31804  MISS:        391
LLC TOTAL     ACCESS:     119451  HIT:      29284  MISS:      90167
LLC LOAD      ACCESS:      89309  HIT:          1  MISS:      89308
LLC RFO       ACCESS:        238  HIT:          0  MISS:        238
LLC PREFETCH  ACCESS:          0  HIT:          0  MISS:          0
LLC WRITEBACK ACCESS:      29892  HIT:      29283  MISS:        609
Heartbeat CPU 0 instructions: 76000001 cycles: 28407011 heartbeat IPC: 1.68871 cumulative IPC: 1.80445 (Simulation time: 0 hr 52 min 28 sec) 

Region of Interest Statistics
cpu0_DTLB TOTAL     ACCESS:    4927049  HIT:    4925447  MISS:       1602
cpu0_DTLB LOAD      ACCESS:    4376414  HIT:    4374816  MISS:       1598
cpu0_DTLB RFO       ACCESS:     550635  HIT:     550631  MISS:          4
cpu0_DTLB PREFETCH  ACCESS:          0  HIT:          0  MISS:          0
cpu0_DTLB WRITEBACK ACCESS:          0  HIT:          0  MISS:          0
cpu0_ITLB TOTAL     ACCESS:     252461  HIT:     252459  MISS:          2
cpu0_ITLB LOAD      ACCESS:     252461  HIT:     252459  MISS:          2
cpu0_ITLB RFO       ACCESS:          0  HIT:          0  MISS:          0
cpu0_ITLB PREFETCH  ACCESS:          0  HIT:          0  MISS:          0
cpu0_ITLB WRITEBACK ACCESS:          0  HIT:          0  MISS:          0
cpu0_L1I TOTAL     ACCESS:       8940  HIT:       8897  MISS:         43
cpu0_L1I LOAD      ACCESS:       8940  HIT:       8897  MISS:         43
cpu0_L1I RFO       ACCESS:          0  HIT:          0  MISS:          0
cpu0_L1I PREFETCH  ACCESS:          0  HIT:          0  MISS:          0
cpu0_L1I WRITEBACK ACCESS:          0  HIT:          0  MISS:          0
cpu0_STLB TOTAL     ACCESS:       1604  HIT:        967  MISS:        637
cpu0_STLB LOAD      ACCESS:       1600  HIT:        967  MISS:        633
cpu0_STLB RFO       ACCESS:          4  HIT:          0  MISS:          4
cpu0_STLB PREFETCH  ACCESS:          0  HIT:          0  MISS:          0
cpu0_STLB WRITEBACK ACCESS:          0  HIT:          0  MISS:          0
cpu0_L1D TOTAL     ACCESS:    4260315  HIT:    4156764  MISS:     103551
cpu0_L1D LOAD      ACCESS:    3281443  HIT:    3179218  MISS:     102225
cpu0_L1D RFO       ACCESS:     978236  HIT:     976975  MISS:       1261
cpu0_L1D PREFETCH  ACCESS:          0  HIT:          0  MISS:          0
cpu0_L1D WRITEBACK ACCESS:          0  HIT:          0  MISS:          0
cpu0_L2C TOTAL     ACCESS:     139042  HIT:      40309  MISS:      98733
cpu0_L2C LOAD      ACCESS:     102262  HIT:       4178  MISS:      98084
cpu0_L2C RFO       ACCESS:       1261  HIT:       1023  MISS:        238
cpu0_L2C PREFETCH  ACCESS:          0  HIT:          0  MISS:          0
cpu0_L2C WRITEBACK ACCESS:      35454  HIT:      35055  MISS:        399
LLC TOTAL     ACCESS:     131418  HIT:      32465  MISS:      98953
LLC LOAD      ACCESS:      98084  HIT:          1  MISS:      98083
LLC RFO       ACCESS:        238  HIT:          0  MISS:        238
LLC PREFETCH  ACCESS:          0  HIT:          0  MISS:          0
LLC WRITEBACK ACCESS:      33084  HIT:      32464  MISS:        620
Heartbeat CPU 0 instructions: 78000002 cycles: 29620048 heartbeat IPC: 1.64876 cumulative IPC: 1.79236 (Simulation time: 0 hr 54 min 23 sec) 

Region of Interest Statistics
cpu0_DTLB TOTAL     ACCESS:    5234390  HIT:    5232645  MISS:       1745
cpu0_DTLB LOAD      ACCESS:    4638767  HIT:    4637026  MISS:       1741
cpu0_DTLB RFO       ACCESS:     595623  HIT:     595619  MISS:          4
cpu0_DTLB PREFETCH  ACCESS:          0  HIT:          0  MISS:          0
cpu0_DTLB WRITEBACK ACCESS:          0  HIT:          0  MISS:          0
cpu0_ITLB TOTAL     ACCESS:     270738  HIT:     270736  MISS:          2
cpu0_ITLB LOAD      ACCESS:     270738  HIT:     270736  MISS:          2
cpu0_ITLB RFO       ACCESS:          0  HIT:          0  MISS:          0
cpu0_ITLB PREFETCH  ACCESS:          0  HIT:          0  MISS:          0
cpu0_ITLB WRITEBACK ACCESS:          0  HIT:          0  MISS:          0
cpu0_L1I TOTAL     ACCESS:       9313  HIT:       9270  MISS:         43
cpu0_L1I LOAD      ACCESS:       9313  HIT:       9270  MISS:         43
cpu0_L1I RFO       ACCESS:          0  HIT:          0  MISS:          0
cpu0_L1I PREFETCH  ACCESS:          0  HIT:          0  MISS:          0
cpu0_L1I WRITEBACK ACCESS:          0  HIT:          0  MISS:          0
cpu0_STLB TOTAL     ACCESS:       1747  HIT:       1038  MISS:        709
cpu0_STLB LOAD      ACCESS:       1743  HIT:       1038  MISS:        705
cpu0_STLB RFO       ACCESS:          4  HIT:          0  MISS:          4
cpu0_STLB PREFETCH  ACCESS:          0  HIT:          0  MISS:          0
cpu0_STLB WRITEBACK ACCESS:          0  HIT:          0  MISS:          0
cpu0_L1D TOTAL     ACCESS:    4590231  HIT:    4477356  MISS:     112875
cpu0_L1D LOAD      ACCESS:    3524334  HIT:    3412894  MISS:     111440
cpu0_L1D RFO       ACCESS:    1065189  HIT:    1063824  MISS:       1365
cpu0_L1D PREFETCH  ACCESS:          0  HIT:          0  MISS:          0
cpu0_L1D WRITEBACK ACCESS:          0  HIT:          0  MISS:          0
cpu0_L2C TOTAL     ACCESS:     151509  HIT:      44010  MISS:     107499
cpu0_L2C LOAD      ACCESS:     111476  HIT:       4630  MISS:     106846
cpu0_L2C RFO       ACCESS:       1365  HIT:       1127  MISS:        238
cpu0_L2C PREFETCH  ACCESS:          0  HIT:          0  MISS:          0
cpu0_L2C WRITEBACK ACCESS:      38598  HIT:      38197  MISS:        401
LLC TOTAL     ACCESS:     143280  HIT:      35517  MISS:     107763
LLC LOAD      ACCESS:     106846  HIT:          1  MISS:     106845
LLC RFO       ACCESS:        238  HIT:          0  MISS:        238
LLC PREFETCH  ACCESS:          0  HIT:          0  MISS:          0
LLC WRITEBACK ACCESS:      36182  HIT:      35516  MISS:        666
Heartbeat CPU 0 instructions: 80000000 cycles: 30832606 heartbeat IPC: 1.6494 cumulative IPC: 1.78206 (Simulation time: 0 hr 56 min 19 sec) 

Region of Interest Statistics
cpu0_DTLB TOTAL     ACCESS:    5547273  HIT:    5545384  MISS:       1889
cpu0_DTLB LOAD      ACCESS:    4906820  HIT:    4904935  MISS:       1885
cpu0_DTLB RFO       ACCESS:     640453  HIT:     640449  MISS:          4
cpu0_DTLB PREFETCH  ACCESS:          0  HIT:          0  MISS:          0
cpu0_DTLB WRITEBACK ACCESS:          0  HIT:          0  MISS:          0
cpu0_ITLB TOTAL     ACCESS:     289225  HIT:     289223  MISS:          2
cpu0_ITLB LOAD      ACCESS:     289225  HIT:     289223  MISS:          2
cpu0_ITLB RFO       ACCESS:          0  HIT:          0  MISS:          0
cpu0_ITLB PREFETCH  ACCESS:          0  HIT:          0  MISS:          0
cpu0_ITLB WRITEBACK ACCESS:          0  HIT:          0  MISS:          0
cpu0_L1I TOTAL     ACCESS:       9703  HIT:       9660  MISS:         43
cpu0_L1I LOAD      ACCESS:       9703  HIT:       9660  MISS:         43
cpu0_L1I RFO       ACCESS:          0  HIT:          0  MISS:          0
cpu0_L1I PREFETCH  ACCESS:          0  HIT:          0  MISS:          0
cpu0_L1I WRITEBACK ACCESS:          0  HIT:          0  MISS:          0
cpu0_STLB TOTAL     ACCESS:       1891  HIT:       1128  MISS:        763
cpu0_STLB LOAD      ACCESS:       1887  HIT:       1128  MISS:        759
cpu0_STLB RFO       ACCESS:          4  HIT:          0  MISS:          4
cpu0_STLB PREFETCH  ACCESS:          0  HIT:          0  MISS:          0
cpu0_STLB WRITEBACK ACCESS:          0  HIT:          0  MISS:          0
cpu0_L1D TOTAL     ACCESS:    4924621  HIT:    4802330  MISS:     122291
cpu0_L1D LOAD      ACCESS:    3769697  HIT:    3648960  MISS:     120737
cpu0_L1D RFO       ACCESS:    1154162  HIT:    1152683  MISS:       1479
cpu0_L1D PREFETCH  ACCESS:          0  HIT:          0  MISS:          0
cpu0_L1D WRITEBACK ACCESS:          0  HIT:          0  MISS:          0
cpu0_L2C TOTAL     ACCESS:     164063  HIT:      47740  MISS:     116323
cpu0_L2C LOAD      ACCESS:     120773  HIT:       5116  MISS:     115657
cpu0_L2C RFO       ACCESS:       1479  HIT:       1241  MISS:        238
cpu0_L2C PREFETCH  ACCESS:          0  HIT:          0  MISS:          0
cpu0_L2C WRITEBACK ACCESS:      41736  HIT:      41324  MISS:        412
LLC TOTAL     ACCESS:     155071  HIT:      38488  MISS:     116583
LLC LOAD      ACCESS:     115657  HIT:          1  MISS:     115656
LLC RFO       ACCESS:        238  HIT:          0  MISS:        238
LLC PREFETCH  ACCESS:          0  HIT:          0  MISS:          0
LLC WRITEBACK ACCESS:      39160  HIT:      38486  MISS:        674
Heartbeat CPU 0 instructions: 82000001 cycles: 32045285 heartbeat IPC: 1.64924 cumulative IPC: 1.77314 (Simulation time: 0 hr 58 min 16 sec) 

Region of Interest Statistics
cpu0_DTLB TOTAL     ACCESS:    5860262  HIT:    5858228  MISS:       2034
cpu0_DTLB LOAD      ACCESS:    5174914  HIT:    5172884  MISS:       2030
cpu0_DTLB RFO       ACCESS:     685348  HIT:     685344  MISS:          4
cpu0_DTLB PREFETCH  ACCESS:          0  HIT:          0  MISS:          0
cpu0_DTLB WRITEBACK ACCESS:          0  HIT:          0  MISS:          0
cpu0_ITLB TOTAL     ACCESS:     307969  HIT:     307967  MISS:          2
cpu0_ITLB LOAD      ACCESS:     307969  HIT:     307967  MISS:          2
cpu0_ITLB RFO       ACCESS:          0  HIT:          0  MISS:          0
cpu0_ITLB PREFETCH  ACCESS:          0  HIT:          0  MISS:          0
cpu0_ITLB WRITEBACK ACCESS:          0  HIT:          0  MISS:          0
cpu0_L1I TOTAL     ACCESS:      10093  HIT:      10050  MISS:         43
cpu0_L1I LOAD      ACCESS:      10093  HIT:      10050  MISS:         43
cpu0_L1I RFO       ACCESS:          0  HIT:          0  MISS:          0
cpu0_L1I PREFETCH  ACCESS:          0  HIT:          0  MISS:          0
cpu0_L1I WRITEBACK ACCESS:          0  HIT:          0  MISS:          0
cpu0_STLB TOTAL     ACCESS:       2036  HIT:       1224  MISS:        812
cpu0_STLB LOAD      ACCESS:       2032  HIT:       1224  MISS:        808
cpu0_STLB RFO       ACCESS:          4  HIT:          0  MISS:          4
cpu0_STLB PREFETCH  ACCESS:          0  HIT:          0  MISS:          0
cpu0_STLB WRITEBACK ACCESS:          0  HIT:          0  MISS:          0
cpu0_L1D TOTAL     ACCESS:    5259292  HIT:    5127603  MISS:     131689
cpu0_L1D LOAD      ACCESS:    4015350  HIT:    3885329  MISS:     130021
cpu0_L1D RFO       ACCESS:    1243131  HIT:    1241540  MISS:       1591
cpu0_L1D PREFETCH  ACCESS:          0  HIT:          0  MISS:          0
cpu0_L1D WRITEBACK ACCESS:          0  HIT:          0  MISS:          0
cpu0_L2C TOTAL     ACCESS:     176698  HIT:      51561  MISS:     125137
cpu0_L2C LOAD      ACCESS:     130057  HIT:       5588  MISS:     124469
cpu0_L2C RFO       ACCESS:       1591  HIT:       1353  MISS:        238
cpu0_L2C PREFETCH  ACCESS:          0  HIT:          0  MISS:          0
cpu0_L2C WRITEBACK ACCESS:      44973  HIT:      44560  MISS:        413
LLC TOTAL     ACCESS:     166450  HIT:      41011  MISS:     125439
LLC LOAD      ACCESS:     124469  HIT:          1  MISS:     124468
LLC RFO       ACCESS:        238  HIT:          0  MISS:        238
LLC PREFETCH  ACCESS:          0  HIT:          0  MISS:          0
LLC WRITEBACK ACCESS:      41726  HIT:      41009  MISS:        717
Heartbeat CPU 0 instructions: 84000003 cycles: 33215878 heartbeat IPC: 1.70854 cumulative IPC: 1.7692 (Simulation time: 1 hr 0 min 4 sec) 

Region of Interest Statistics
cpu0_DTLB TOTAL     ACCESS:    6168403  HIT:    6166227  MISS:       2176
cpu0_DTLB LOAD      ACCESS:    5438444  HIT:    5436272  MISS:       2172
cpu0_DTLB RFO       ACCESS:     729959  HIT:     729955  MISS:          4
cpu0_DTLB PREFETCH  ACCESS:          0  HIT:          0  MISS:          0
cpu0_DTLB WRITEBACK ACCESS:          0  HIT:          0  MISS:          0
cpu0_ITLB TOTAL     ACCESS:     326577  HIT:     326575  MISS:          2
cpu0_ITLB LOAD      ACCESS:     326577  HIT:     326575  MISS:          2
cpu0_ITLB RFO       ACCESS:          0  HIT:          0  MISS:          0
cpu0_ITLB PREFETCH  ACCESS:          0  HIT:          0  MISS:          0
cpu0_ITLB WRITEBACK ACCESS:          0  HIT:          0  MISS:          0
cpu0_L1I TOTAL     ACCESS:      10470  HIT:      10427  MISS:         43
cpu0_L1I LOAD      ACCESS:      10470  HIT:      10427  MISS:         43
cpu0_L1I RFO       ACCESS:          0  HIT:          0  MISS:          0
cpu0_L1I PREFETCH  ACCESS:          0  HIT:          0  MISS:          0
cpu0_L1I WRITEBACK ACCESS:          0  HIT:          0  MISS:          0
cpu0_STLB TOTAL     ACCESS:       2178  HIT:       1295  MISS:        883
cpu0_STLB LOAD      ACCESS:       2174  HIT:       1295  MISS:        879
cpu0_STLB RFO       ACCESS:          4  HIT:          0  MISS:          4
cpu0_STLB PREFETCH  ACCESS:          0  HIT:          0  MISS:          0
cpu0_STLB WRITEBACK ACCESS:          0  HIT:          0  MISS:          0
cpu0_L1D TOTAL     ACCESS:    5590354  HIT:    5449373  MISS:     140981
cpu0_L1D LOAD      ACCESS:    4259531  HIT:    4120341  MISS:     139190
cpu0_L1D RFO       ACCESS:    1329941  HIT:    1328230  MISS:       1711
cpu0_L1D PREFETCH  ACCESS:          0  HIT:          0  MISS:          0
cpu0_L1D WRITEBACK ACCESS:          0  HIT:          0  MISS:          0
cpu0_L2C TOTAL     ACCESS:     189179  HIT:      55313  MISS:     133866
cpu0_L2C LOAD      ACCESS:     139226  HIT:       6035  MISS:     133191
cpu0_L2C RFO       ACCESS:       1711  HIT:       1473  MISS:        238
cpu0_L2C PREFETCH  ACCESS:          0  HIT:          0  MISS:          0
cpu0_L2C WRITEBACK ACCESS:      48162  HIT:      47743  MISS:        419
LLC TOTAL     ACCESS:     178297  HIT:      44128  MISS:     134169
LLC LOAD      ACCESS:     133191  HIT:          1  MISS:     133190
LLC RFO       ACCESS:        238  HIT:          0  MISS:        238
LLC PREFETCH  ACCESS:          0  HIT:          0  MISS:          0
LLC WRITEBACK ACCESS:      44850  HIT:      44125  MISS:        725
Heartbeat CPU 0 instructions: 86000002 cycles: 34349863 heartbeat IPC: 1.76369 cumulative IPC: 1.7689 (Simulation time: 1 hr 1 min 45 sec) 

Region of Interest Statistics
cpu0_DTLB TOTAL     ACCESS:    6456916  HIT:    6454490  MISS:       2426
cpu0_DTLB LOAD      ACCESS:    5615805  HIT:    5613526  MISS:       2279
cpu0_DTLB RFO       ACCESS:     841111  HIT:     840964  MISS:        147
cpu0_DTLB PREFETCH  ACCESS:          0  HIT:          0  MISS:          0
cpu0_DTLB WRITEBACK ACCESS:          0  HIT:          0  MISS:          0
cpu0_ITLB TOTAL     ACCESS:     398051  HIT:     398048  MISS:          3
cpu0_ITLB LOAD      ACCESS:     398051  HIT:     398048  MISS:          3
cpu0_ITLB RFO       ACCESS:          0  HIT:          0  MISS:          0
cpu0_ITLB PREFETCH  ACCESS:          0  HIT:          0  MISS:          0
cpu0_ITLB WRITEBACK ACCESS:          0  HIT:          0  MISS:          0
cpu0_L1I TOTAL     ACCESS:      10924  HIT:      10804  MISS:        120
cpu0_L1I LOAD      ACCESS:      10924  HIT:      10804  MISS:        120
cpu0_L1I RFO       ACCESS:          0  HIT:          0  MISS:          0
cpu0_L1I PREFETCH  ACCESS:          0  HIT:          0  MISS:          0
cpu0_L1I WRITEBACK ACCESS:          0  HIT:          0  MISS:          0
cpu0_STLB TOTAL     ACCESS:       2429  HIT:       1355  MISS:       1074
cpu0_STLB LOAD      ACCESS:       2282  HIT:       1355  MISS:        927
cpu0_STLB RFO       ACCESS:        147  HIT:          0  MISS:        147
cpu0_STLB PREFETCH  ACCESS:          0  HIT:          0  MISS:          0
cpu0_STLB WRITEBACK ACCESS:          0  HIT:          0  MISS:          0
cpu0_L1D TOTAL     ACCESS:    5818735  HIT:    5662888  MISS:     155847
cpu0_L1D LOAD      ACCESS:    4419859  HIT:    4274565  MISS:     145294
cpu0_L1D RFO       ACCESS:    1397803  HIT:    1387339  MISS:      10464
cpu0_L1D PREFETCH  ACCESS:          0  HIT:          0  MISS:          0
cpu0_L1D WRITEBACK ACCESS:          0  HIT:          0  MISS:          0
cpu0_L2C TOTAL     ACCESS:     214570  HIT:      65938  MISS:     148632
cpu0_L2C LOAD      ACCESS:     145407  HIT:       6333  MISS:     139074
cpu0_L2C RFO       ACCESS:      10464  HIT:       1542  MISS:       8922
cpu0_L2C PREFETCH  ACCESS:          0  HIT:          0  MISS:          0
cpu0_L2C WRITEBACK ACCESS:      58610  HIT:      57998  MISS:        612
LLC TOTAL     ACCESS:     199032  HIT:      49984  MISS:     149048
LLC LOAD      ACCESS:     139074  HIT:          1  MISS:     139073
LLC RFO       ACCESS:       8922  HIT:          0  MISS:       8922
LLC PREFETCH  ACCESS:          0  HIT:          0  MISS:          0
LLC WRITEBACK ACCESS:      51012  HIT:      49981  MISS:       1031
Heartbeat CPU 0 instructions: 88000001 cycles: 36154995 heartbeat IPC: 1.10795 cumulative IPC: 1.71505 (Simulation time: 1 hr 3 min 50 sec) 

Region of Interest Statistics
cpu0_DTLB TOTAL     ACCESS:    6705117  HIT:    6702269  MISS:       2848
cpu0_DTLB LOAD      ACCESS:    5669667  HIT:    5667328  MISS:       2339
cpu0_DTLB RFO       ACCESS:    1035450  HIT:    1034941  MISS:        509
cpu0_DTLB PREFETCH  ACCESS:          0  HIT:          0  MISS:          0
cpu0_DTLB WRITEBACK ACCESS:          0  HIT:          0  MISS:          0
cpu0_ITLB TOTAL     ACCESS:     517308  HIT:     517305  MISS:          3
cpu0_ITLB LOAD      ACCESS:     517308  HIT:     517305  MISS:          3
cpu0_ITLB RFO       ACCESS:          0  HIT:          0  MISS:          0
cpu0_ITLB PREFETCH  ACCESS:          0  HIT:          0  MISS:          0
cpu0_ITLB WRITEBACK ACCESS:          0  HIT:          0  MISS:          0
cpu0_L1I TOTAL     ACCESS:      10930  HIT:      10809  MISS:        121
cpu0_L1I LOAD      ACCESS:      10930  HIT:      10809  MISS:        121
cpu0_L1I RFO       ACCESS:          0  HIT:          0  MISS:          0
cpu0_L1I PREFETCH  ACCESS:          0  HIT:          0  MISS:          0
cpu0_L1I WRITEBACK ACCESS:          0  HIT:          0  MISS:          0
cpu0_STLB TOTAL     ACCESS:       2851  HIT:       1409  MISS:       1442
cpu0_STLB LOAD      ACCESS:       2342  HIT:       1355  MISS:        987
cpu0_STLB RFO       ACCESS:        509  HIT:         54  MISS:        455
cpu0_STLB PREFETCH  ACCESS:          0  HIT:          0  MISS:          0
cpu0_STLB WRITEBACK ACCESS:          0  HIT:          0  MISS:          0
cpu0_L1D TOTAL     ACCESS:    5863869  HIT:    5682072  MISS:     181797
cpu0_L1D LOAD      ACCESS:    4438100  HIT:    4289255  MISS:     148845
cpu0_L1D RFO       ACCESS:    1424328  HIT:    1391468  MISS:      32860
cpu0_L1D PREFETCH  ACCESS:          0  HIT:          0  MISS:          0
cpu0_L1D WRITEBACK ACCESS:          0  HIT:          0  MISS:          0
cpu0_L2C TOTAL     ACCESS:     263325  HIT:      88742  MISS:     174583
cpu0_L2C LOAD      ACCESS:     148959  HIT:       6333  MISS:     142626
cpu0_L2C RFO       ACCESS:      32860  HIT:       1542  MISS:      31318
cpu0_L2C PREFETCH  ACCESS:          0  HIT:          0  MISS:          0
cpu0_L2C WRITEBACK ACCESS:      81414  HIT:      80801  MISS:        613
LLC TOTAL     ACCESS:     250214  HIT:      75375  MISS:     174839
LLC LOAD      ACCESS:     142626  HIT:          1  MISS:     142625
LLC RFO       ACCESS:      31318  HIT:        164  MISS:      31154
LLC PREFETCH  ACCESS:          0  HIT:          0  MISS:          0
LLC WRITEBACK ACCESS:      76244  HIT:      75208  MISS:       1036
Heartbeat CPU 0 instructions: 90000003 cycles: 38708396 heartbeat IPC: 0.78327 cumulative IPC: 1.61876 (Simulation time: 1 hr 6 min 58 sec) 

Region of Interest Statistics
cpu0_DTLB TOTAL     ACCESS:    6987862  HIT:    6984541  MISS:       3321
cpu0_DTLB LOAD      ACCESS:    5892038  HIT:    5889453  MISS:       2585
cpu0_DTLB RFO       ACCESS:    1095824  HIT:    1095088  MISS:        736
cpu0_DTLB PREFETCH  ACCESS:          0  HIT:          0  MISS:          0
cpu0_DTLB WRITEBACK ACCESS:          0  HIT:          0  MISS:          0
cpu0_ITLB TOTAL     ACCESS:     561799  HIT:     561796  MISS:          3
cpu0_ITLB LOAD      ACCESS:     561799  HIT:     561796  MISS:          3
cpu0_ITLB RFO       ACCESS:          0  HIT:          0  MISS:          0
cpu0_ITLB PREFETCH  ACCESS:          0  HIT:          0  MISS:          0
cpu0_ITLB WRITEBACK ACCESS:          0  HIT:          0  MISS:          0
cpu0_L1I TOTAL     ACCESS:      10930  HIT:      10809  MISS:        121
cpu0_L1I LOAD      ACCESS:      10930  HIT:      10809  MISS:        121
cpu0_L1I RFO       ACCESS:          0  HIT:          0  MISS:          0
cpu0_L1I PREFETCH  ACCESS:          0  HIT:          0  MISS:          0
cpu0_L1I WRITEBACK ACCESS:          0  HIT:          0  MISS:          0
cpu0_STLB TOTAL     ACCESS:       3324  HIT:       1785  MISS:       1539
cpu0_STLB LOAD      ACCESS:       2588  HIT:       1504  MISS:       1084
cpu0_STLB RFO       ACCESS:        736  HIT:        281  MISS:        455
cpu0_STLB PREFETCH  ACCESS:          0  HIT:          0  MISS:          0
cpu0_STLB WRITEBACK ACCESS:          0  HIT:          0  MISS:          0
cpu0_L1D TOTAL     ACCESS:    5958018  HIT:    5746917  MISS:     211101
cpu0_L1D LOAD      ACCESS:    4504122  HIT:    4340076  MISS:     164046
cpu0_L1D RFO       ACCESS:    1452358  HIT:    1405406  MISS:      46952
cpu0_L1D PREFETCH  ACCESS:          0  HIT:          0  MISS:          0
cpu0_L1D WRITEBACK ACCESS:          0  HIT:          0  MISS:          0
cpu0_L2C TOTAL     ACCESS:     306701  HIT:     102823  MISS:     203878
cpu0_L2C LOAD      ACCESS:     164160  HIT:       6333  MISS:     157827
cpu0_L2C RFO       ACCESS:      46952  HIT:       1542  MISS:      45410
cpu0_L2C PREFETCH  ACCESS:          0  HIT:          0  MISS:          0
cpu0_L2C WRITEBACK ACCESS:      95486  HIT:      94873  MISS:        613
LLC TOTAL     ACCESS:     294447  HIT:      90333  MISS:     204114
LLC LOAD      ACCESS:     157827  HIT:          1  MISS:     157826
LLC RFO       ACCESS:      45410  HIT:        191  MISS:      45219
LLC PREFETCH  ACCESS:          0  HIT:          0  MISS:          0
LLC WRITEBACK ACCESS:      91182  HIT:      90138  MISS:       1044
Heartbeat CPU 0 instructions: 92000001 cycles: 41144715 heartbeat IPC: 0.82091 cumulative IPC: 1.54716 (Simulation time: 1 hr 9 min 46 sec) 

Region of Interest Statistics
cpu0_DTLB TOTAL     ACCESS:    7272426  HIT:    7268617  MISS:       3809
cpu0_DTLB LOAD      ACCESS:    6114691  HIT:    6111778  MISS:       2913
cpu0_DTLB RFO       ACCESS:    1157735  HIT:    1156839  MISS:        896
cpu0_DTLB PREFETCH  ACCESS:          0  HIT:          0  MISS:          0
cpu0_DTLB WRITEBACK ACCESS:          0  HIT:          0  MISS:          0
cpu0_ITLB TOTAL     ACCESS:     609992  HIT:     609989  MISS:          3
cpu0_ITLB LOAD      ACCESS:     609992  HIT:     609989  MISS:          3
cpu0_ITLB RFO       ACCESS:          0  HIT:          0  MISS:          0
cpu0_ITLB PREFETCH  ACCESS:          0  HIT:          0  MISS:          0
cpu0_ITLB WRITEBACK ACCESS:          0  HIT:          0  MISS:          0
cpu0_L1I TOTAL     ACCESS:      10930  HIT:      10809  MISS:        121
cpu0_L1I LOAD      ACCESS:      10930  HIT:      10809  MISS:        121
cpu0_L1I RFO       ACCESS:          0  HIT:          0  MISS:          0
cpu0_L1I PREFETCH  ACCESS:          0  HIT:          0  MISS:          0
cpu0_L1I WRITEBACK ACCESS:          0  HIT:          0  MISS:          0
cpu0_STLB TOTAL     ACCESS:       3812  HIT:       2189  MISS:       1623
cpu0_STLB LOAD      ACCESS:       2916  HIT:       1748  MISS:       1168
cpu0_STLB RFO       ACCESS:        896  HIT:        441  MISS:        455
cpu0_STLB PREFETCH  ACCESS:          0  HIT:          0  MISS:          0
cpu0_STLB WRITEBACK ACCESS:          0  HIT:          0  MISS:          0
cpu0_L1D TOTAL     ACCESS:    6113122  HIT:    5871956  MISS:     241166
cpu0_L1D LOAD      ACCESS:    4568183  HIT:    4384034  MISS:     184149
cpu0_L1D RFO       ACCESS:    1543317  HIT:    1486410  MISS:      56907
cpu0_L1D PREFETCH  ACCESS:          0  HIT:          0  MISS:          0
cpu0_L1D WRITEBACK ACCESS:          0  HIT:          0  MISS:          0
cpu0_L2C TOTAL     ACCESS:     351307  HIT:     117370  MISS:     233937
cpu0_L2C LOAD      ACCESS:     184263  HIT:       6333  MISS:     177930
cpu0_L2C RFO       ACCESS:      56907  HIT:       1542  MISS:      55365
cpu0_L2C PREFETCH  ACCESS:          0  HIT:          0  MISS:          0
cpu0_L2C WRITEBACK ACCESS:     110027  HIT:     109414  MISS:        613
LLC TOTAL     ACCESS:     338967  HIT:     104948  MISS:     234019
LLC LOAD      ACCESS:     177930  HIT:        159  MISS:     177771
LLC RFO       ACCESS:      55365  HIT:        191  MISS:      55174
LLC PREFETCH  ACCESS:          0  HIT:          0  MISS:          0
LLC WRITEBACK ACCESS:     105643  HIT:     104595  MISS:       1048
Heartbeat CPU 0 instructions: 94000001 cycles: 44089644 heartbeat IPC: 0.679134 cumulative IPC: 1.46221 (Simulation time: 1 hr 13 min 9 sec) 

Region of Interest Statistics
cpu0_DTLB TOTAL     ACCESS:    7562395  HIT:    7558071  MISS:       4324
cpu0_DTLB LOAD      ACCESS:    6337995  HIT:    6334567  MISS:       3428
cpu0_DTLB RFO       ACCESS:    1224400  HIT:    1223504  MISS:        896
cpu0_DTLB PREFETCH  ACCESS:          0  HIT:          0  MISS:          0
cpu0_DTLB WRITEBACK ACCESS:          0  HIT:          0  MISS:          0
cpu0_ITLB TOTAL     ACCESS:     667255  HIT:     667252  MISS:          3
cpu0_ITLB LOAD      ACCESS:     667255  HIT:     667252  MISS:          3
cpu0_ITLB RFO       ACCESS:          0  HIT:          0  MISS:          0
cpu0_ITLB PREFETCH  ACCESS:          0  HIT:          0  MISS:          0
cpu0_ITLB WRITEBACK ACCESS:          0  HIT:          0  MISS:          0
cpu0_L1I TOTAL     ACCESS:      10930  HIT:      10809  MISS:        121
cpu0_L1I LOAD      ACCESS:      10930  HIT:      10809  MISS:        121
cpu0_L1I RFO       ACCESS:          0  HIT:          0  MISS:          0
cpu0_L1I PREFETCH  ACCESS:          0  HIT:          0  MISS:          0
cpu0_L1I WRITEBACK ACCESS:          0  HIT:          0  MISS:          0
cpu0_STLB TOTAL     ACCESS:       4327  HIT:       2441  MISS:       1886
cpu0_STLB LOAD      ACCESS:       3431  HIT:       2000  MISS:       1431
cpu0_STLB RFO       ACCESS:        896  HIT:        441  MISS:        455
cpu0_STLB PREFETCH  ACCESS:          0  HIT:          0  MISS:          0
cpu0_STLB WRITEBACK ACCESS:          0  HIT:          0  MISS:          0
cpu0_L1D TOTAL     ACCESS:    6420187  HIT:    6147123  MISS:     273064
cpu0_L1D LOAD      ACCESS:    4628377  HIT:    4412330  MISS:     216047
cpu0_L1D RFO       ACCESS:    1789925  HIT:    1733018  MISS:      56907
cpu0_L1D PREFETCH  ACCESS:          0  HIT:          0  MISS:          0
cpu0_L1D WRITEBACK ACCESS:          0  HIT:          0  MISS:          0
cpu0_L2C TOTAL     ACCESS:     398837  HIT:     133002  MISS:     265835
cpu0_L2C LOAD      ACCESS:     216161  HIT:       6333  MISS:     209828
cpu0_L2C RFO       ACCESS:      56907  HIT:       1542  MISS:      55365
cpu0_L2C PREFETCH  ACCESS:          0  HIT:          0  MISS:          0
cpu0_L2C WRITEBACK ACCESS:     125659  HIT:     125046  MISS:        613
LLC TOTAL     ACCESS:     386611  HIT:     120694  MISS:     265917
LLC LOAD      ACCESS:     209828  HIT:        159  MISS:     209669
LLC RFO       ACCESS:      55365  HIT:        191  MISS:      55174
LLC PREFETCH  ACCESS:          0  HIT:          0  MISS:          0
LLC WRITEBACK ACCESS:     121389  HIT:     120341  MISS:       1048
Heartbeat CPU 0 instructions: 96000001 cycles: 46587116 heartbeat IPC: 0.80081 cumulative IPC: 1.41152 (Simulation time: 1 hr 16 min 22 sec) 

Region of Interest Statistics
cpu0_DTLB TOTAL     ACCESS:    7917067  HIT:    7912272  MISS:       4795
cpu0_DTLB LOAD      ACCESS:    6637196  HIT:    6633368  MISS:       3828
cpu0_DTLB RFO       ACCESS:    1279871  HIT:    1278904  MISS:        967
cpu0_DTLB PREFETCH  ACCESS:          0  HIT:          0  MISS:          0
cpu0_DTLB WRITEBACK ACCESS:          0  HIT:          0  MISS:          0
cpu0_ITLB TOTAL     ACCESS:     709675  HIT:     709672  MISS:          3
cpu0_ITLB LOAD      ACCESS:     709675  HIT:     709672  MISS:          3
cpu0_ITLB RFO       ACCESS:          0  HIT:          0  MISS:          0
cpu0_ITLB PREFETCH  ACCESS:          0  HIT:          0  MISS:          0
cpu0_ITLB WRITEBACK ACCESS:          0  HIT:          0  MISS:          0
cpu0_L1I TOTAL     ACCESS:      10930  HIT:      10809  MISS:        121
cpu0_L1I LOAD      ACCESS:      10930  HIT:      10809  MISS:        121
cpu0_L1I RFO       ACCESS:          0  HIT:          0  MISS:          0
cpu0_L1I PREFETCH  ACCESS:          0  HIT:          0  MISS:          0
cpu0_L1I WRITEBACK ACCESS:          0  HIT:          0  MISS:          0
cpu0_STLB TOTAL     ACCESS:       4798  HIT:       2633  MISS:       2165
cpu0_STLB LOAD      ACCESS:       3831  HIT:       2191  MISS:       1640
cpu0_STLB RFO       ACCESS:        967  HIT:        442  MISS:        525
cpu0_STLB PREFETCH  ACCESS:          0  HIT:          0  MISS:          0
cpu0_STLB WRITEBACK ACCESS:          0  HIT:          0  MISS:          0
cpu0_L1D TOTAL     ACCESS:    6661898  HIT:    6360041  MISS:     301857
cpu0_L1D LOAD      ACCESS:    4739056  HIT:    4498551  MISS:     240505
cpu0_L1D RFO       ACCESS:    1920679  HIT:    1859448  MISS:      61231
cpu0_L1D PREFETCH  ACCESS:          0  HIT:          0  MISS:          0
cpu0_L1D WRITEBACK ACCESS:          0  HIT:          0  MISS:          0
cpu0_L2C TOTAL     ACCESS:     439642  HIT:     145069  MISS:     294573
cpu0_L2C LOAD      ACCESS:     240619  HIT:       6382  MISS:     234237
cpu0_L2C RFO       ACCESS:      61231  HIT:       1542  MISS:      59689
cpu0_L2C PREFETCH  ACCESS:          0  HIT:          0  MISS:          0
cpu0_L2C WRITEBACK ACCESS:     137671  HIT:     137058  MISS:        613
LLC TOTAL     ACCESS:     428419  HIT:     133842  MISS:     294577
LLC LOAD      ACCESS:     234237  HIT:        240  MISS:     233997
LLC RFO       ACCESS:      59689  HIT:        191  MISS:      59498
LLC PREFETCH  ACCESS:          0  HIT:          0  MISS:          0
LLC WRITEBACK ACCESS:     134459  HIT:     133408  MISS:       1051
Heartbeat CPU 0 instructions: 98000001 cycles: 48468605 heartbeat IPC: 1.06299 cumulative IPC: 1.3925 (Simulation time: 1 hr 18 min 52 sec) 

Region of Interest Statistics
cpu0_DTLB TOTAL     ACCESS:    8332153  HIT:    8326940  MISS:       5213
cpu0_DTLB LOAD      ACCESS:    7007688  HIT:    7003578  MISS:       4110
cpu0_DTLB RFO       ACCESS:    1324465  HIT:    1323362  MISS:       1103
cpu0_DTLB PREFETCH  ACCESS:          0  HIT:          0  MISS:          0
cpu0_DTLB WRITEBACK ACCESS:          0  HIT:          0  MISS:          0
cpu0_ITLB TOTAL     ACCESS:     735952  HIT:     735949  MISS:          3
cpu0_ITLB LOAD      ACCESS:     735952  HIT:     735949  MISS:          3
cpu0_ITLB RFO       ACCESS:          0  HIT:          0  MISS:          0
cpu0_ITLB PREFETCH  ACCESS:          0  HIT:          0  MISS:          0
cpu0_ITLB WRITEBACK ACCESS:          0  HIT:          0  MISS:          0
cpu0_L1I TOTAL     ACCESS:      10930  HIT:      10809  MISS:        121
cpu0_L1I LOAD      ACCESS:      10930  HIT:      10809  MISS:        121
cpu0_L1I RFO       ACCESS:          0  HIT:          0  MISS:          0
cpu0_L1I PREFETCH  ACCESS:          0  HIT:          0  MISS:          0
cpu0_L1I WRITEBACK ACCESS:          0  HIT:          0  MISS:          0
cpu0_STLB TOTAL     ACCESS:       5216  HIT:       2764  MISS:       2452
cpu0_STLB LOAD      ACCESS:       4113  HIT:       2322  MISS:       1791
cpu0_STLB RFO       ACCESS:       1103  HIT:        442  MISS:        661
cpu0_STLB PREFETCH  ACCESS:          0  HIT:          0  MISS:          0
cpu0_STLB WRITEBACK ACCESS:          0  HIT:          0  MISS:          0
cpu0_L1D TOTAL     ACCESS:    6839471  HIT:    6511802  MISS:     327669
cpu0_L1D LOAD      ACCESS:    4894846  HIT:    4636915  MISS:     257931
cpu0_L1D RFO       ACCESS:    1942175  HIT:    1872573  MISS:      69602
cpu0_L1D PREFETCH  ACCESS:          0  HIT:          0  MISS:          0
cpu0_L1D WRITEBACK ACCESS:          0  HIT:          0  MISS:          0
cpu0_L2C TOTAL     ACCESS:     473854  HIT:     153579  MISS:     320275
cpu0_L2C LOAD      ACCESS:     258045  HIT:       6477  MISS:     251568
cpu0_L2C RFO       ACCESS:      69602  HIT:       1542  MISS:      68060
cpu0_L2C PREFETCH  ACCESS:          0  HIT:          0  MISS:          0
cpu0_L2C WRITEBACK ACCESS:     146071  HIT:     145458  MISS:        613
LLC TOTAL     ACCESS:     462594  HIT:     142315  MISS:     320279
LLC LOAD      ACCESS:     251568  HIT:        240  MISS:     251328
LLC RFO       ACCESS:      68060  HIT:        191  MISS:      67869
LLC PREFETCH  ACCESS:          0  HIT:          0  MISS:          0
LLC WRITEBACK ACCESS:     142932  HIT:     141881  MISS:       1051
Heartbeat CPU 0 instructions: 100000003 cycles: 50294548 heartbeat IPC: 1.09533 cumulative IPC: 1.37755 (Simulation time: 1 hr 21 min 33 sec) 

Region of Interest Statistics
cpu0_DTLB TOTAL     ACCESS:    8747058  HIT:    8741430  MISS:       5628
cpu0_DTLB LOAD      ACCESS:    7378201  HIT:    7373811  MISS:       4390
cpu0_DTLB RFO       ACCESS:    1368857  HIT:    1367619  MISS:       1238
cpu0_DTLB PREFETCH  ACCESS:          0  HIT:          0  MISS:          0
cpu0_DTLB WRITEBACK ACCESS:          0  HIT:          0  MISS:          0
cpu0_ITLB TOTAL     ACCESS:     762357  HIT:     762354  MISS:          3
cpu0_ITLB LOAD      ACCESS:     762357  HIT:     762354  MISS:          3
cpu0_ITLB RFO       ACCESS:          0  HIT:          0  MISS:          0
cpu0_ITLB PREFETCH  ACCESS:          0  HIT:          0  MISS:          0
cpu0_ITLB WRITEBACK ACCESS:          0  HIT:          0  MISS:          0
cpu0_L1I TOTAL     ACCESS:      10930  HIT:      10809  MISS:        121
cpu0_L1I LOAD      ACCESS:      10930  HIT:      10809  MISS:        121
cpu0_L1I RFO       ACCESS:          0  HIT:          0  MISS:          0
cpu0_L1I PREFETCH  ACCESS:          0  HIT:          0  MISS:          0
cpu0_L1I WRITEBACK ACCESS:          0  HIT:          0  MISS:          0
cpu0_STLB TOTAL     ACCESS:       5631  HIT:       2894  MISS:       2737
cpu0_STLB LOAD      ACCESS:       4393  HIT:       2452  MISS:       1941
cpu0_STLB RFO       ACCESS:       1238  HIT:        442  MISS:        796
cpu0_STLB PREFETCH  ACCESS:          0  HIT:          0  MISS:          0
cpu0_STLB WRITEBACK ACCESS:          0  HIT:          0  MISS:          0
cpu0_L1D TOTAL     ACCESS:    7015914  HIT:    6662430  MISS:     353484
cpu0_L1D LOAD      ACCESS:    5049853  HIT:    4774491  MISS:     275362
cpu0_L1D RFO       ACCESS:    1963326  HIT:    1885355  MISS:      77971
cpu0_L1D PREFETCH  ACCESS:          0  HIT:          0  MISS:          0
cpu0_L1D WRITEBACK ACCESS:          0  HIT:          0  MISS:          0
cpu0_L2C TOTAL     ACCESS:     508081  HIT:     162106  MISS:     345975
cpu0_L2C LOAD      ACCESS:     275476  HIT:       6577  MISS:     268899
cpu0_L2C RFO       ACCESS:      77971  HIT:       1542  MISS:      76429
cpu0_L2C PREFETCH  ACCESS:          0  HIT:          0  MISS:          0
cpu0_L2C WRITEBACK ACCESS:     154483  HIT:     153870  MISS:        613
LLC TOTAL     ACCESS:     496663  HIT:     150684  MISS:     345979
LLC LOAD      ACCESS:     268899  HIT:        240  MISS:     268659
LLC RFO       ACCESS:      76429  HIT:        191  MISS:      76238
LLC PREFETCH  ACCESS:          0  HIT:          0  MISS:          0
LLC WRITEBACK ACCESS:     151301  HIT:     150250  MISS:       1051
Heartbeat CPU 0 instructions: 102000004 cycles: 52082653 heartbeat IPC: 1.1185 cumulative IPC: 1.36539 (Simulation time: 1 hr 24 min 13 sec) 

Region of Interest Statistics
cpu0_DTLB TOTAL     ACCESS:    9152263  HIT:    9146210  MISS:       6053
cpu0_DTLB LOAD      ACCESS:    7728188  HIT:    7723524  MISS:       4664
cpu0_DTLB RFO       ACCESS:    1424075  HIT:    1422686  MISS:       1389
cpu0_DTLB PREFETCH  ACCESS:          0  HIT:          0  MISS:          0
cpu0_DTLB WRITEBACK ACCESS:          0  HIT:          0  MISS:          0
cpu0_ITLB TOTAL     ACCESS:     796559  HIT:     796556  MISS:          3
cpu0_ITLB LOAD      ACCESS:     796559  HIT:     796556  MISS:          3
cpu0_ITLB RFO       ACCESS:          0  HIT:          0  MISS:          0
cpu0_ITLB PREFETCH  ACCESS:          0  HIT:          0  MISS:          0
cpu0_ITLB WRITEBACK ACCESS:          0  HIT:          0  MISS:          0
cpu0_L1I TOTAL     ACCESS:      10970  HIT:      10849  MISS:        121
cpu0_L1I LOAD      ACCESS:      10970  HIT:      10849  MISS:        121
cpu0_L1I RFO       ACCESS:          0  HIT:          0  MISS:          0
cpu0_L1I PREFETCH  ACCESS:          0  HIT:          0  MISS:          0
cpu0_L1I WRITEBACK ACCESS:          0  HIT:          0  MISS:          0
cpu0_STLB TOTAL     ACCESS:       6056  HIT:       3017  MISS:       3039
cpu0_STLB LOAD      ACCESS:       4667  HIT:       2575  MISS:       2092
cpu0_STLB RFO       ACCESS:       1389  HIT:        442  MISS:        947
cpu0_STLB PREFETCH  ACCESS:          0  HIT:          0  MISS:          0
cpu0_STLB WRITEBACK ACCESS:          0  HIT:          0  MISS:          0
cpu0_L1D TOTAL     ACCESS:    7184740  HIT:    6805405  MISS:     379335
cpu0_L1D LOAD      ACCESS:    5197058  HIT:    4905205  MISS:     291853
cpu0_L1D RFO       ACCESS:    1984645  HIT:    1897333  MISS:      87312
cpu0_L1D PREFETCH  ACCESS:          0  HIT:          0  MISS:          0
cpu0_L1D WRITEBACK ACCESS:          0  HIT:          0  MISS:          0
cpu0_L2C TOTAL     ACCESS:     542809  HIT:     171075  MISS:     371734
cpu0_L2C LOAD      ACCESS:     291967  HIT:       6675  MISS:     285292
cpu0_L2C RFO       ACCESS:      87312  HIT:       1542  MISS:      85770
cpu0_L2C PREFETCH  ACCESS:          0  HIT:          0  MISS:          0
cpu0_L2C WRITEBACK ACCESS:     163360  HIT:     162728  MISS:        632
LLC TOTAL     ACCESS:     530818  HIT:     159099  MISS:     371719
LLC LOAD      ACCESS:     285292  HIT:        240  MISS:     285052
LLC RFO       ACCESS:      85770  HIT:        191  MISS:      85579
LLC PREFETCH  ACCESS:          0  HIT:          0  MISS:          0
LLC WRITEBACK ACCESS:     159716  HIT:     158665  MISS:       1051
Heartbeat CPU 0 instructions: 104000001 cycles: 53322853 heartbeat IPC: 1.61264 cumulative IPC: 1.37318 (Simulation time: 1 hr 25 min 47 sec) 

Region of Interest Statistics
cpu0_DTLB TOTAL     ACCESS:    9391531  HIT:    9385076  MISS:       6455
cpu0_DTLB LOAD      ACCESS:    7731393  HIT:    7726729  MISS:       4664
cpu0_DTLB RFO       ACCESS:    1660138  HIT:    1658347  MISS:       1791
cpu0_DTLB PREFETCH  ACCESS:          0  HIT:          0  MISS:          0
cpu0_DTLB WRITEBACK ACCESS:          0  HIT:          0  MISS:          0
cpu0_ITLB TOTAL     ACCESS:     950851  HIT:     950848  MISS:          3
cpu0_ITLB LOAD      ACCESS:     950851  HIT:     950848  MISS:          3
cpu0_ITLB RFO       ACCESS:          0  HIT:          0  MISS:          0
cpu0_ITLB PREFETCH  ACCESS:          0  HIT:          0  MISS:          0
cpu0_ITLB WRITEBACK ACCESS:          0  HIT:          0  MISS:          0
cpu0_L1I TOTAL     ACCESS:      10970  HIT:      10849  MISS:        121
cpu0_L1I LOAD      ACCESS:      10970  HIT:      10849  MISS:        121
cpu0_L1I RFO       ACCESS:          0  HIT:          0  MISS:          0
cpu0_L1I PREFETCH  ACCESS:          0  HIT:          0  MISS:          0
cpu0_L1I WRITEBACK ACCESS:          0  HIT:          0  MISS:          0
cpu0_STLB TOTAL     ACCESS:       6458  HIT:       3017  MISS:       3441
cpu0_STLB LOAD      ACCESS:       4667  HIT:       2575  MISS:       2092
cpu0_STLB RFO       ACCESS:       1791  HIT:        442  MISS:       1349
cpu0_STLB PREFETCH  ACCESS:          0  HIT:          0  MISS:          0
cpu0_STLB WRITEBACK ACCESS:          0  HIT:          0  MISS:          0
cpu0_L1D TOTAL     ACCESS:    7214070  HIT:    6809012  MISS:     405058
cpu0_L1D LOAD      ACCESS:    5200263  HIT:    4908410  MISS:     291853
cpu0_L1D RFO       ACCESS:    2010368  HIT:    1897333  MISS:     113035
cpu0_L1D PREFETCH  ACCESS:          0  HIT:          0  MISS:          0
cpu0_L1D WRITEBACK ACCESS:          0  HIT:          0  MISS:          0
cpu0_L2C TOTAL     ACCESS:     594255  HIT:     196798  MISS:     397457
cpu0_L2C LOAD      ACCESS:     291967  HIT:       6675  MISS:     285292
cpu0_L2C RFO       ACCESS:     113035  HIT:       1542  MISS:     111493
cpu0_L2C PREFETCH  ACCESS:          0  HIT:          0  MISS:          0
cpu0_L2C WRITEBACK ACCESS:     189083  HIT:     188451  MISS:        632
LLC TOTAL     ACCESS:     577604  HIT:     180136  MISS:     397468
LLC LOAD      ACCESS:     285292  HIT:        240  MISS:     285052
LLC RFO       ACCESS:     111493  HIT:        191  MISS:     111302
LLC PREFETCH  ACCESS:          0  HIT:          0  MISS:          0
LLC WRITEBACK ACCESS:     180779  HIT:     179702  MISS:       1077
Heartbeat CPU 0 instructions: 106000003 cycles: 54651814 heartbeat IPC: 1.50494 cumulative IPC: 1.37749 (Simulation time: 1 hr 27 min 55 sec) 

Region of Interest Statistics
cpu0_DTLB TOTAL     ACCESS:    9852067  HIT:    9845418  MISS:       6649
cpu0_DTLB LOAD      ACCESS:    8126864  HIT:    8122065  MISS:       4799
cpu0_DTLB RFO       ACCESS:    1725203  HIT:    1723353  MISS:       1850
cpu0_DTLB PREFETCH  ACCESS:          0  HIT:          0  MISS:          0
cpu0_DTLB WRITEBACK ACCESS:          0  HIT:          0  MISS:          0
cpu0_ITLB TOTAL     ACCESS:    1032209  HIT:    1032206  MISS:          3
cpu0_ITLB LOAD      ACCESS:    1032209  HIT:    1032206  MISS:          3
cpu0_ITLB RFO       ACCESS:          0  HIT:          0  MISS:          0
cpu0_ITLB PREFETCH  ACCESS:          0  HIT:          0  MISS:          0
cpu0_ITLB WRITEBACK ACCESS:          0  HIT:          0  MISS:          0
cpu0_L1I TOTAL     ACCESS:      45449  HIT:      45328  MISS:        121
cpu0_L1I LOAD      ACCESS:      45449  HIT:      45328  MISS:        121
cpu0_L1I RFO       ACCESS:          0  HIT:          0  MISS:          0
cpu0_L1I PREFETCH  ACCESS:          0  HIT:          0  MISS:          0
cpu0_L1I WRITEBACK ACCESS:          0  HIT:          0  MISS:          0
cpu0_STLB TOTAL     ACCESS:       6652  HIT:       3061  MISS:       3591
cpu0_STLB LOAD      ACCESS:       4802  HIT:       2617  MISS:       2185
cpu0_STLB RFO       ACCESS:       1850  HIT:        444  MISS:       1406
cpu0_STLB PREFETCH  ACCESS:          0  HIT:          0  MISS:          0
cpu0_STLB WRITEBACK ACCESS:          0  HIT:          0  MISS:          0
cpu0_L1D TOTAL     ACCESS:    7553141  HIT:    7123656  MISS:     429485
cpu0_L1D LOAD      ACCESS:    5479166  HIT:    5167963  MISS:     311203
cpu0_L1D RFO       ACCESS:    2070388  HIT:    1952301  MISS:     118087
cpu0_L1D PREFETCH  ACCESS:          0  HIT:          0  MISS:          0
cpu0_L1D WRITEBACK ACCESS:          0  HIT:          0  MISS:          0
cpu0_L2C TOTAL     ACCESS:     626326  HIT:     218320  MISS:     408006
cpu0_L2C LOAD      ACCESS:     311317  HIT:      19004  MISS:     292313
cpu0_L2C RFO       ACCESS:     118087  HIT:       3075  MISS:     115012
cpu0_L2C PREFETCH  ACCESS:          0  HIT:          0  MISS:          0
cpu0_L2C WRITEBACK ACCESS:     196727  HIT:     196093  MISS:        634
[...]
cpu0_DTLB PREFETCH  ACCESS:          0  HIT:          0  MISS:          0
cpu0_DTLB WRITEBACK ACCESS:          0  HIT:          0  MISS:          0
cpu0_DTLB TRANSLATION ACCESS:          0  HIT:          0  MISS:          0
cpu0_DTLB PREFETCH  REQUESTED:          0  ISSUED:          0  USEFUL:          0  USELESS:          0
cpu0_DTLB AVERAGE MISS LATENCY: 11.6042 cycles
cpu0_ITLB TOTAL     ACCESS:   57494600  HIT:   57494557  MISS:         43
cpu0_ITLB LOAD      ACCESS:   57494600  HIT:   57494557  MISS:         43
cpu0_ITLB RFO       ACCESS:          0  HIT:          0  MISS:          0
cpu0_ITLB PREFETCH  ACCESS:          0  HIT:          0  MISS:          0
cpu0_ITLB WRITEBACK ACCESS:          0  HIT:          0  MISS:          0
cpu0_ITLB TRANSLATION ACCESS:          0  HIT:          0  MISS:          0
cpu0_ITLB PREFETCH  REQUESTED:          0  ISSUED:          0  USEFUL:          0  USELESS:          0
cpu0_ITLB AVERAGE MISS LATENCY: 238.721 cycles
cpu0_L1I TOTAL     ACCESS:  127247366  HIT:  126181448  MISS:    1065918
cpu0_L1I LOAD      ACCESS:  127247366  HIT:  126181448  MISS:    1065918
cpu0_L1I RFO       ACCESS:          0  HIT:          0  MISS:          0
cpu0_L1I PREFETCH  ACCESS:          0  HIT:          0  MISS:          0
cpu0_L1I WRITEBACK ACCESS:          0  HIT:          0  MISS:          0
cpu0_L1I TRANSLATION ACCESS:          0  HIT:          0  MISS:          0
cpu0_L1I PREFETCH  REQUESTED:          0  ISSUED:          0  USEFUL:          0  USELESS:          0
cpu0_L1I AVERAGE MISS LATENCY: 11.4105 cycles
cpu0_STLB TOTAL     ACCESS:    1367622  HIT:    1332444  MISS:      35178
cpu0_STLB LOAD      ACCESS:     903364  HIT:     877571  MISS:      25793
cpu0_STLB RFO       ACCESS:     464258  HIT:     454873  MISS:       9385
cpu0_STLB PREFETCH  ACCESS:          0  HIT:          0  MISS:          0
cpu0_STLB WRITEBACK ACCESS:          0  HIT:          0  MISS:          0
cpu0_STLB TRANSLATION ACCESS:          0  HIT:          0  MISS:          0
cpu0_STLB PREFETCH  REQUESTED:          0  ISSUED:          0  USEFUL:          0  USELESS:          0
cpu0_STLB AVERAGE MISS LATENCY: 99.4458 cycles
cpu0_L1D TOTAL     ACCESS:  404827260  HIT:  398944468  MISS:    5882792
cpu0_L1D LOAD      ACCESS:  233228095  HIT:  228729472  MISS:    4498623
cpu0_L1D RFO       ACCESS:  171564041  HIT:  170183868  MISS:    1380173
cpu0_L1D PREFETCH  ACCESS:          0  HIT:          0  MISS:          0
cpu0_L1D WRITEBACK ACCESS:          0  HIT:          0  MISS:          0
cpu0_L1D TRANSLATION ACCESS:      35124  HIT:      31128  MISS:       3996
cpu0_L1D PREFETCH  REQUESTED:          0  ISSUED:          0  USEFUL:          0  USELESS:          0
cpu0_L1D AVERAGE MISS LATENCY: 165.119 cycles
cpu0_L2C TOTAL     ACCESS:    9030902  HIT:    5938685  MISS:    3092217
cpu0_L2C LOAD      ACCESS:    5564515  HIT:    3172366  MISS:    2392149
cpu0_L2C RFO       ACCESS:    1379656  HIT:     684654  MISS:     695002
cpu0_L2C PREFETCH  ACCESS:          0  HIT:          0  MISS:          0
cpu0_L2C WRITEBACK ACCESS:    2082735  HIT:    2078023  MISS:       4712
cpu0_L2C TRANSLATION ACCESS:       3996  HIT:       3642  MISS:        354
cpu0_L2C PREFETCH  REQUESTED:          0  ISSUED:          0  USEFUL:          0  USELESS:          0
cpu0_L2C AVERAGE MISS LATENCY: 293.292 cycles
LLC TOTAL     ACCESS:    4464048  HIT:    1372256  MISS:    3091792
LLC LOAD      ACCESS:    2392149  HIT:       2838  MISS:    2389311
LLC RFO       ACCESS:     695002  HIT:        790  MISS:     694212
LLC PREFETCH  ACCESS:          0  HIT:          0  MISS:          0
LLC WRITEBACK ACCESS:    1376543  HIT:    1368491  MISS:       8052
LLC TRANSLATION ACCESS:        354  HIT:        137  MISS:        217
LLC PREFETCH  REQUESTED:          0  ISSUED:          0  USEFUL:          0  USELESS:          0
LLC AVERAGE MISS LATENCY: 272.361 cycles
~~~~~~~~~~Reuse Distance Profiler output~~~~~~~~~~
0	65222640	9258656
1	19428256	8785152
2	21710544	12551040
3	22052544	14095264
4	17304352	13107008
5	16643248	12636800
6	13774016	11841824
7	11742128	9370880
8	13244624	10522576
9	7171184	5833248
10	6179552	5032672
11	4769936	4264144
12	5953280	4457856
13	3804640	3247200
14	4286096	4047952
15	3889728	3396784
16	3866096	3469600
17	2108240	1850752
18	2746672	2473264
19	3679776	3413168
20	1984544	1775648
21	2359120	1685792
22	3467344	2351392
23	2401744	1927536
24	2778320	1895216
25	2178912	1404896
26	2715296	1278160
27	2230336	1237648
28	2090128	973152
29	1890192	792240
30	1924432	1160416
31	1758352	677424
32	3547296	2529008
33	2477808	1289680
34	8767888	2674624
35	2154768	1300944
36	3415568	2006880
37	2062544	1171888
38	1842528	724688
39	2190176	1054752
40	2807264	1038448
41	2684752	1279456
42	2808272	1627344
43	4244272	2237440
44	2798384	1503280
45	2383472	1665120
46	1237360	799136
47	1146208	546256
48	1754320	823440
49	6693008	984032
50	1870800	981056
51	1125088	759840
52	772576	608960
53	665424	557776
54	717760	588896
55	878096	790224
56	622640	554128
57	747952	615856
58	668208	519712
59	737808	549392
60	483376	381696
61	836816	670032
62	543920	375200
63	621376	362128
64	951344	609744
66	1278368	745920
68	2035520	990720
70	2163856	875632
72	1581504	578096
74	1471808	857520
76	4232816	2940112
78	1258048	1038464
80	4880128	4306512
82	1257680	1048704
84	949600	748096
86	3341440	2772576
88	4683024	3791664
90	915632	749856
92	686592	259232
94	301824	241792
96	215664	160880
98	251296	186368
100	390032	327648
102	264928	211264
104	235456	170464
106	326320	267024
108	316144	214624
110	238096	168048
112	396688	254672
114	228640	176288
116	186992	156368
118	204016	162592
120	304944	233056
122	444416	389936
124	285424	255136
126	378688	324240
128	575952	471920
132	361824	319840
136	321856	241808
140	424048	354368
144	365936	294896
148	387680	318272
152	519456	440624
156	871792	468384
160	1484400	655808
164	635520	312752
168	246288	161360
172	332512	240864
176	251520	195360
180	205200	154880
184	202176	161392
188	268496	223824
192	158928	129536
196	147712	124592
200	152256	147952
204	162048	149328
208	116752	115248
212	129168	108432
216	218480	153824
220	135040	61408
224	184304	67264
228	127872	67824
232	332160	114496
236	496224	153856
240	448592	119600
244	706016	134592
248	300400	82976
252	189808	51280
256	109904	63440
264	55488	44320
272	52720	51520
280	56480	56096
288	79904	79584
296	97328	96736
304	71328	70624
312	82672	68928
320	74672	74016
328	40992	40368
336	20016	18736
344	7424	5152
352	6016	4832
360	13968	13424
368	10336	9920
376	4304	2032
384	12624	5936
392	2416	2336
400	17968	17552
408	38352	38208
416	31792	31728
424	10576	10528
432	6624	5584
440	7152	6736
448	9456	8624
456	13264	12656
464	30544	28112
472	32624	27024
480	44896	38368
488	41152	33104
496	34704	33568
504	51232	42000
512	145552	128432
528	193680	183376
544	109120	107600
560	112864	97488
576	153440	78528
592	184576	84112
608	99680	77248
624	89088	74864
640	91120	89264
656	53760	53520
672	29536	29424
688	59728	59536
704	27232	26928
720	36720	35792
736	42912	40944
752	77120	58064
768	79472	72576
784	58784	50912
800	86576	70208
816	72544	58224
832	123664	39008
848	203536	36960
864	64512	34544
880	88960	74224
896	36064	29312
912	59360	54064
928	37744	20624
944	68880	53968
960	61040	52720
976	44144	40208
992	41264	41120
1008	61392	47024
1024	72016	71712
1056	65376	64896
1088	58832	58704
1120	48864	34816
1152	73904	57216
1184	112752	50400
1216	79696	46672
1248	26960	26144
1280	46880	46736
1312	40320	40320
1344	75280	75280
1376	77024	76848
1408	23328	23104
1440	70432	70432
1472	63504	63424
1504	39360	39136
1536	39152	39136
1568	31152	29392
1600	58832	47008
1632	43776	29936
1664	42608	38288
1696	41664	27360
1728	42576	40864
1760	48048	39344
1792	71952	62432
1824	52112	40512
1856	38832	31760
1888	68128	41344
1920	26272	24576
1952	44800	44336
1984	53168	39968
2016	73840	58976
2048	139680	99136
2112	106528	77616
2176	83888	83616
2240	193696	177728
2304	460768	409024
2368	256240	210976
2432	157920	146816
2496	188176	172656
2560	144752	134192
2624	42080	39152
2688	78240	78032
2752	62384	62336
2816	72336	72032
2880	18048	17888
2944	61072	57744
3008	41792	18048
3072	58848	31600
3136	31424	30176
3200	24000	23840
3264	35424	34960
3328	71008	70832
3392	151312	139632
3456	121696	99344
3520	205760	127568
3584	156912	89872
3648	186352	95840
3712	77472	22512
3776	101360	48672
3840	117504	60960
3904	58640	15536
3968	88464	43216
4032	101584	35024
4096	196048	64992
4224	129552	28960
4352	137440	33936
4480	147072	55680
4608	102000	42208
4736	98752	42736
4864	71024	11936
4992	122720	75936
5120	105888	19936
5248	92880	36272
5376	61600	14368
5504	64752	14320
5632	93744	41536
5760	53616	560
5888	76208	14960
6016	46080	592
6144	63232	14784
6272	155728	68240
6400	47760	2368
6528	38224	880
6656	50960	28064
6784	37216	14240
6912	37824	560
7040	26960	448
7168	42416	464
7296	42912	896
7424	40480	13776
7552	22624	640
7680	55824	17216
7808	76528	41952
7936	102976	66352
8064	125776	58480
8192	241744	99408
8448	171968	32720
8704	242848	42144
8960	285104	63056
9216	234320	80656
9472	161664	65904
9728	122576	33232
9984	104736	28496
10240	162288	156608
10496	155424	57216
10752	266528	73168
11008	176544	44544
11264	98432	49648
11520	49664	45808
11776	45024	27696
12032	9888	6112
12288	10304	6560
12544	37856	20496
12800	23776	19888
13056	22992	5136
13312	9520	5392
13568	9488	5552
13824	11824	7120
14080	13840	8688
14336	86736	68832
14592	25008	21472
14848	19888	17888
15104	21104	18832
15360	23760	21472
15616	34544	29376
15872	29952	20032
16128	107888	69648
16384	567936	313456
16896	204848	172976
17408	1320800	81472
17920	585568	78720
18432	565136	59248
18944	724192	66800
19456	144704	61056
19968	3238336	3068720
20480	8192	4320
20992	11344	7728
21504	6848	3392
22016	10272	6272
22528	9648	6016
23040	7888	4000
23552	6816	2912
24064	8016	4320
24576	11200	6624
25088	11280	5776
25600	15408	10304
26112	17088	10336
26624	14816	6608
27136	14256	7104
27648	12560	7408
28160	8928	4400
28672	7296	3920
29184	5776	3680
29696	5120	3232
30208	3968	2144
30720	4880	2224
31232	4496	1856
31744	4416	2160
32256	4544	2064
32768	5152	3632
33792	2992	2256
34816	2576	1808
35840	1296	544
36864	1296	544
37888	1360	640
38912	1344	736
39936	1760	960
40960	224128	223472
41984	110560	109824
43008	164128	163600
44032	1472	704
45056	1120	288
46080	816	128
47104	720	64
48128	784	64
49152	1088	352
50176	880	288
51200	816	176
52224	928	208
53248	848	64
54272	1072	336
55296	1344	608
56320	800	80
57344	167760	167072
58368	912	224
59392	928	224
60416	912	144
61440	976	224
62464	800	64
63488	800	96
64512	688	32
65536	1440	0
67584	1440	0
69632	1472	0
71680	1520	0
73728	1552	0
75776	1520	96
77824	1632	144
79872	1888	320
81920	1664	96
83968	1520	0
86016	1504	0
88064	1456	0
90112	1584	48
92160	1664	80
94208	1568	128
96256	1808	176
98304	1664	208
100352	1936	400
102400	1696	224
104448	1536	112
106496	1536	32
108544	1584	0
110592	1472	0
112640	1664	0
114688	1568	32
116736	1536	64
118784	1744	160
120832	1728	176
122880	1776	112
124928	1504	16
126976	1456	0
129024	1456	16
131072	3152	112
135168	3344	224
139264	3632	432
143360	3328	208
147456	12912	9856
151552	22320	19312
155648	3328	128
159744	3360	304
163840	3136	16
167936	3024	0
172032	3248	144
176128	3376	224
180224	1616	496
184320	1056	1056
188416	1232	1232
192512	1280	1280
196608	1440	1440
200704	1408	1408
204800	1408	1408
208896	1232	1232
212992	2256	2256
217088	1472	1472
221184	1744	1744
225280	1616	1616
229376	1616	1616
233472	1632	1632
237568	1616	1616
241664	1920	1920
245760	1296	1296
249856	1136	1136
253952	1456	1456
258048	1584	1584
262144	3680	3680
270336	3296	3296
278528	3424	3424
286720	2864	2864
294912	2896	2896
303104	3536	3536
311296	3808	3808
319488	2688	2688
327680	2720	2720
335872	3776	3776
344064	2992	2992
352256	2864	2864
360448	2992	2992
368640	3008	3008
376832	2496	2496
385024	3488	3488
393216	2768	2768
401408	3040	3040
409600	3424	3424
417792	3216	3216
425984	3008	3008
434176	3504	3504
442368	3008	3008
450560	2624	2624
458752	3744	3744
466944	2848	2848
475136	2832	2832
483328	3632	3632
491520	2880	2880
499712	2400	2400
507904	3648	3648
516096	3424	3424
524288	6528	6528
540672	16768	16768
557056	28336	28336
573440	29680	29680
589824	28112	28096
606208	13344	13344
622592	1184	1184
638976	880	880
655360	1216	1200
671744	1200	1200
688128	768	768
704512	1296	1296
720896	2336	2336
737280	544	544
753664	1504	1504
770048	1184	1184
786432	592	592
802816	1504	1504
819200	832	832
835584	864	864
851968	1424	1424
868352	752	752
884736	1072	1072
901120	1168	1168
917504	1136	1136
933888	1328	1328
950272	1120	1120
966656	2112	2112
983040	4592	4592
999424	3968	3968
1015808	1856	1856
1032192	768	768
1048576	3024	3024
1081344	2992	2992
1114112	2736	2736
1146880	2768	2768
1179648	14576	3376
1212416	22528	2896
1245184	22352	2768
1277952	22480	2688
1310720	19488	2720
1343488	2880	2832
1376256	4944	3136
1409024	4704	2736
1441792	4416	2880
1474560	4048	2816
1507328	4704	2848
1540096	4064	2848
1572864	4720	2800
1605632	4128	3072
1638400	4656	2768
1671168	3760	2704
1703936	4448	3040
1736704	4048	2432
1769472	4400	2880
1802240	4864	3120
1835008	4320	3104
1867776	4560	2816
1900544	4736	3200
1933312	4352	2784
1966080	3552	2304
1998848	4928	3440
2031616	3968	2480
2064384	3904	2416
2097152	8672	5776
2162688	7408	4496
2228224	6896	4032
2293760	7584	4608
2359296	6672	3936
2424832	22528	19696
2490368	7360	4304
2555904	7632	4816
2621440	6336	3568
2686976	7712	4672
2752512	6704	3824
2818048	6576	3632
2883584	7104	4160
2949120	6944	4112
3014656	7168	4016
3080192	6928	3856
3145728	7184	4432
3211264	15696	12752
3276800	19376	16528
3342336	20048	16352
3407872	17696	14848
3473408	19936	16736
3538944	21104	16352
3604480	22624	17168
3670016	22256	17088
3735552	18352	16016
3801088	19024	16304
3866624	15024	12096
3932160	16176	14000
3997696	12704	12352
4063232	16128	16128
4128768	21648	21648
4194304	33728	33728
4325376	30512	30512
4456448	29552	29360
4587520	30080	29696
4718592	29248	29248
4849664	29024	29024
4980736	23328	23312
5111808	12928	12864
5242880	5824	5744
5373952	3728	3728
5505024	4368	4368
5636096	3280	3280
5767168	4432	4432
5898240	3232	3232
6029312	4016	4016
6160384	3792	3792
6291456	3488	3488
6422528	3408	3408
6553600	4208	4208
6684672	2976	2976
6815744	12320	12320
6946816	14592	14592
7077888	1184	1184
7208960	512	512
7340032	688	688
7471104	592	592
7602176	128	128
7733248	464	464
7864320	560	560
7995392	288	288
8126464	560	560
8257536	400	400
8388608	832	832
8650752	816	464
8912896	1024	656
9175040	1296	1296
9437184	1088	1072
9699328	1696	576
9961472	768	768
10223616	624	624
10485760	768	544
10747904	976	528
11010048	528	528
11272192	896	896
11534336	480	480
11796480	624	624
12058624	944	944
12320768	2224	704
12582912	20816	928
12845056	37344	880
13107200	23664	608
13369344	1264	640
13631488	11856	11856
13893632	189392	186992
14155776	36624	36624
14417920	3696	3696
14680064	3600	3600
14942208	4768	4768
15204352	5024	5024
15466496	4256	4256
15728640	4160	3776
15990784	8800	5472
16252928	8432	5216
16515072	8336	5184
16777216	12496	4272
17301504	8960	2208
17825792	6112	2176
18350080	2480	2480
18874368	2160	2160
19398656	1008	1008
19922944	1280	1280
20447232	1424	1424
20971520	1472	1472
21495808	1824	1824
22020096	1472	1472
22544384	1712	1712
23068672	1712	1712
23592960	1536	1536
24117248	1664	1664
24641536	1072	1072
25165824	1392	1392
25690112	1216	1216
26214400	1328	1328
26738688	1376	1376
27262976	1520	1520
27787264	1280	1280
28311552	1312	1312
28835840	1024	1024
29360128	1408	1408
29884416	1120	1120
30408704	1248	1248
30932992	1360	1360
31457280	960	960
31981568	1904	1904
32505856	1440	1440
33030144	1440	1440
33554432	3600	3600
34603008	9472	9456
35651584	51184	51184
36700160	53792	53792
37748736	31424	31424
38797312	192	192
39845888	576	576
40894464	544	544
41943040	560	560
42991616	464	464
44040192	512	512
45088768	352	352
46137344	736	736
47185920	448	448
48234496	720	720
49283072	688	688
50331648	832	832
51380224	624	624
52428800	640	640
53477376	560	560
54525952	272	272
55574528	784	784
56623104	704	704
57671680	832	832
58720256	368	368
59768832	528	528
60817408	576	576
61865984	720	720
62914560	576	576
63963136	416	416
65011712	752	752
66060288	576	576
67108864	1360	1360
69206016	1232	1232
71303168	1440	1440
73400320	1472	1472
75497472	1952	1920
77594624	1648	1648
79691776	1920	1920
81788928	1808	1808
83886080	1808	1808
85983232	1680	1664
88080384	1792	1776
90177536	1856	1856
92274688	2224	2208
94371840	2112	2096
96468992	2432	2432
98566144	2256	2256
100663296	2128	2112
102760448	2512	2512
104857600	2544	2544
106954752	2384	2384
109051904	2320	2320
111149056	2240	2240
113246208	2368	2368
115343360	2048	2032
117440512	2752	2736
119537664	2528	2512
121634816	2656	2640
123731968	2608	2608
125829120	2528	2512
127926272	2848	2832
130023424	3232	3232
132120576	2816	2816
134217728	6288	6288
138412032	5776	5776
142606336	6080	6080
146800640	5520	5504
150994944	6400	6384
155189248	5488	5488
159383552	5280	5264
163577856	5472	5472
167772160	6192	6192
171966464	7408	7408
176160768	5344	5344
180355072	6224	6208
184549376	5968	5968
188743680	5424	5424
192937984	6112	6064
197132288	6352	6336
201326592	5744	5728
205520896	5280	5264
209715200	6160	6144
213909504	5936	5936
218103808	5696	5696
222298112	5344	5344
226492416	6128	6128
230686720	5968	5968
234881024	6528	6480
239075328	5520	5520
243269632	5360	5360
247463936	5440	5424
251658240	6144	6080
255852544	6256	6224
260046848	6032	6016
264241152	6272	6272
268435456	11856	11840
276824064	10672	10656
285212672	8208	8176
293601280	7280	7280
301989888	7712	7696
310378496	7696	7696
318767104	6160	6128
327155712	5968	5920
335544320	5680	5616
343932928	6384	6336
352321536	5152	5120
360710144	4592	4592
369098752	3152	3152
377487360	2976	2976
385875968	2496	2496
394264576	1472	1472
402653184	768	768
411041792	368	368
419430400	0	0
427819008	0	0
436207616	0	0
444596224	0	0
452984832	0	0
461373440	0	0
469762048	0	0
478150656	0	0
486539264	0	0
494927872	0	0
503316480	0	0
511705088	0	0
520093696	0	0
528482304	0	0
536870912	0	0
553648128	0	0
570425344	0	0
587202560	0	0
603979776	0	0
620756992	0	0
637534208	0	0
654311424	0	0
671088640	0	0
687865856	0	0
704643072	0	0
721420288	0	0
738197504	0	0
754974720	0	0
771751936	0	0
788529152	0	0
805306368	0	0
822083584	0	0
838860800	0	0
855638016	0	0
872415232	0	0
889192448	0	0
905969664	0	0
922746880	0	0
939524096	0	0
956301312	0	0
973078528	0	0
989855744	0	0
1006632960	0	0
1023410176	0	0
1040187392	0	0
1056964608	0	0
1073741824	0	0
1107296256	0	0
1140850688	0	0
1174405120	0	0
1207959552	0	0
1241513984	0	0
1275068416	0	0
1308622848	0	0
1342177280	0	0
1375731712	0	0
1409286144	0	0
1442840576	0	0
1476395008	0	0
1509949440	0	0
1543503872	0	0
1577058304	0	0
1610612736	0	0
1644167168	0	0
1677721600	0	0
1711276032	0	0
1744830464	0	0
1778384896	0	0
1811939328	0	0
1845493760	0	0
1879048192	0	0
1912602624	0	0
1946157056	0	0
1979711488	0	0
2013265920	0	0
2046820352	0	0
2080374784	0	0
2113929216	0	0
2147483648	0	0
2214592512	0	0
2281701376	0	0
2348810240	0	0
2415919104	0	0
2483027968	0	0
2550136832	0	0
2617245696	0	0
2684354560	0	0
2751463424	0	0
2818572288	0	0
2885681152	0	0
2952790016	0	0
3019898880	0	0
3087007744	0	0
3154116608	0	0
3221225472	0	0
3288334336	0	0
3355443200	0	0
3422552064	0	0
3489660928	0	0
3556769792	0	0
3623878656	0	0
3690987520	0	0
3758096384	0	0
3825205248	0	0
3892314112	0	0
3959422976	0	0
4026531840	0	0
4093640704	0	0
4160749568	0	0
4227858432	0	0
~~~~~~~~~~Reuse Distance Profiler output end~~~~~~~~~~

Sampler size:67860

DRAM Statistics
 CHANNEL 0
 RQ ROW_BUFFER_HIT:     157729  ROW_BUFFER_MISS:    2926005
 DBUS AVG_CONGESTED_CYCLE:     3.9379
 WQ ROW_BUFFER_HIT:     186700  ROW_BUFFER_MISS:    1185913  FULL:          0


CPU 0 Branch Prediction Accuracy: 97.8067% MPKI: 2.49518 Average ROB Occupancy at Mispredict: 91.2509
Branch type MPKI
BRANCH_DIRECT_JUMP: 4.53333e-05
BRANCH_INDIRECT: 0
BRANCH_CONDITIONAL: 2.49481
BRANCH_DIRECT_CALL: 0.000174
BRANCH_INDIRECT_CALL: 0
BRANCH_RETURN: 0.000149333

