
*** ChampSim Multicore Out-of-Order Simulator ***

Warmup Instructions: 50000000
Simulation Instructions: 1500000000
Number of CPUs: 1
Off-chip DRAM Size: 4 GiB Channels: 1 Width: 64-bit Data Rate: 3200 MT/s

VirtualMemory physical capacity: 8588881920 num_ppages: 2096895
VirtualMemory page size: 4096 log2_page_size: 12

CPU 0 runs /s/traces/champsim_traces/482.sphinx3-234B.champsimtrace.xz
CPU 0 Bimodal branch predictor
Basic BTB sets: 1024 ways: 8 indirect buffer size: 4096 RAS size: 64
Initializing LRU.
Initializing LRU.
Initializing LRU.
Initializing LRU.
Initializing rdLRU.
Initializing LRU.
Heartbeat CPU 0 instructions: 2000001 cycles: 516162 heartbeat IPC: 3.87475 cumulative IPC: 3.87475 (Simulation time: 0 hr 1 min 9 sec) 
Heartbeat CPU 0 instructions: 4000002 cycles: 1045894 heartbeat IPC: 3.7755 cumulative IPC: 3.82448 (Simulation time: 0 hr 2 min 16 sec) 
Heartbeat CPU 0 instructions: 6000002 cycles: 1569656 heartbeat IPC: 3.81853 cumulative IPC: 3.82249 (Simulation time: 0 hr 3 min 17 sec) 
Heartbeat CPU 0 instructions: 8000003 cycles: 2083993 heartbeat IPC: 3.8885 cumulative IPC: 3.83879 (Simulation time: 0 hr 4 min 23 sec) 
Heartbeat CPU 0 instructions: 10000002 cycles: 2599945 heartbeat IPC: 3.87633 cumulative IPC: 3.84624 (Simulation time: 0 hr 5 min 33 sec) 
Heartbeat CPU 0 instructions: 12000000 cycles: 3116039 heartbeat IPC: 3.87526 cumulative IPC: 3.85104 (Simulation time: 0 hr 6 min 36 sec) 
Heartbeat CPU 0 instructions: 14000002 cycles: 3631953 heartbeat IPC: 3.87662 cumulative IPC: 3.85468 (Simulation time: 0 hr 7 min 37 sec) 
Heartbeat CPU 0 instructions: 16000000 cycles: 4176992 heartbeat IPC: 3.66946 cumulative IPC: 3.83051 (Simulation time: 0 hr 8 min 36 sec) 
Heartbeat CPU 0 instructions: 18000001 cycles: 4683532 heartbeat IPC: 3.94836 cumulative IPC: 3.84325 (Simulation time: 0 hr 9 min 32 sec) 
Heartbeat CPU 0 instructions: 20000000 cycles: 5199717 heartbeat IPC: 3.87458 cumulative IPC: 3.84636 (Simulation time: 0 hr 10 min 39 sec) 
Heartbeat CPU 0 instructions: 22000003 cycles: 5715919 heartbeat IPC: 3.87446 cumulative IPC: 3.8489 (Simulation time: 0 hr 11 min 46 sec) 
Heartbeat CPU 0 instructions: 24000001 cycles: 6232053 heartbeat IPC: 3.87496 cumulative IPC: 3.85106 (Simulation time: 0 hr 12 min 54 sec) 
Heartbeat CPU 0 instructions: 26000002 cycles: 6751831 heartbeat IPC: 3.8478 cumulative IPC: 3.85081 (Simulation time: 0 hr 14 min 2 sec) 
Heartbeat CPU 0 instructions: 28000004 cycles: 7326164 heartbeat IPC: 3.4823 cumulative IPC: 3.82192 (Simulation time: 0 hr 15 min 7 sec) 
Heartbeat CPU 0 instructions: 30000001 cycles: 7832555 heartbeat IPC: 3.94951 cumulative IPC: 3.83017 (Simulation time: 0 hr 16 min 2 sec) 
Heartbeat CPU 0 instructions: 32000001 cycles: 8347788 heartbeat IPC: 3.88174 cumulative IPC: 3.83335 (Simulation time: 0 hr 17 min 7 sec) 
Heartbeat CPU 0 instructions: 34000001 cycles: 8863793 heartbeat IPC: 3.87593 cumulative IPC: 3.83583 (Simulation time: 0 hr 18 min 10 sec) 
Heartbeat CPU 0 instructions: 36000002 cycles: 9379917 heartbeat IPC: 3.87504 cumulative IPC: 3.83799 (Simulation time: 0 hr 19 min 17 sec) 
Heartbeat CPU 0 instructions: 38000003 cycles: 9895820 heartbeat IPC: 3.8767 cumulative IPC: 3.84001 (Simulation time: 0 hr 20 min 22 sec) 
Heartbeat CPU 0 instructions: 40000002 cycles: 10433944 heartbeat IPC: 3.71661 cumulative IPC: 3.83364 (Simulation time: 0 hr 21 min 25 sec) 
Heartbeat CPU 0 instructions: 42000004 cycles: 10941447 heartbeat IPC: 3.94087 cumulative IPC: 3.83862 (Simulation time: 0 hr 22 min 24 sec) 
Heartbeat CPU 0 instructions: 44000004 cycles: 11457157 heartbeat IPC: 3.87815 cumulative IPC: 3.84039 (Simulation time: 0 hr 23 min 30 sec) 
Heartbeat CPU 0 instructions: 46000000 cycles: 11972204 heartbeat IPC: 3.88313 cumulative IPC: 3.84223 (Simulation time: 0 hr 24 min 34 sec) 
Heartbeat CPU 0 instructions: 48000001 cycles: 12505045 heartbeat IPC: 3.75347 cumulative IPC: 3.83845 (Simulation time: 0 hr 25 min 35 sec) 
Heartbeat CPU 0 instructions: 50000004 cycles: 13012258 heartbeat IPC: 3.94312 cumulative IPC: 3.84253 (Simulation time: 0 hr 26 min 36 sec) 

Warmup complete CPU 0 instructions: 50000004 cycles: 13012258 (Simulation time: 0 hr 26 min 36 sec) 

Heartbeat CPU 0 instructions: 52000001 cycles: 15622081 heartbeat IPC: 0.766334 cumulative IPC: 0.766334 (Simulation time: 0 hr 28 min 44 sec) 

Region of Interest Statistics
cpu0_DTLB TOTAL     ACCESS:     366605  HIT:     363085  MISS:       3520
cpu0_DTLB LOAD      ACCESS:     345799  HIT:     342341  MISS:       3458
cpu0_DTLB RFO       ACCESS:      20806  HIT:      20744  MISS:         62
cpu0_DTLB PREFETCH  ACCESS:          0  HIT:          0  MISS:          0
cpu0_DTLB WRITEBACK ACCESS:          0  HIT:          0  MISS:          0
cpu0_ITLB TOTAL     ACCESS:     165823  HIT:     165823  MISS:          0
cpu0_ITLB LOAD      ACCESS:     165823  HIT:     165823  MISS:          0
cpu0_ITLB RFO       ACCESS:          0  HIT:          0  MISS:          0
cpu0_ITLB PREFETCH  ACCESS:          0  HIT:          0  MISS:          0
cpu0_ITLB WRITEBACK ACCESS:          0  HIT:          0  MISS:          0
cpu0_L1I TOTAL     ACCESS:          3  HIT:          3  MISS:          0
cpu0_L1I LOAD      ACCESS:          3  HIT:          3  MISS:          0
cpu0_L1I RFO       ACCESS:          0  HIT:          0  MISS:          0
cpu0_L1I PREFETCH  ACCESS:          0  HIT:          0  MISS:          0
cpu0_L1I WRITEBACK ACCESS:          0  HIT:          0  MISS:          0
cpu0_STLB TOTAL     ACCESS:       3520  HIT:       2702  MISS:        818
cpu0_STLB LOAD      ACCESS:       3458  HIT:       2644  MISS:        814
cpu0_STLB RFO       ACCESS:         62  HIT:         58  MISS:          4
cpu0_STLB PREFETCH  ACCESS:          0  HIT:          0  MISS:          0
cpu0_STLB WRITEBACK ACCESS:          0  HIT:          0  MISS:          0
cpu0_L1D TOTAL     ACCESS:     230432  HIT:     201333  MISS:      29099
cpu0_L1D LOAD      ACCESS:     194881  HIT:     166059  MISS:      28822
cpu0_L1D RFO       ACCESS:      34766  HIT:      34500  MISS:        266
cpu0_L1D PREFETCH  ACCESS:          0  HIT:          0  MISS:          0
cpu0_L1D WRITEBACK ACCESS:          0  HIT:          0  MISS:          0
cpu0_L2C TOTAL     ACCESS:      29376  HIT:       6329  MISS:      23047
cpu0_L2C LOAD      ACCESS:      28822  HIT:       6041  MISS:      22781
cpu0_L2C RFO       ACCESS:        266  HIT:          0  MISS:        266
cpu0_L2C PREFETCH  ACCESS:          0  HIT:          0  MISS:          0
cpu0_L2C WRITEBACK ACCESS:        277  HIT:        277  MISS:          0
LLC TOTAL     ACCESS:      23435  HIT:       5024  MISS:      18411
LLC LOAD      ACCESS:      22781  HIT:       4501  MISS:      18280
LLC RFO       ACCESS:        266  HIT:        135  MISS:        131
LLC PREFETCH  ACCESS:          0  HIT:          0  MISS:          0
LLC WRITEBACK ACCESS:        388  HIT:        388  MISS:          0
Heartbeat CPU 0 instructions: 54000003 cycles: 17678668 heartbeat IPC: 0.972486 cumulative IPC: 0.85719 (Simulation time: 0 hr 30 min 33 sec) 

Region of Interest Statistics
cpu0_DTLB TOTAL     ACCESS:     723927  HIT:     717938  MISS:       5989
cpu0_DTLB LOAD      ACCESS:     679871  HIT:     674120  MISS:       5751
cpu0_DTLB RFO       ACCESS:      44056  HIT:      43818  MISS:        238
cpu0_DTLB PREFETCH  ACCESS:          0  HIT:          0  MISS:          0
cpu0_DTLB WRITEBACK ACCESS:          0  HIT:          0  MISS:          0
cpu0_ITLB TOTAL     ACCESS:     340680  HIT:     340680  MISS:          0
cpu0_ITLB LOAD      ACCESS:     340680  HIT:     340680  MISS:          0
cpu0_ITLB RFO       ACCESS:          0  HIT:          0  MISS:          0
cpu0_ITLB PREFETCH  ACCESS:          0  HIT:          0  MISS:          0
cpu0_ITLB WRITEBACK ACCESS:          0  HIT:          0  MISS:          0
cpu0_L1I TOTAL     ACCESS:       2041  HIT:       2041  MISS:          0
cpu0_L1I LOAD      ACCESS:       2041  HIT:       2041  MISS:          0
cpu0_L1I RFO       ACCESS:          0  HIT:          0  MISS:          0
cpu0_L1I PREFETCH  ACCESS:          0  HIT:          0  MISS:          0
cpu0_L1I WRITEBACK ACCESS:          0  HIT:          0  MISS:          0
cpu0_STLB TOTAL     ACCESS:       5989  HIT:       4334  MISS:       1655
cpu0_STLB LOAD      ACCESS:       5751  HIT:       4140  MISS:       1611
cpu0_STLB RFO       ACCESS:        238  HIT:        194  MISS:         44
cpu0_STLB PREFETCH  ACCESS:          0  HIT:          0  MISS:          0
cpu0_STLB WRITEBACK ACCESS:          0  HIT:          0  MISS:          0
cpu0_L1D TOTAL     ACCESS:     458931  HIT:     400074  MISS:      58857
cpu0_L1D LOAD      ACCESS:     392567  HIT:     337211  MISS:      55356
cpu0_L1D RFO       ACCESS:      64772  HIT:      61293  MISS:       3479
cpu0_L1D PREFETCH  ACCESS:          0  HIT:          0  MISS:          0
cpu0_L1D WRITEBACK ACCESS:          0  HIT:          0  MISS:          0
cpu0_L2C TOTAL     ACCESS:      63482  HIT:      16546  MISS:      46936
cpu0_L2C LOAD      ACCESS:      55355  HIT:      11429  MISS:      43926
cpu0_L2C RFO       ACCESS:       3478  HIT:        487  MISS:       2991
cpu0_L2C PREFETCH  ACCESS:          0  HIT:          0  MISS:          0
cpu0_L2C WRITEBACK ACCESS:       4627  HIT:       4613  MISS:         14
LLC TOTAL     ACCESS:      48719  HIT:      13391  MISS:      35328
LLC LOAD      ACCESS:      43926  HIT:      10411  MISS:      33515
LLC RFO       ACCESS:       2991  HIT:       1193  MISS:       1798
LLC PREFETCH  ACCESS:          0  HIT:          0  MISS:          0
LLC WRITEBACK ACCESS:       1797  HIT:       1783  MISS:         14
Heartbeat CPU 0 instructions: 56000004 cycles: 19648387 heartbeat IPC: 1.01537 cumulative IPC: 0.904142 (Simulation time: 0 hr 32 min 18 sec) 

Region of Interest Statistics
cpu0_DTLB TOTAL     ACCESS:    1055658  HIT:    1048528  MISS:       7130
cpu0_DTLB LOAD      ACCESS:     997400  HIT:     990563  MISS:       6837
cpu0_DTLB RFO       ACCESS:      58258  HIT:      57965  MISS:        293
cpu0_DTLB PREFETCH  ACCESS:          0  HIT:          0  MISS:          0
cpu0_DTLB WRITEBACK ACCESS:          0  HIT:          0  MISS:          0
cpu0_ITLB TOTAL     ACCESS:     523551  HIT:     523551  MISS:          0
cpu0_ITLB LOAD      ACCESS:     523551  HIT:     523551  MISS:          0
cpu0_ITLB RFO       ACCESS:          0  HIT:          0  MISS:          0
cpu0_ITLB PREFETCH  ACCESS:          0  HIT:          0  MISS:          0
cpu0_ITLB WRITEBACK ACCESS:          0  HIT:          0  MISS:          0
cpu0_L1I TOTAL     ACCESS:       2090  HIT:       2090  MISS:          0
cpu0_L1I LOAD      ACCESS:       2090  HIT:       2090  MISS:          0
cpu0_L1I RFO       ACCESS:          0  HIT:          0  MISS:          0
cpu0_L1I PREFETCH  ACCESS:          0  HIT:          0  MISS:          0
cpu0_L1I WRITEBACK ACCESS:          0  HIT:          0  MISS:          0
cpu0_STLB TOTAL     ACCESS:       7130  HIT:       4882  MISS:       2248
cpu0_STLB LOAD      ACCESS:       6837  HIT:       4634  MISS:       2203
cpu0_STLB RFO       ACCESS:        293  HIT:        248  MISS:         45
cpu0_STLB PREFETCH  ACCESS:          0  HIT:          0  MISS:          0
cpu0_STLB WRITEBACK ACCESS:          0  HIT:          0  MISS:          0
cpu0_L1D TOTAL     ACCESS:     674367  HIT:     588472  MISS:      85895
cpu0_L1D LOAD      ACCESS:     589465  HIT:     507853  MISS:      81612
cpu0_L1D RFO       ACCESS:      82744  HIT:      78486  MISS:       4258
cpu0_L1D PREFETCH  ACCESS:          0  HIT:          0  MISS:          0
cpu0_L1D WRITEBACK ACCESS:          0  HIT:          0  MISS:          0
cpu0_L2C TOTAL     ACCESS:      91330  HIT:      18242  MISS:      73088
cpu0_L2C LOAD      ACCESS:      81611  HIT:      12316  MISS:      69295
cpu0_L2C RFO       ACCESS:       4257  HIT:        487  MISS:       3770
cpu0_L2C PREFETCH  ACCESS:          0  HIT:          0  MISS:          0
cpu0_L2C WRITEBACK ACCESS:       5437  HIT:       5422  MISS:         15
LLC TOTAL     ACCESS:      77784  HIT:      23651  MISS:      54133
LLC LOAD      ACCESS:      69295  HIT:      17027  MISS:      52268
LLC RFO       ACCESS:       3770  HIT:       1924  MISS:       1846
LLC PREFETCH  ACCESS:          0  HIT:          0  MISS:          0
LLC WRITEBACK ACCESS:       4711  HIT:       4693  MISS:         18
Heartbeat CPU 0 instructions: 58000003 cycles: 21939947 heartbeat IPC: 0.872767 cumulative IPC: 0.896088 (Simulation time: 0 hr 34 min 7 sec) 

Region of Interest Statistics
cpu0_DTLB TOTAL     ACCESS:    1421923  HIT:    1411018  MISS:      10905
cpu0_DTLB LOAD      ACCESS:    1342790  HIT:    1332254  MISS:      10536
cpu0_DTLB RFO       ACCESS:      79133  HIT:      78764  MISS:        369
cpu0_DTLB PREFETCH  ACCESS:          0  HIT:          0  MISS:          0
cpu0_DTLB WRITEBACK ACCESS:          0  HIT:          0  MISS:          0
cpu0_ITLB TOTAL     ACCESS:     689814  HIT:     689814  MISS:          0
cpu0_ITLB LOAD      ACCESS:     689814  HIT:     689814  MISS:          0
cpu0_ITLB RFO       ACCESS:          0  HIT:          0  MISS:          0
cpu0_ITLB PREFETCH  ACCESS:          0  HIT:          0  MISS:          0
cpu0_ITLB WRITEBACK ACCESS:          0  HIT:          0  MISS:          0
cpu0_L1I TOTAL     ACCESS:       2090  HIT:       2090  MISS:          0
cpu0_L1I LOAD      ACCESS:       2090  HIT:       2090  MISS:          0
cpu0_L1I RFO       ACCESS:          0  HIT:          0  MISS:          0
cpu0_L1I PREFETCH  ACCESS:          0  HIT:          0  MISS:          0
cpu0_L1I WRITEBACK ACCESS:          0  HIT:          0  MISS:          0
cpu0_STLB TOTAL     ACCESS:      10905  HIT:       7767  MISS:       3138
cpu0_STLB LOAD      ACCESS:      10536  HIT:       7448  MISS:       3088
cpu0_STLB RFO       ACCESS:        369  HIT:        319  MISS:         50
cpu0_STLB PREFETCH  ACCESS:          0  HIT:          0  MISS:          0
cpu0_STLB WRITEBACK ACCESS:          0  HIT:          0  MISS:          0
cpu0_L1D TOTAL     ACCESS:     912510  HIT:     797534  MISS:     114976
cpu0_L1D LOAD      ACCESS:     792535  HIT:     682162  MISS:     110373
cpu0_L1D RFO       ACCESS:     116969  HIT:     112401  MISS:       4568
cpu0_L1D PREFETCH  ACCESS:          0  HIT:          0  MISS:          0
cpu0_L1D WRITEBACK ACCESS:          0  HIT:          0  MISS:          0
cpu0_L2C TOTAL     ACCESS:     120721  HIT:      24598  MISS:      96123
cpu0_L2C LOAD      ACCESS:     110372  HIT:      18352  MISS:      92020
cpu0_L2C RFO       ACCESS:       4567  HIT:        487  MISS:       4080
cpu0_L2C PREFETCH  ACCESS:          0  HIT:          0  MISS:          0
cpu0_L2C WRITEBACK ACCESS:       5747  HIT:       5732  MISS:         15
LLC TOTAL     ACCESS:     101284  HIT:      31810  MISS:      69474
LLC LOAD      ACCESS:      92020  HIT:      24568  MISS:      67452
LLC RFO       ACCESS:       4080  HIT:       2077  MISS:       2003
LLC PREFETCH  ACCESS:          0  HIT:          0  MISS:          0
LLC WRITEBACK ACCESS:       5176  HIT:       5158  MISS:         18
Heartbeat CPU 0 instructions: 60000004 cycles: 23909106 heartbeat IPC: 1.01566 cumulative IPC: 0.917697 (Simulation time: 0 hr 35 min 52 sec) 

Region of Interest Statistics
cpu0_DTLB TOTAL     ACCESS:    1783021  HIT:    1769452  MISS:      13569
cpu0_DTLB LOAD      ACCESS:    1680170  HIT:    1667139  MISS:      13031
cpu0_DTLB RFO       ACCESS:     102851  HIT:     102313  MISS:        538
cpu0_DTLB PREFETCH  ACCESS:          0  HIT:          0  MISS:          0
cpu0_DTLB WRITEBACK ACCESS:          0  HIT:          0  MISS:          0
cpu0_ITLB TOTAL     ACCESS:     861641  HIT:     861641  MISS:          0
cpu0_ITLB LOAD      ACCESS:     861641  HIT:     861641  MISS:          0
cpu0_ITLB RFO       ACCESS:          0  HIT:          0  MISS:          0
cpu0_ITLB PREFETCH  ACCESS:          0  HIT:          0  MISS:          0
cpu0_ITLB WRITEBACK ACCESS:          0  HIT:          0  MISS:          0
cpu0_L1I TOTAL     ACCESS:       4006  HIT:       4006  MISS:          0
cpu0_L1I LOAD      ACCESS:       4006  HIT:       4006  MISS:          0
cpu0_L1I RFO       ACCESS:          0  HIT:          0  MISS:          0
cpu0_L1I PREFETCH  ACCESS:          0  HIT:          0  MISS:          0
cpu0_L1I WRITEBACK ACCESS:          0  HIT:          0  MISS:          0
cpu0_STLB TOTAL     ACCESS:      13569  HIT:       9568  MISS:       4001
cpu0_STLB LOAD      ACCESS:      13031  HIT:       9122  MISS:       3909
cpu0_STLB RFO       ACCESS:        538  HIT:        446  MISS:         92
cpu0_STLB PREFETCH  ACCESS:          0  HIT:          0  MISS:          0
cpu0_STLB WRITEBACK ACCESS:          0  HIT:          0  MISS:          0
cpu0_L1D TOTAL     ACCESS:    1147500  HIT:    1002742  MISS:     144758
cpu0_L1D LOAD      ACCESS:     994809  HIT:     857674  MISS:     137135
cpu0_L1D RFO       ACCESS:     148853  HIT:     141279  MISS:       7574
cpu0_L1D PREFETCH  ACCESS:          0  HIT:          0  MISS:          0
cpu0_L1D WRITEBACK ACCESS:          0  HIT:          0  MISS:          0
cpu0_L2C TOTAL     ACCESS:     154311  HIT:      34807  MISS:     119504
cpu0_L2C LOAD      ACCESS:     137134  HIT:      24402  MISS:     112732
cpu0_L2C RFO       ACCESS:       7573  HIT:        843  MISS:       6730
cpu0_L2C PREFETCH  ACCESS:          0  HIT:          0  MISS:          0
cpu0_L2C WRITEBACK ACCESS:       9555  HIT:       9526  MISS:         29
LLC TOTAL     ACCESS:     125483  HIT:      41621  MISS:      83862
LLC LOAD      ACCESS:     112732  HIT:      32337  MISS:      80395
LLC RFO       ACCESS:       6730  HIT:       3283  MISS:       3447
LLC PREFETCH  ACCESS:          0  HIT:          0  MISS:          0
LLC WRITEBACK ACCESS:       6008  HIT:       5990  MISS:         18
Heartbeat CPU 0 instructions: 62000004 cycles: 25670792 heartbeat IPC: 1.13528 cumulative IPC: 0.947977 (Simulation time: 0 hr 37 min 36 sec) 

Region of Interest Statistics
cpu0_DTLB TOTAL     ACCESS:    2108392  HIT:    2094068  MISS:      14324
cpu0_DTLB LOAD      ACCESS:    1992982  HIT:    1979216  MISS:      13766
cpu0_DTLB RFO       ACCESS:     115410  HIT:     114852  MISS:        558
cpu0_DTLB PREFETCH  ACCESS:          0  HIT:          0  MISS:          0
cpu0_DTLB WRITEBACK ACCESS:          0  HIT:          0  MISS:          0
cpu0_ITLB TOTAL     ACCESS:    1047793  HIT:    1047793  MISS:          0
cpu0_ITLB LOAD      ACCESS:    1047793  HIT:    1047793  MISS:          0
cpu0_ITLB RFO       ACCESS:          0  HIT:          0  MISS:          0
cpu0_ITLB PREFETCH  ACCESS:          0  HIT:          0  MISS:          0
cpu0_ITLB WRITEBACK ACCESS:          0  HIT:          0  MISS:          0
cpu0_L1I TOTAL     ACCESS:       4054  HIT:       4054  MISS:          0
cpu0_L1I LOAD      ACCESS:       4054  HIT:       4054  MISS:          0
cpu0_L1I RFO       ACCESS:          0  HIT:          0  MISS:          0
cpu0_L1I PREFETCH  ACCESS:          0  HIT:          0  MISS:          0
cpu0_L1I WRITEBACK ACCESS:          0  HIT:          0  MISS:          0
cpu0_STLB TOTAL     ACCESS:      14324  HIT:       9854  MISS:       4470
cpu0_STLB LOAD      ACCESS:      13766  HIT:       9389  MISS:       4377
cpu0_STLB RFO       ACCESS:        558  HIT:        465  MISS:         93
cpu0_STLB PREFETCH  ACCESS:          0  HIT:          0  MISS:          0
cpu0_STLB WRITEBACK ACCESS:          0  HIT:          0  MISS:          0
cpu0_L1D TOTAL     ACCESS:    1360943  HIT:    1189827  MISS:     171116
cpu0_L1D LOAD      ACCESS:    1193045  HIT:    1030380  MISS:     162665
cpu0_L1D RFO       ACCESS:     163612  HIT:     155212  MISS:       8400
cpu0_L1D PREFETCH  ACCESS:          0  HIT:          0  MISS:          0
cpu0_L1D WRITEBACK ACCESS:          0  HIT:          0  MISS:          0
cpu0_L2C TOTAL     ACCESS:     181575  HIT:      35917  MISS:     145658
cpu0_L2C LOAD      ACCESS:     162664  HIT:      24601  MISS:     138063
cpu0_L2C RFO       ACCESS:       8399  HIT:        849  MISS:       7550
cpu0_L2C PREFETCH  ACCESS:          0  HIT:          0  MISS:          0
cpu0_L2C WRITEBACK ACCESS:      10461  HIT:      10431  MISS:         30
LLC TOTAL     ACCESS:     154956  HIT:      53882  MISS:     101074
LLC LOAD      ACCESS:     138063  HIT:      40524  MISS:      97539
LLC RFO       ACCESS:       7550  HIT:       4094  MISS:       3456
LLC PREFETCH  ACCESS:          0  HIT:          0  MISS:          0
LLC WRITEBACK ACCESS:       9328  HIT:       9251  MISS:         77
Heartbeat CPU 0 instructions: 64000000 cycles: 27814863 heartbeat IPC: 0.932803 cumulative IPC: 0.945779 (Simulation time: 0 hr 39 min 27 sec) 

Region of Interest Statistics
cpu0_DTLB TOTAL     ACCESS:    2474122  HIT:    2456024  MISS:      18098
cpu0_DTLB LOAD      ACCESS:    2337474  HIT:    2320038  MISS:      17436
cpu0_DTLB RFO       ACCESS:     136648  HIT:     135986  MISS:        662
cpu0_DTLB PREFETCH  ACCESS:          0  HIT:          0  MISS:          0
cpu0_DTLB WRITEBACK ACCESS:          0  HIT:          0  MISS:          0
cpu0_ITLB TOTAL     ACCESS:    1212874  HIT:    1212874  MISS:          0
cpu0_ITLB LOAD      ACCESS:    1212874  HIT:    1212874  MISS:          0
cpu0_ITLB RFO       ACCESS:          0  HIT:          0  MISS:          0
cpu0_ITLB PREFETCH  ACCESS:          0  HIT:          0  MISS:          0
cpu0_ITLB WRITEBACK ACCESS:          0  HIT:          0  MISS:          0
cpu0_L1I TOTAL     ACCESS:       4054  HIT:       4054  MISS:          0
cpu0_L1I LOAD      ACCESS:       4054  HIT:       4054  MISS:          0
cpu0_L1I RFO       ACCESS:          0  HIT:          0  MISS:          0
cpu0_L1I PREFETCH  ACCESS:          0  HIT:          0  MISS:          0
cpu0_L1I WRITEBACK ACCESS:          0  HIT:          0  MISS:          0
cpu0_STLB TOTAL     ACCESS:      18098  HIT:      12718  MISS:       5380
cpu0_STLB LOAD      ACCESS:      17436  HIT:      12153  MISS:       5283
cpu0_STLB RFO       ACCESS:        662  HIT:        565  MISS:         97
cpu0_STLB PREFETCH  ACCESS:          0  HIT:          0  MISS:          0
cpu0_STLB WRITEBACK ACCESS:          0  HIT:          0  MISS:          0
cpu0_L1D TOTAL     ACCESS:    1596946  HIT:    1397146  MISS:     199800
cpu0_L1D LOAD      ACCESS:    1394355  HIT:    1203374  MISS:     190981
cpu0_L1D RFO       ACCESS:     197451  HIT:     188694  MISS:       8757
cpu0_L1D PREFETCH  ACCESS:          0  HIT:          0  MISS:          0
cpu0_L1D WRITEBACK ACCESS:          0  HIT:          0  MISS:          0
cpu0_L2C TOTAL     ACCESS:     210607  HIT:      41982  MISS:     168625
cpu0_L2C LOAD      ACCESS:     190980  HIT:      30308  MISS:     160672
cpu0_L2C RFO       ACCESS:       8756  HIT:        849  MISS:       7907
cpu0_L2C PREFETCH  ACCESS:          0  HIT:          0  MISS:          0
cpu0_L2C WRITEBACK ACCESS:      10809  HIT:      10779  MISS:         30
LLC TOTAL     ACCESS:     178336  HIT:      63447  MISS:     114889
LLC LOAD      ACCESS:     160672  HIT:      49489  MISS:     111183
LLC RFO       ACCESS:       7907  HIT:       4280  MISS:       3627
LLC PREFETCH  ACCESS:          0  HIT:          0  MISS:          0
LLC WRITEBACK ACCESS:       9741  HIT:       9664  MISS:         77
Heartbeat CPU 0 instructions: 66000001 cycles: 29475914 heartbeat IPC: 1.20406 cumulative IPC: 0.971837 (Simulation time: 0 hr 41 min 5 sec) 

Region of Interest Statistics
cpu0_DTLB TOTAL     ACCESS:    2828054  HIT:    2807522  MISS:      20532
cpu0_DTLB LOAD      ACCESS:    2669040  HIT:    2649332  MISS:      19708
cpu0_DTLB RFO       ACCESS:     159014  HIT:     158190  MISS:        824
cpu0_DTLB PREFETCH  ACCESS:          0  HIT:          0  MISS:          0
cpu0_DTLB WRITEBACK ACCESS:          0  HIT:          0  MISS:          0
cpu0_ITLB TOTAL     ACCESS:    1387978  HIT:    1387978  MISS:          0
cpu0_ITLB LOAD      ACCESS:    1387978  HIT:    1387978  MISS:          0
cpu0_ITLB RFO       ACCESS:          0  HIT:          0  MISS:          0
cpu0_ITLB PREFETCH  ACCESS:          0  HIT:          0  MISS:          0
cpu0_ITLB WRITEBACK ACCESS:          0  HIT:          0  MISS:          0
cpu0_L1I TOTAL     ACCESS:       6499  HIT:       6499  MISS:          0
cpu0_L1I LOAD      ACCESS:       6499  HIT:       6499  MISS:          0
cpu0_L1I RFO       ACCESS:          0  HIT:          0  MISS:          0
cpu0_L1I PREFETCH  ACCESS:          0  HIT:          0  MISS:          0
cpu0_L1I WRITEBACK ACCESS:          0  HIT:          0  MISS:          0
cpu0_STLB TOTAL     ACCESS:      20532  HIT:      14364  MISS:       6168
cpu0_STLB LOAD      ACCESS:      19708  HIT:      13677  MISS:       6031
cpu0_STLB RFO       ACCESS:        824  HIT:        687  MISS:        137
cpu0_STLB PREFETCH  ACCESS:          0  HIT:          0  MISS:          0
cpu0_STLB WRITEBACK ACCESS:          0  HIT:          0  MISS:          0
cpu0_L1D TOTAL     ACCESS:    1829826  HIT:    1600973  MISS:     228853
cpu0_L1D LOAD      ACCESS:    1597300  HIT:    1380347  MISS:     216953
cpu0_L1D RFO       ACCESS:     226628  HIT:     214801  MISS:      11827
cpu0_L1D PREFETCH  ACCESS:          0  HIT:          0  MISS:          0
cpu0_L1D WRITEBACK ACCESS:          0  HIT:          0  MISS:          0
cpu0_L2C TOTAL     ACCESS:     243472  HIT:      51273  MISS:     192199
cpu0_L2C LOAD      ACCESS:     216952  HIT:      35458  MISS:     181494
cpu0_L2C RFO       ACCESS:      11826  HIT:       1187  MISS:      10639
cpu0_L2C PREFETCH  ACCESS:          0  HIT:          0  MISS:          0
cpu0_L2C WRITEBACK ACCESS:      14621  HIT:      14577  MISS:         44
LLC TOTAL     ACCESS:     202998  HIT:      76750  MISS:     126248
LLC LOAD      ACCESS:     181494  HIT:      59892  MISS:     121602
LLC RFO       ACCESS:      10639  HIT:       6073  MISS:       4566
LLC PREFETCH  ACCESS:          0  HIT:          0  MISS:          0
LLC WRITEBACK ACCESS:      10843  HIT:      10766  MISS:         77
Heartbeat CPU 0 instructions: 68000000 cycles: 31041198 heartbeat IPC: 1.27772 cumulative IPC: 0.998395 (Simulation time: 0 hr 42 min 40 sec) 

Region of Interest Statistics
cpu0_DTLB TOTAL     ACCESS:    3158320  HIT:    3136672  MISS:      21648
cpu0_DTLB LOAD      ACCESS:    2985855  HIT:    2965080  MISS:      20775
cpu0_DTLB RFO       ACCESS:     172465  HIT:     171592  MISS:        873
cpu0_DTLB PREFETCH  ACCESS:          0  HIT:          0  MISS:          0
cpu0_DTLB WRITEBACK ACCESS:          0  HIT:          0  MISS:          0
cpu0_ITLB TOTAL     ACCESS:    1571571  HIT:    1571571  MISS:          0
cpu0_ITLB LOAD      ACCESS:    1571571  HIT:    1571571  MISS:          0
cpu0_ITLB RFO       ACCESS:          0  HIT:          0  MISS:          0
cpu0_ITLB PREFETCH  ACCESS:          0  HIT:          0  MISS:          0
cpu0_ITLB WRITEBACK ACCESS:          0  HIT:          0  MISS:          0
cpu0_L1I TOTAL     ACCESS:       6547  HIT:       6547  MISS:          0
cpu0_L1I LOAD      ACCESS:       6547  HIT:       6547  MISS:          0
cpu0_L1I RFO       ACCESS:          0  HIT:          0  MISS:          0
cpu0_L1I PREFETCH  ACCESS:          0  HIT:          0  MISS:          0
cpu0_L1I WRITEBACK ACCESS:          0  HIT:          0  MISS:          0
cpu0_STLB TOTAL     ACCESS:      21648  HIT:      14911  MISS:       6737
cpu0_STLB LOAD      ACCESS:      20775  HIT:      14176  MISS:       6599
cpu0_STLB RFO       ACCESS:        873  HIT:        735  MISS:        138
cpu0_STLB PREFETCH  ACCESS:          0  HIT:          0  MISS:          0
cpu0_STLB WRITEBACK ACCESS:          0  HIT:          0  MISS:          0
cpu0_L1D TOTAL     ACCESS:    2053623  HIT:    1797990  MISS:     255633
cpu0_L1D LOAD      ACCESS:    1803118  HIT:    1560172  MISS:     242946
cpu0_L1D RFO       ACCESS:     244068  HIT:     231456  MISS:      12612
cpu0_L1D PREFETCH  ACCESS:          0  HIT:          0  MISS:          0
cpu0_L1D WRITEBACK ACCESS:          0  HIT:          0  MISS:          0
cpu0_L2C TOTAL     ACCESS:     271066  HIT:      52849  MISS:     218217
cpu0_L2C LOAD      ACCESS:     242945  HIT:      36221  MISS:     206724
cpu0_L2C RFO       ACCESS:      12611  HIT:       1187  MISS:      11424
cpu0_L2C PREFETCH  ACCESS:          0  HIT:          0  MISS:          0
cpu0_L2C WRITEBACK ACCESS:      15435  HIT:      15390  MISS:         45
LLC TOTAL     ACCESS:     232060  HIT:      92971  MISS:     139089
LLC LOAD      ACCESS:     206724  HIT:      72321  MISS:     134403
LLC RFO       ACCESS:      11424  HIT:       6822  MISS:       4602
LLC PREFETCH  ACCESS:          0  HIT:          0  MISS:          0
LLC WRITEBACK ACCESS:      13888  HIT:      13807  MISS:         81
Heartbeat CPU 0 instructions: 70000000 cycles: 32921175 heartbeat IPC: 1.06384 cumulative IPC: 1.00457 (Simulation time: 0 hr 44 min 18 sec) 

Region of Interest Statistics
cpu0_DTLB TOTAL     ACCESS:    3524576  HIT:    3499394  MISS:      25182
cpu0_DTLB LOAD      ACCESS:    3331032  HIT:    3306785  MISS:      24247
cpu0_DTLB RFO       ACCESS:     193544  HIT:     192609  MISS:        935
cpu0_DTLB PREFETCH  ACCESS:          0  HIT:          0  MISS:          0
cpu0_DTLB WRITEBACK ACCESS:          0  HIT:          0  MISS:          0
cpu0_ITLB TOTAL     ACCESS:    1737242  HIT:    1737242  MISS:          0
cpu0_ITLB LOAD      ACCESS:    1737242  HIT:    1737242  MISS:          0
cpu0_ITLB RFO       ACCESS:          0  HIT:          0  MISS:          0
cpu0_ITLB PREFETCH  ACCESS:          0  HIT:          0  MISS:          0
cpu0_ITLB WRITEBACK ACCESS:          0  HIT:          0  MISS:          0
cpu0_L1I TOTAL     ACCESS:       6547  HIT:       6547  MISS:          0
cpu0_L1I LOAD      ACCESS:       6547  HIT:       6547  MISS:          0
cpu0_L1I RFO       ACCESS:          0  HIT:          0  MISS:          0
cpu0_L1I PREFETCH  ACCESS:          0  HIT:          0  MISS:          0
cpu0_L1I WRITEBACK ACCESS:          0  HIT:          0  MISS:          0
cpu0_STLB TOTAL     ACCESS:      25182  HIT:      17594  MISS:       7588
cpu0_STLB LOAD      ACCESS:      24247  HIT:      16801  MISS:       7446
cpu0_STLB RFO       ACCESS:        935  HIT:        793  MISS:        142
cpu0_STLB PREFETCH  ACCESS:          0  HIT:          0  MISS:          0
cpu0_STLB WRITEBACK ACCESS:          0  HIT:          0  MISS:          0
cpu0_L1D TOTAL     ACCESS:    2294702  HIT:    2010431  MISS:     284271
cpu0_L1D LOAD      ACCESS:    2009315  HIT:    1738072  MISS:     271243
cpu0_L1D RFO       ACCESS:     278146  HIT:     265203  MISS:      12943
cpu0_L1D PREFETCH  ACCESS:          0  HIT:          0  MISS:          0
cpu0_L1D WRITEBACK ACCESS:          0  HIT:          0  MISS:          0
cpu0_L2C TOTAL     ACCESS:     300037  HIT:      59101  MISS:     240936
cpu0_L2C LOAD      ACCESS:     271242  HIT:      42131  MISS:     229111
cpu0_L2C RFO       ACCESS:      12942  HIT:       1187  MISS:      11755
cpu0_L2C PREFETCH  ACCESS:          0  HIT:          0  MISS:          0
cpu0_L2C WRITEBACK ACCESS:      15768  HIT:      15723  MISS:         45
LLC TOTAL     ACCESS:     255237  HIT:     105063  MISS:     150174
LLC LOAD      ACCESS:     229111  HIT:      83748  MISS:     145363
LLC RFO       ACCESS:      11755  HIT:       7028  MISS:       4727
LLC PREFETCH  ACCESS:          0  HIT:          0  MISS:          0
LLC WRITEBACK ACCESS:      14346  HIT:      14265  MISS:         81
Heartbeat CPU 0 instructions: 72000002 cycles: 34393008 heartbeat IPC: 1.35885 cumulative IPC: 1.02896 (Simulation time: 0 hr 45 min 44 sec) 

Region of Interest Statistics
cpu0_DTLB TOTAL     ACCESS:    3869817  HIT:    3842603  MISS:      27214
cpu0_DTLB LOAD      ACCESS:    3655871  HIT:    3629755  MISS:      26116
cpu0_DTLB RFO       ACCESS:     213946  HIT:     212848  MISS:       1098
cpu0_DTLB PREFETCH  ACCESS:          0  HIT:          0  MISS:          0
cpu0_DTLB WRITEBACK ACCESS:          0  HIT:          0  MISS:          0
cpu0_ITLB TOTAL     ACCESS:    1916868  HIT:    1916868  MISS:          0
cpu0_ITLB LOAD      ACCESS:    1916868  HIT:    1916868  MISS:          0
cpu0_ITLB RFO       ACCESS:          0  HIT:          0  MISS:          0
cpu0_ITLB PREFETCH  ACCESS:          0  HIT:          0  MISS:          0
cpu0_ITLB WRITEBACK ACCESS:          0  HIT:          0  MISS:          0
cpu0_L1I TOTAL     ACCESS:       9098  HIT:       9098  MISS:          0
cpu0_L1I LOAD      ACCESS:       9098  HIT:       9098  MISS:          0
cpu0_L1I RFO       ACCESS:          0  HIT:          0  MISS:          0
cpu0_L1I PREFETCH  ACCESS:          0  HIT:          0  MISS:          0
cpu0_L1I WRITEBACK ACCESS:          0  HIT:          0  MISS:          0
cpu0_STLB TOTAL     ACCESS:      27214  HIT:      18897  MISS:       8317
cpu0_STLB LOAD      ACCESS:      26116  HIT:      17981  MISS:       8135
cpu0_STLB RFO       ACCESS:       1098  HIT:        916  MISS:        182
cpu0_STLB PREFETCH  ACCESS:          0  HIT:          0  MISS:          0
cpu0_STLB WRITEBACK ACCESS:          0  HIT:          0  MISS:          0
cpu0_L1D TOTAL     ACCESS:    2525702  HIT:    2213134  MISS:     312568
cpu0_L1D LOAD      ACCESS:    2215120  HIT:    1918781  MISS:     296339
cpu0_L1D RFO       ACCESS:     302650  HIT:     286517  MISS:      16133
cpu0_L1D PREFETCH  ACCESS:          0  HIT:          0  MISS:          0
cpu0_L1D WRITEBACK ACCESS:          0  HIT:          0  MISS:          0
cpu0_L2C TOTAL     ACCESS:     332270  HIT:      67122  MISS:     265148
cpu0_L2C LOAD      ACCESS:     296338  HIT:      45902  MISS:     250436
cpu0_L2C RFO       ACCESS:      16132  HIT:       1510  MISS:      14622
cpu0_L2C PREFETCH  ACCESS:          0  HIT:          0  MISS:          0
cpu0_L2C WRITEBACK ACCESS:      19704  HIT:      19644  MISS:         60
LLC TOTAL     ACCESS:     282402  HIT:     121842  MISS:     160560
LLC LOAD      ACCESS:     250436  HIT:      95559  MISS:     154877
LLC RFO       ACCESS:      14622  HIT:       9030  MISS:       5592
LLC PREFETCH  ACCESS:          0  HIT:          0  MISS:          0
LLC WRITEBACK ACCESS:      17314  HIT:      17227  MISS:         87
Heartbeat CPU 0 instructions: 74000003 cycles: 36029267 heartbeat IPC: 1.2223 cumulative IPC: 1.04271 (Simulation time: 0 hr 47 min 21 sec) 

Region of Interest Statistics
cpu0_DTLB TOTAL     ACCESS:    4209075  HIT:    4180234  MISS:      28841
cpu0_DTLB LOAD      ACCESS:    3979480  HIT:    3951816  MISS:      27664
cpu0_DTLB RFO       ACCESS:     229595  HIT:     228418  MISS:       1177
cpu0_DTLB PREFETCH  ACCESS:          0  HIT:          0  MISS:          0
cpu0_DTLB WRITEBACK ACCESS:          0  HIT:          0  MISS:          0
cpu0_ITLB TOTAL     ACCESS:    2095815  HIT:    2095815  MISS:          0
cpu0_ITLB LOAD      ACCESS:    2095815  HIT:    2095815  MISS:          0
cpu0_ITLB RFO       ACCESS:          0  HIT:          0  MISS:          0
cpu0_ITLB PREFETCH  ACCESS:          0  HIT:          0  MISS:          0
cpu0_ITLB WRITEBACK ACCESS:          0  HIT:          0  MISS:          0
cpu0_L1I TOTAL     ACCESS:       9131  HIT:       9131  MISS:          0
cpu0_L1I LOAD      ACCESS:       9131  HIT:       9131  MISS:          0
cpu0_L1I RFO       ACCESS:          0  HIT:          0  MISS:          0
cpu0_L1I PREFETCH  ACCESS:          0  HIT:          0  MISS:          0
cpu0_L1I WRITEBACK ACCESS:          0  HIT:          0  MISS:          0
cpu0_STLB TOTAL     ACCESS:      28841  HIT:      19834  MISS:       9007
cpu0_STLB LOAD      ACCESS:      27664  HIT:      18841  MISS:       8823
cpu0_STLB RFO       ACCESS:       1177  HIT:        993  MISS:        184
cpu0_STLB PREFETCH  ACCESS:          0  HIT:          0  MISS:          0
cpu0_STLB WRITEBACK ACCESS:          0  HIT:          0  MISS:          0
cpu0_L1D TOTAL     ACCESS:    2754509  HIT:    2414561  MISS:     339948
cpu0_L1D LOAD      ACCESS:    2421414  HIT:    2098410  MISS:     323004
cpu0_L1D RFO       ACCESS:     324511  HIT:     307669  MISS:      16842
cpu0_L1D PREFETCH  ACCESS:          0  HIT:          0  MISS:          0
cpu0_L1D WRITEBACK ACCESS:          0  HIT:          0  MISS:          0
cpu0_L2C TOTAL     ACCESS:     360367  HIT:      69778  MISS:     290589
cpu0_L2C LOAD      ACCESS:     323003  HIT:      47839  MISS:     275164
cpu0_L2C RFO       ACCESS:      16841  HIT:       1510  MISS:      15331
cpu0_L2C PREFETCH  ACCESS:          0  HIT:          0  MISS:          0
cpu0_L2C WRITEBACK ACCESS:      20421  HIT:      20360  MISS:         61
LLC TOTAL     ACCESS:     309093  HIT:     136534  MISS:     172559
LLC LOAD      ACCESS:     275164  HIT:     108350  MISS:     166814
LLC RFO       ACCESS:      15331  HIT:       9678  MISS:       5653
LLC PREFETCH  ACCESS:          0  HIT:          0  MISS:          0
LLC WRITEBACK ACCESS:      18565  HIT:      18477  MISS:         88
Heartbeat CPU 0 instructions: 76000002 cycles: 37794165 heartbeat IPC: 1.13321 cumulative IPC: 1.04915 (Simulation time: 0 hr 48 min 56 sec) 

Region of Interest Statistics
cpu0_DTLB TOTAL     ACCESS:    4578972  HIT:    4546701  MISS:      32271
cpu0_DTLB LOAD      ACCESS:    4328294  HIT:    4297261  MISS:      31033
cpu0_DTLB RFO       ACCESS:     250678  HIT:     249440  MISS:       1238
cpu0_DTLB PREFETCH  ACCESS:          0  HIT:          0  MISS:          0
cpu0_DTLB WRITEBACK ACCESS:          0  HIT:          0  MISS:          0
cpu0_ITLB TOTAL     ACCESS:    2266287  HIT:    2266287  MISS:          0
cpu0_ITLB LOAD      ACCESS:    2266287  HIT:    2266287  MISS:          0
cpu0_ITLB RFO       ACCESS:          0  HIT:          0  MISS:          0
cpu0_ITLB PREFETCH  ACCESS:          0  HIT:          0  MISS:          0
cpu0_ITLB WRITEBACK ACCESS:          0  HIT:          0  MISS:          0
cpu0_L1I TOTAL     ACCESS:       9131  HIT:       9131  MISS:          0
cpu0_L1I LOAD      ACCESS:       9131  HIT:       9131  MISS:          0
cpu0_L1I RFO       ACCESS:          0  HIT:          0  MISS:          0
cpu0_L1I PREFETCH  ACCESS:          0  HIT:          0  MISS:          0
cpu0_L1I WRITEBACK ACCESS:          0  HIT:          0  MISS:          0
cpu0_STLB TOTAL     ACCESS:      32271  HIT:      22384  MISS:       9887
cpu0_STLB LOAD      ACCESS:      31033  HIT:      21335  MISS:       9698
cpu0_STLB RFO       ACCESS:       1238  HIT:       1049  MISS:        189
cpu0_STLB PREFETCH  ACCESS:          0  HIT:          0  MISS:          0
cpu0_STLB WRITEBACK ACCESS:          0  HIT:          0  MISS:          0
cpu0_L1D TOTAL     ACCESS:    2995545  HIT:    2627519  MISS:     368026
cpu0_L1D LOAD      ACCESS:    2628046  HIT:    2277355  MISS:     350691
cpu0_L1D RFO       ACCESS:     358091  HIT:     340866  MISS:      17225
cpu0_L1D PREFETCH  ACCESS:          0  HIT:          0  MISS:          0
cpu0_L1D WRITEBACK ACCESS:          0  HIT:          0  MISS:          0
cpu0_L2C TOTAL     ACCESS:     388877  HIT:      75903  MISS:     312974
cpu0_L2C LOAD      ACCESS:     350690  HIT:      53533  MISS:     297157
cpu0_L2C RFO       ACCESS:      17224  HIT:       1510  MISS:      15714
cpu0_L2C PREFETCH  ACCESS:          0  HIT:          0  MISS:          0
cpu0_L2C WRITEBACK ACCESS:      20853  HIT:      20783  MISS:         70
LLC TOTAL     ACCESS:     331906  HIT:     149447  MISS:     182459
LLC LOAD      ACCESS:     297157  HIT:     120576  MISS:     176581
LLC RFO       ACCESS:      15714  HIT:       9928  MISS:       5786
LLC PREFETCH  ACCESS:          0  HIT:          0  MISS:          0
LLC WRITEBACK ACCESS:      19002  HIT:      18914  MISS:         88
Heartbeat CPU 0 instructions: 78000002 cycles: 39180779 heartbeat IPC: 1.44236 cumulative IPC: 1.06999 (Simulation time: 0 hr 50 min 28 sec) 

Region of Interest Statistics
cpu0_DTLB TOTAL     ACCESS:    4909204  HIT:    4875483  MISS:      33721
cpu0_DTLB LOAD      ACCESS:    4640245  HIT:    4607936  MISS:      32309
cpu0_DTLB RFO       ACCESS:     268959  HIT:     267547  MISS:       1412
cpu0_DTLB PREFETCH  ACCESS:          0  HIT:          0  MISS:          0
cpu0_DTLB WRITEBACK ACCESS:          0  HIT:          0  MISS:          0
cpu0_ITLB TOTAL     ACCESS:    2446491  HIT:    2446491  MISS:          0
cpu0_ITLB LOAD      ACCESS:    2446491  HIT:    2446491  MISS:          0
cpu0_ITLB RFO       ACCESS:          0  HIT:          0  MISS:          0
cpu0_ITLB PREFETCH  ACCESS:          0  HIT:          0  MISS:          0
cpu0_ITLB WRITEBACK ACCESS:          0  HIT:          0  MISS:          0
cpu0_L1I TOTAL     ACCESS:      12191  HIT:      12191  MISS:          0
cpu0_L1I LOAD      ACCESS:      12191  HIT:      12191  MISS:          0
cpu0_L1I RFO       ACCESS:          0  HIT:          0  MISS:          0
cpu0_L1I PREFETCH  ACCESS:          0  HIT:          0  MISS:          0
cpu0_L1I WRITEBACK ACCESS:          0  HIT:          0  MISS:          0
cpu0_STLB TOTAL     ACCESS:      33721  HIT:      23280  MISS:      10441
cpu0_STLB LOAD      ACCESS:      32309  HIT:      22094  MISS:      10215
cpu0_STLB RFO       ACCESS:       1412  HIT:       1186  MISS:        226
cpu0_STLB PREFETCH  ACCESS:          0  HIT:          0  MISS:          0
cpu0_STLB WRITEBACK ACCESS:          0  HIT:          0  MISS:          0
cpu0_L1D TOTAL     ACCESS:    3221829  HIT:    2825389  MISS:     396440
cpu0_L1D LOAD      ACCESS:    2832956  HIT:    2457107  MISS:     375849
cpu0_L1D RFO       ACCESS:     378926  HIT:     358457  MISS:      20469
cpu0_L1D PREFETCH  ACCESS:          0  HIT:          0  MISS:          0
cpu0_L1D WRITEBACK ACCESS:          0  HIT:          0  MISS:          0
cpu0_L2C TOTAL     ACCESS:     421473  HIT:      83243  MISS:     338230
cpu0_L2C LOAD      ACCESS:     375846  HIT:      56350  MISS:     319496
cpu0_L2C RFO       ACCESS:      20468  HIT:       1848  MISS:      18620
cpu0_L2C PREFETCH  ACCESS:          0  HIT:          0  MISS:          0
cpu0_L2C WRITEBACK ACCESS:      25037  HIT:      24962  MISS:         75
LLC TOTAL     ACCESS:     360862  HIT:     167647  MISS:     193215
LLC LOAD      ACCESS:     319496  HIT:     132937  MISS:     186559
LLC RFO       ACCESS:      18620  HIT:      12074  MISS:       6546
LLC PREFETCH  ACCESS:          0  HIT:          0  MISS:          0
LLC WRITEBACK ACCESS:      22707  HIT:      22602  MISS:        105
Heartbeat CPU 0 instructions: 80000004 cycles: 40888042 heartbeat IPC: 1.17147 cumulative IPC: 1.0762 (Simulation time: 0 hr 52 min 5 sec) 

Region of Interest Statistics
cpu0_DTLB TOTAL     ACCESS:    5258077  HIT:    5222043  MISS:      36034
cpu0_DTLB LOAD      ACCESS:    4971194  HIT:    4936670  MISS:      34524
cpu0_DTLB RFO       ACCESS:     286883  HIT:     285373  MISS:       1510
cpu0_DTLB PREFETCH  ACCESS:          0  HIT:          0  MISS:          0
cpu0_DTLB WRITEBACK ACCESS:          0  HIT:          0  MISS:          0
cpu0_ITLB TOTAL     ACCESS:    2620325  HIT:    2620325  MISS:          0
cpu0_ITLB LOAD      ACCESS:    2620325  HIT:    2620325  MISS:          0
cpu0_ITLB RFO       ACCESS:          0  HIT:          0  MISS:          0
cpu0_ITLB PREFETCH  ACCESS:          0  HIT:          0  MISS:          0
cpu0_ITLB WRITEBACK ACCESS:          0  HIT:          0  MISS:          0
cpu0_L1I TOTAL     ACCESS:      12224  HIT:      12224  MISS:          0
cpu0_L1I LOAD      ACCESS:      12224  HIT:      12224  MISS:          0
cpu0_L1I RFO       ACCESS:          0  HIT:          0  MISS:          0
cpu0_L1I PREFETCH  ACCESS:          0  HIT:          0  MISS:          0
cpu0_L1I WRITEBACK ACCESS:          0  HIT:          0  MISS:          0
cpu0_STLB TOTAL     ACCESS:      36034  HIT:      24776  MISS:      11258
cpu0_STLB LOAD      ACCESS:      34524  HIT:      23496  MISS:      11028
cpu0_STLB RFO       ACCESS:       1510  HIT:       1280  MISS:        230
cpu0_STLB PREFETCH  ACCESS:          0  HIT:          0  MISS:          0
cpu0_STLB WRITEBACK ACCESS:          0  HIT:          0  MISS:          0
cpu0_L1D TOTAL     ACCESS:    3455290  HIT:    3030860  MISS:     424430
cpu0_L1D LOAD      ACCESS:    3038716  HIT:    2635479  MISS:     403237
cpu0_L1D RFO       ACCESS:     405856  HIT:     384790  MISS:      21066
cpu0_L1D PREFETCH  ACCESS:          0  HIT:          0  MISS:          0
cpu0_L1D WRITEBACK ACCESS:          0  HIT:          0  MISS:          0
cpu0_L2C TOTAL     ACCESS:     450059  HIT:      87134  MISS:     362925
cpu0_L2C LOAD      ACCESS:     403234  HIT:      59644  MISS:     343590
cpu0_L2C RFO       ACCESS:      21065  HIT:       1848  MISS:      19217
cpu0_L2C PREFETCH  ACCESS:          0  HIT:          0  MISS:          0
cpu0_L2C WRITEBACK ACCESS:      25633  HIT:      25557  MISS:         76
LLC TOTAL     ACCESS:     386180  HIT:     181656  MISS:     204524
LLC LOAD      ACCESS:     343590  HIT:     145803  MISS:     197787
LLC RFO       ACCESS:      19217  HIT:      12591  MISS:       6626
LLC PREFETCH  ACCESS:          0  HIT:          0  MISS:          0
LLC WRITEBACK ACCESS:      23331  HIT:      23225  MISS:        106
Heartbeat CPU 0 instructions: 82000000 cycles: 42656969 heartbeat IPC: 1.13063 cumulative IPC: 1.07945 (Simulation time: 0 hr 53 min 44 sec) 

Region of Interest Statistics
cpu0_DTLB TOTAL     ACCESS:    5617123  HIT:    5577696  MISS:      39427
cpu0_DTLB LOAD      ACCESS:    5310783  HIT:    5272987  MISS:      37796
cpu0_DTLB RFO       ACCESS:     306340  HIT:     304709  MISS:       1631
cpu0_DTLB PREFETCH  ACCESS:          0  HIT:          0  MISS:          0
cpu0_DTLB WRITEBACK ACCESS:          0  HIT:          0  MISS:          0
cpu0_ITLB TOTAL     ACCESS:    2780635  HIT:    2780635  MISS:          0
cpu0_ITLB LOAD      ACCESS:    2780635  HIT:    2780635  MISS:          0
cpu0_ITLB RFO       ACCESS:          0  HIT:          0  MISS:          0
cpu0_ITLB PREFETCH  ACCESS:          0  HIT:          0  MISS:          0
cpu0_ITLB WRITEBACK ACCESS:          0  HIT:          0  MISS:          0
cpu0_L1I TOTAL     ACCESS:      14238  HIT:      14238  MISS:          0
cpu0_L1I LOAD      ACCESS:      14238  HIT:      14238  MISS:          0
cpu0_L1I RFO       ACCESS:          0  HIT:          0  MISS:          0
cpu0_L1I PREFETCH  ACCESS:          0  HIT:          0  MISS:          0
cpu0_L1I WRITEBACK ACCESS:          0  HIT:          0  MISS:          0
cpu0_STLB TOTAL     ACCESS:      39427  HIT:      27241  MISS:      12186
cpu0_STLB LOAD      ACCESS:      37796  HIT:      25850  MISS:      11946
cpu0_STLB RFO       ACCESS:       1631  HIT:       1391  MISS:        240
cpu0_STLB PREFETCH  ACCESS:          0  HIT:          0  MISS:          0
cpu0_STLB WRITEBACK ACCESS:          0  HIT:          0  MISS:          0
cpu0_L1D TOTAL     ACCESS:    3702304  HIT:    3250067  MISS:     452237
cpu0_L1D LOAD      ACCESS:    3251594  HIT:    2820977  MISS:     430617
cpu0_L1D RFO       ACCESS:     439111  HIT:     417631  MISS:      21480
cpu0_L1D PREFETCH  ACCESS:          0  HIT:          0  MISS:          0
cpu0_L1D WRITEBACK ACCESS:          0  HIT:          0  MISS:          0
cpu0_L2C TOTAL     ACCESS:     479131  HIT:      92852  MISS:     386279
cpu0_L2C LOAD      ACCESS:     430614  HIT:      64063  MISS:     366551
cpu0_L2C RFO       ACCESS:      21479  HIT:       1886  MISS:      19593
cpu0_L2C PREFETCH  ACCESS:          0  HIT:          0  MISS:          0
cpu0_L2C WRITEBACK ACCESS:      26898  HIT:      26810  MISS:         88
LLC TOTAL     ACCESS:     410300  HIT:     195306  MISS:     214994
LLC LOAD      ACCESS:     366551  HIT:     158435  MISS:     208116
LLC RFO       ACCESS:      19593  HIT:      12841  MISS:       6752
LLC PREFETCH  ACCESS:          0  HIT:          0  MISS:          0
LLC WRITEBACK ACCESS:      24109  HIT:      23989  MISS:        120
Heartbeat CPU 0 instructions: 84000002 cycles: 43986239 heartbeat IPC: 1.50459 cumulative IPC: 1.0977 (Simulation time: 0 hr 55 min 10 sec) 

Region of Interest Statistics
cpu0_DTLB TOTAL     ACCESS:    5945062  HIT:    5904871  MISS:      40191
cpu0_DTLB LOAD      ACCESS:    5621925  HIT:    5583448  MISS:      38477
cpu0_DTLB RFO       ACCESS:     323137  HIT:     321423  MISS:       1714
cpu0_DTLB PREFETCH  ACCESS:          0  HIT:          0  MISS:          0
cpu0_DTLB WRITEBACK ACCESS:          0  HIT:          0  MISS:          0
cpu0_ITLB TOTAL     ACCESS:    2977917  HIT:    2977917  MISS:          0
cpu0_ITLB LOAD      ACCESS:    2977917  HIT:    2977917  MISS:          0
cpu0_ITLB RFO       ACCESS:          0  HIT:          0  MISS:          0
cpu0_ITLB PREFETCH  ACCESS:          0  HIT:          0  MISS:          0
cpu0_ITLB WRITEBACK ACCESS:          0  HIT:          0  MISS:          0
cpu0_L1I TOTAL     ACCESS:      14752  HIT:      14752  MISS:          0
cpu0_L1I LOAD      ACCESS:      14752  HIT:      14752  MISS:          0
cpu0_L1I RFO       ACCESS:          0  HIT:          0  MISS:          0
cpu0_L1I PREFETCH  ACCESS:          0  HIT:          0  MISS:          0
cpu0_L1I WRITEBACK ACCESS:          0  HIT:          0  MISS:          0
cpu0_STLB TOTAL     ACCESS:      40191  HIT:      27612  MISS:      12579
cpu0_STLB LOAD      ACCESS:      38477  HIT:      26168  MISS:      12309
cpu0_STLB RFO       ACCESS:       1714  HIT:       1444  MISS:        270
cpu0_STLB PREFETCH  ACCESS:          0  HIT:          0  MISS:          0
cpu0_STLB WRITEBACK ACCESS:          0  HIT:          0  MISS:          0
cpu0_L1D TOTAL     ACCESS:    3918220  HIT:    3437896  MISS:     480324
cpu0_L1D LOAD      ACCESS:    3452133  HIT:    2996870  MISS:     455263
cpu0_L1D RFO       ACCESS:     454111  HIT:     429195  MISS:      24916
cpu0_L1D PREFETCH  ACCESS:          0  HIT:          0  MISS:          0
cpu0_L1D WRITEBACK ACCESS:          0  HIT:          0  MISS:          0
cpu0_L2C TOTAL     ACCESS:     510774  HIT:      99180  MISS:     411594
cpu0_L2C LOAD      ACCESS:     455260  HIT:      66465  MISS:     388795
cpu0_L2C RFO       ACCESS:      24915  HIT:       2254  MISS:      22661
cpu0_L2C PREFETCH  ACCESS:          0  HIT:          0  MISS:          0
cpu0_L2C WRITEBACK ACCESS:      30454  HIT:      30364  MISS:         90
LLC TOTAL     ACCESS:     439156  HIT:     213803  MISS:     225353
LLC LOAD      ACCESS:     388795  HIT:     170971  MISS:     217824
LLC RFO       ACCESS:      22661  HIT:      15269  MISS:       7392
LLC PREFETCH  ACCESS:          0  HIT:          0  MISS:          0
LLC WRITEBACK ACCESS:      27652  HIT:      27521  MISS:        131
Heartbeat CPU 0 instructions: 86000002 cycles: 45830762 heartbeat IPC: 1.08429 cumulative IPC: 1.09694 (Simulation time: 0 hr 56 min 48 sec) 

Region of Interest Statistics
cpu0_DTLB TOTAL     ACCESS:    6306475  HIT:    6262783  MISS:      43692
cpu0_DTLB LOAD      ACCESS:    5962609  HIT:    5920734  MISS:      41875
cpu0_DTLB RFO       ACCESS:     343866  HIT:     342049  MISS:       1817
cpu0_DTLB PREFETCH  ACCESS:          0  HIT:          0  MISS:          0
cpu0_DTLB WRITEBACK ACCESS:          0  HIT:          0  MISS:          0
cpu0_ITLB TOTAL     ACCESS:    3146021  HIT:    3146021  MISS:          0
cpu0_ITLB LOAD      ACCESS:    3146021  HIT:    3146021  MISS:          0
cpu0_ITLB RFO       ACCESS:          0  HIT:          0  MISS:          0
cpu0_ITLB PREFETCH  ACCESS:          0  HIT:          0  MISS:          0
cpu0_ITLB WRITEBACK ACCESS:          0  HIT:          0  MISS:          0
cpu0_L1I TOTAL     ACCESS:      14771  HIT:      14771  MISS:          0
cpu0_L1I LOAD      ACCESS:      14771  HIT:      14771  MISS:          0
cpu0_L1I RFO       ACCESS:          0  HIT:          0  MISS:          0
cpu0_L1I PREFETCH  ACCESS:          0  HIT:          0  MISS:          0
cpu0_L1I WRITEBACK ACCESS:          0  HIT:          0  MISS:          0
cpu0_STLB TOTAL     ACCESS:      43692  HIT:      30268  MISS:      13424
cpu0_STLB LOAD      ACCESS:      41875  HIT:      28725  MISS:      13150
cpu0_STLB RFO       ACCESS:       1817  HIT:       1543  MISS:        274
cpu0_STLB PREFETCH  ACCESS:          0  HIT:          0  MISS:          0
cpu0_STLB WRITEBACK ACCESS:          0  HIT:          0  MISS:          0
cpu0_L1D TOTAL     ACCESS:    4155365  HIT:    3646358  MISS:     509007
cpu0_L1D LOAD      ACCESS:    3655188  HIT:    3171642  MISS:     483546
cpu0_L1D RFO       ACCESS:     487400  HIT:     462094  MISS:      25306
cpu0_L1D PREFETCH  ACCESS:          0  HIT:          0  MISS:          0
cpu0_L1D WRITEBACK ACCESS:          0  HIT:          0  MISS:          0
cpu0_L2C TOTAL     ACCESS:     539873  HIT:     104590  MISS:     435283
cpu0_L2C LOAD      ACCESS:     483543  HIT:      71453  MISS:     412090
cpu0_L2C RFO       ACCESS:      25305  HIT:       2254  MISS:      23051
cpu0_L2C PREFETCH  ACCESS:          0  HIT:          0  MISS:          0
cpu0_L2C WRITEBACK ACCESS:      30870  HIT:      30779  MISS:         91
LLC TOTAL     ACCESS:     463317  HIT:     227023  MISS:     236294
LLC LOAD      ACCESS:     412090  HIT:     183415  MISS:     228675
LLC RFO       ACCESS:      23051  HIT:      15569  MISS:       7482
LLC PREFETCH  ACCESS:          0  HIT:          0  MISS:          0
LLC WRITEBACK ACCESS:      28125  HIT:      27994  MISS:        131
Heartbeat CPU 0 instructions: 88000001 cycles: 48104314 heartbeat IPC: 0.87968 cumulative IPC: 1.08287 (Simulation time: 0 hr 58 min 38 sec) 

Region of Interest Statistics
cpu0_DTLB TOTAL     ACCESS:    6675760  HIT:    6628741  MISS:      47019
cpu0_DTLB LOAD      ACCESS:    6310776  HIT:    6265710  MISS:      45066
cpu0_DTLB RFO       ACCESS:     364984  HIT:     363031  MISS:       1953
cpu0_DTLB PREFETCH  ACCESS:          0  HIT:          0  MISS:          0
cpu0_DTLB WRITEBACK ACCESS:          0  HIT:          0  MISS:          0
cpu0_ITLB TOTAL     ACCESS:    3313976  HIT:    3313976  MISS:          0
cpu0_ITLB LOAD      ACCESS:    3313976  HIT:    3313976  MISS:          0
cpu0_ITLB RFO       ACCESS:          0  HIT:          0  MISS:          0
cpu0_ITLB PREFETCH  ACCESS:          0  HIT:          0  MISS:          0
cpu0_ITLB WRITEBACK ACCESS:          0  HIT:          0  MISS:          0
cpu0_L1I TOTAL     ACCESS:      16589  HIT:      16589  MISS:          0
cpu0_L1I LOAD      ACCESS:      16589  HIT:      16589  MISS:          0
cpu0_L1I RFO       ACCESS:          0  HIT:          0  MISS:          0
cpu0_L1I PREFETCH  ACCESS:          0  HIT:          0  MISS:          0
cpu0_L1I WRITEBACK ACCESS:          0  HIT:          0  MISS:          0
cpu0_STLB TOTAL     ACCESS:      47019  HIT:      32503  MISS:      14516
cpu0_STLB LOAD      ACCESS:      45066  HIT:      30836  MISS:      14230
cpu0_STLB RFO       ACCESS:       1953  HIT:       1667  MISS:        286
cpu0_STLB PREFETCH  ACCESS:          0  HIT:          0  MISS:          0
cpu0_STLB WRITEBACK ACCESS:          0  HIT:          0  MISS:          0
cpu0_L1D TOTAL     ACCESS:    4398701  HIT:    3860775  MISS:     537926
cpu0_L1D LOAD      ACCESS:    3861870  HIT:    3349823  MISS:     512047
cpu0_L1D RFO       ACCESS:     523015  HIT:     497305  MISS:      25710
cpu0_L1D PREFETCH  ACCESS:          0  HIT:          0  MISS:          0
cpu0_L1D WRITEBACK ACCESS:          0  HIT:          0  MISS:          0
cpu0_L2C TOTAL     ACCESS:     570035  HIT:     111210  MISS:     458825
cpu0_L2C LOAD      ACCESS:     512044  HIT:      76817  MISS:     435227
cpu0_L2C RFO       ACCESS:      25709  HIT:       2270  MISS:      23439
cpu0_L2C PREFETCH  ACCESS:          0  HIT:          0  MISS:          0
cpu0_L2C WRITEBACK ACCESS:      32113  HIT:      32010  MISS:        103
LLC TOTAL     ACCESS:     487227  HIT:     236046  MISS:     251181
LLC LOAD      ACCESS:     435227  HIT:     191801  MISS:     243426
LLC RFO       ACCESS:      23439  HIT:      15829  MISS:       7610
LLC PREFETCH  ACCESS:          0  HIT:          0  MISS:          0
LLC WRITEBACK ACCESS:      28505  HIT:      28367  MISS:        138
Heartbeat CPU 0 instructions: 90000002 cycles: 49505095 heartbeat IPC: 1.42778 cumulative IPC: 1.09611 (Simulation time: 1 hr 0 min 6 sec) 

Region of Interest Statistics
cpu0_DTLB TOTAL     ACCESS:    7002379  HIT:    6954477  MISS:      47902
cpu0_DTLB LOAD      ACCESS:    6620437  HIT:    6574568  MISS:      45869
cpu0_DTLB RFO       ACCESS:     381942  HIT:     379909  MISS:       2033
cpu0_DTLB PREFETCH  ACCESS:          0  HIT:          0  MISS:          0
cpu0_DTLB WRITEBACK ACCESS:          0  HIT:          0  MISS:          0
cpu0_ITLB TOTAL     ACCESS:    3500048  HIT:    3500048  MISS:          0
cpu0_ITLB LOAD      ACCESS:    3500048  HIT:    3500048  MISS:          0
cpu0_ITLB RFO       ACCESS:          0  HIT:          0  MISS:          0
cpu0_ITLB PREFETCH  ACCESS:          0  HIT:          0  MISS:          0
cpu0_ITLB WRITEBACK ACCESS:          0  HIT:          0  MISS:          0
cpu0_L1I TOTAL     ACCESS:      17630  HIT:      17630  MISS:          0
cpu0_L1I LOAD      ACCESS:      17630  HIT:      17630  MISS:          0
cpu0_L1I RFO       ACCESS:          0  HIT:          0  MISS:          0
cpu0_L1I PREFETCH  ACCESS:          0  HIT:          0  MISS:          0
cpu0_L1I WRITEBACK ACCESS:          0  HIT:          0  MISS:          0
cpu0_STLB TOTAL     ACCESS:      47902  HIT:      33005  MISS:      14897
cpu0_STLB LOAD      ACCESS:      45869  HIT:      31290  MISS:      14579
cpu0_STLB RFO       ACCESS:       2033  HIT:       1715  MISS:        318
cpu0_STLB PREFETCH  ACCESS:          0  HIT:          0  MISS:          0
cpu0_STLB WRITEBACK ACCESS:          0  HIT:          0  MISS:          0
cpu0_L1D TOTAL     ACCESS:    4616315  HIT:    4050353  MISS:     565962
cpu0_L1D LOAD      ACCESS:    4062610  HIT:    3525903  MISS:     536707
cpu0_L1D RFO       ACCESS:     539525  HIT:     510444  MISS:      29081
cpu0_L1D PREFETCH  ACCESS:          0  HIT:          0  MISS:          0
cpu0_L1D WRITEBACK ACCESS:          0  HIT:          0  MISS:          0
cpu0_L2C TOTAL     ACCESS:     601571  HIT:     117622  MISS:     483949
cpu0_L2C LOAD      ACCESS:     536704  HIT:      79296  MISS:     457408
cpu0_L2C RFO       ACCESS:      29080  HIT:       2701  MISS:      26379
cpu0_L2C PREFETCH  ACCESS:          0  HIT:          0  MISS:          0
cpu0_L2C WRITEBACK ACCESS:      35613  HIT:      35507  MISS:        106
LLC TOTAL     ACCESS:     516081  HIT:     253759  MISS:     262322
LLC LOAD      ACCESS:     457408  HIT:     203568  MISS:     253840
LLC RFO       ACCESS:      26379  HIT:      18045  MISS:       8334
LLC PREFETCH  ACCESS:          0  HIT:          0  MISS:          0
LLC WRITEBACK ACCESS:      32238  HIT:      32097  MISS:        141
Heartbeat CPU 0 instructions: 92000003 cycles: 51492124 heartbeat IPC: 1.00653 cumulative IPC: 1.09148 (Simulation time: 1 hr 1 min 48 sec) 

Region of Interest Statistics
cpu0_DTLB TOTAL     ACCESS:    7357986  HIT:    7307333  MISS:      50653
cpu0_DTLB LOAD      ACCESS:    6956596  HIT:    6908094  MISS:      48502
cpu0_DTLB RFO       ACCESS:     401390  HIT:     399239  MISS:       2151
cpu0_DTLB PREFETCH  ACCESS:          0  HIT:          0  MISS:          0
cpu0_DTLB WRITEBACK ACCESS:          0  HIT:          0  MISS:          0
cpu0_ITLB TOTAL     ACCESS:    3671072  HIT:    3671072  MISS:          0
cpu0_ITLB LOAD      ACCESS:    3671072  HIT:    3671072  MISS:          0
cpu0_ITLB RFO       ACCESS:          0  HIT:          0  MISS:          0
cpu0_ITLB PREFETCH  ACCESS:          0  HIT:          0  MISS:          0
cpu0_ITLB WRITEBACK ACCESS:          0  HIT:          0  MISS:          0
cpu0_L1I TOTAL     ACCESS:      17649  HIT:      17649  MISS:          0
cpu0_L1I LOAD      ACCESS:      17649  HIT:      17649  MISS:          0
cpu0_L1I RFO       ACCESS:          0  HIT:          0  MISS:          0
cpu0_L1I PREFETCH  ACCESS:          0  HIT:          0  MISS:          0
cpu0_L1I WRITEBACK ACCESS:          0  HIT:          0  MISS:          0
cpu0_STLB TOTAL     ACCESS:      50653  HIT:      34870  MISS:      15783
cpu0_STLB LOAD      ACCESS:      48502  HIT:      33042  MISS:      15460
cpu0_STLB RFO       ACCESS:       2151  HIT:       1828  MISS:        323
cpu0_STLB PREFETCH  ACCESS:          0  HIT:          0  MISS:          0
cpu0_STLB WRITEBACK ACCESS:          0  HIT:          0  MISS:          0
cpu0_L1D TOTAL     ACCESS:    4849481  HIT:    4254696  MISS:     594785
cpu0_L1D LOAD      ACCESS:    4264585  HIT:    3699574  MISS:     565011
cpu0_L1D RFO       ACCESS:     569874  HIT:     540280  MISS:      29594
cpu0_L1D PREFETCH  ACCESS:          0  HIT:          0  MISS:          0
cpu0_L1D WRITEBACK ACCESS:          0  HIT:          0  MISS:          0
cpu0_L2C TOTAL     ACCESS:     630932  HIT:     122459  MISS:     508473
cpu0_L2C LOAD      ACCESS:     565008  HIT:      83593  MISS:     481415
cpu0_L2C RFO       ACCESS:      29593  HIT:       2701  MISS:      26892
cpu0_L2C PREFETCH  ACCESS:          0  HIT:          0  MISS:          0
cpu0_L2C WRITEBACK ACCESS:      36151  HIT:      36044  MISS:        107
LLC TOTAL     ACCESS:     541184  HIT:     265268  MISS:     275916
LLC LOAD      ACCESS:     481415  HIT:     214090  MISS:     267325
LLC RFO       ACCESS:      26892  HIT:      18449  MISS:       8443
LLC PREFETCH  ACCESS:          0  HIT:          0  MISS:          0
LLC WRITEBACK ACCESS:      32818  HIT:      32677  MISS:        141
Heartbeat CPU 0 instructions: 94000004 cycles: 53883866 heartbeat IPC: 0.836211 cumulative IPC: 1.07654 (Simulation time: 1 hr 3 min 43 sec) 

Region of Interest Statistics
cpu0_DTLB TOTAL     ACCESS:    7722816  HIT:    7668867  MISS:      53949
cpu0_DTLB LOAD      ACCESS:    7300904  HIT:    7249166  MISS:      51738
cpu0_DTLB RFO       ACCESS:     421912  HIT:     419701  MISS:       2211
cpu0_DTLB PREFETCH  ACCESS:          0  HIT:          0  MISS:          0
cpu0_DTLB WRITEBACK ACCESS:          0  HIT:          0  MISS:          0
cpu0_ITLB TOTAL     ACCESS:    3838633  HIT:    3838633  MISS:          0
cpu0_ITLB LOAD      ACCESS:    3838633  HIT:    3838633  MISS:          0
cpu0_ITLB RFO       ACCESS:          0  HIT:          0  MISS:          0
cpu0_ITLB PREFETCH  ACCESS:          0  HIT:          0  MISS:          0
cpu0_ITLB WRITEBACK ACCESS:          0  HIT:          0  MISS:          0
cpu0_L1I TOTAL     ACCESS:      17649  HIT:      17649  MISS:          0
cpu0_L1I LOAD      ACCESS:      17649  HIT:      17649  MISS:          0
cpu0_L1I RFO       ACCESS:          0  HIT:          0  MISS:          0
cpu0_L1I PREFETCH  ACCESS:          0  HIT:          0  MISS:          0
cpu0_L1I WRITEBACK ACCESS:          0  HIT:          0  MISS:          0
cpu0_STLB TOTAL     ACCESS:      53949  HIT:      37374  MISS:      16575
cpu0_STLB LOAD      ACCESS:      51738  HIT:      35490  MISS:      16248
cpu0_STLB RFO       ACCESS:       2211  HIT:       1884  MISS:        327
cpu0_STLB PREFETCH  ACCESS:          0  HIT:          0  MISS:          0
cpu0_STLB WRITEBACK ACCESS:          0  HIT:          0  MISS:          0
cpu0_L1D TOTAL     ACCESS:    5080236  HIT:    4456068  MISS:     624168
cpu0_L1D LOAD      ACCESS:    4459462  HIT:    3865296  MISS:     594166
cpu0_L1D RFO       ACCESS:     604992  HIT:     575181  MISS:      29811
cpu0_L1D PREFETCH  ACCESS:          0  HIT:          0  MISS:          0
cpu0_L1D WRITEBACK ACCESS:          0  HIT:          0  MISS:          0
cpu0_L2C TOTAL     ACCESS:     660533  HIT:     128710  MISS:     531823
cpu0_L2C LOAD      ACCESS:     594163  HIT:      89617  MISS:     504546
cpu0_L2C RFO       ACCESS:      29810  HIT:       2701  MISS:      27109
cpu0_L2C PREFETCH  ACCESS:          0  HIT:          0  MISS:          0
cpu0_L2C WRITEBACK ACCESS:      36369  HIT:      36262  MISS:        107
LLC TOTAL     ACCESS:     564888  HIT:     272973  MISS:     291915
LLC LOAD      ACCESS:     504546  HIT:     221294  MISS:     283252
LLC RFO       ACCESS:      27109  HIT:      18598  MISS:       8511
LLC PREFETCH  ACCESS:          0  HIT:          0  MISS:          0
LLC WRITEBACK ACCESS:      33172  HIT:      33027  MISS:        145
Heartbeat CPU 0 instructions: 96000003 cycles: 55653629 heartbeat IPC: 1.13009 cumulative IPC: 1.07876 (Simulation time: 1 hr 5 min 22 sec) 

Region of Interest Statistics
cpu0_DTLB TOTAL     ACCESS:    8077782  HIT:    8021337  MISS:      56445
cpu0_DTLB LOAD      ACCESS:    7632808  HIT:    7578757  MISS:      54051
cpu0_DTLB RFO       ACCESS:     444974  HIT:     442580  MISS:       2394
cpu0_DTLB PREFETCH  ACCESS:          0  HIT:          0  MISS:          0
cpu0_DTLB WRITEBACK ACCESS:          0  HIT:          0  MISS:          0
cpu0_ITLB TOTAL     ACCESS:    4015401  HIT:    4015401  MISS:          0
cpu0_ITLB LOAD      ACCESS:    4015401  HIT:    4015401  MISS:          0
cpu0_ITLB RFO       ACCESS:          0  HIT:          0  MISS:          0
cpu0_ITLB PREFETCH  ACCESS:          0  HIT:          0  MISS:          0
cpu0_ITLB WRITEBACK ACCESS:          0  HIT:          0  MISS:          0
cpu0_L1I TOTAL     ACCESS:      20332  HIT:      20332  MISS:          0
cpu0_L1I LOAD      ACCESS:      20332  HIT:      20332  MISS:          0
cpu0_L1I RFO       ACCESS:          0  HIT:          0  MISS:          0
cpu0_L1I PREFETCH  ACCESS:          0  HIT:          0  MISS:          0
cpu0_L1I WRITEBACK ACCESS:          0  HIT:          0  MISS:          0
cpu0_STLB TOTAL     ACCESS:      56445  HIT:      39042  MISS:      17403
cpu0_STLB LOAD      ACCESS:      54051  HIT:      37016  MISS:      17035
cpu0_STLB RFO       ACCESS:       2394  HIT:       2026  MISS:        368
cpu0_STLB PREFETCH  ACCESS:          0  HIT:          0  MISS:          0
cpu0_STLB WRITEBACK ACCESS:          0  HIT:          0  MISS:          0
cpu0_L1D TOTAL     ACCESS:    5316407  HIT:    4662526  MISS:     653881
cpu0_L1D LOAD      ACCESS:    4664464  HIT:    4043812  MISS:     620652
cpu0_L1D RFO       ACCESS:     635367  HIT:     602343  MISS:      33024
cpu0_L1D PREFETCH  ACCESS:          0  HIT:          0  MISS:          0
cpu0_L1D WRITEBACK ACCESS:          0  HIT:          0  MISS:          0
cpu0_L2C TOTAL     ACCESS:     694657  HIT:     138530  MISS:     556127
cpu0_L2C LOAD      ACCESS:     620649  HIT:      94569  MISS:     526080
cpu0_L2C RFO       ACCESS:      33023  HIT:       3163  MISS:      29860
cpu0_L2C PREFETCH  ACCESS:          0  HIT:          0  MISS:          0
cpu0_L2C WRITEBACK ACCESS:      40780  HIT:      40659  MISS:        121
LLC TOTAL     ACCESS:     591234  HIT:     286845  MISS:     304389
LLC LOAD      ACCESS:     526080  HIT:     231230  MISS:     294850
LLC RFO       ACCESS:      29860  HIT:      20490  MISS:       9370
LLC PREFETCH  ACCESS:          0  HIT:          0  MISS:          0
LLC WRITEBACK ACCESS:      35228  HIT:      35069  MISS:        159
Heartbeat CPU 0 instructions: 98000001 cycles: 57416128 heartbeat IPC: 1.13475 cumulative IPC: 1.08099 (Simulation time: 1 hr 6 min 59 sec) 

Region of Interest Statistics
cpu0_DTLB TOTAL     ACCESS:    8411676  HIT:    8353926  MISS:      57750
cpu0_DTLB LOAD      ACCESS:    7952448  HIT:    7897157  MISS:      55291
cpu0_DTLB RFO       ACCESS:     459228  HIT:     456769  MISS:       2459
cpu0_DTLB PREFETCH  ACCESS:          0  HIT:          0  MISS:          0
cpu0_DTLB WRITEBACK ACCESS:          0  HIT:          0  MISS:          0
cpu0_ITLB TOTAL     ACCESS:    4198054  HIT:    4198054  MISS:          0
cpu0_ITLB LOAD      ACCESS:    4198054  HIT:    4198054  MISS:          0
cpu0_ITLB RFO       ACCESS:          0  HIT:          0  MISS:          0
cpu0_ITLB PREFETCH  ACCESS:          0  HIT:          0  MISS:          0
cpu0_ITLB WRITEBACK ACCESS:          0  HIT:          0  MISS:          0
cpu0_L1I TOTAL     ACCESS:      20381  HIT:      20381  MISS:          0
cpu0_L1I LOAD      ACCESS:      20381  HIT:      20381  MISS:          0
cpu0_L1I RFO       ACCESS:          0  HIT:          0  MISS:          0
cpu0_L1I PREFETCH  ACCESS:          0  HIT:          0  MISS:          0
cpu0_L1I WRITEBACK ACCESS:          0  HIT:          0  MISS:          0
cpu0_STLB TOTAL     ACCESS:      57750  HIT:      39721  MISS:      18029
cpu0_STLB LOAD      ACCESS:      55291  HIT:      37631  MISS:      17660
cpu0_STLB RFO       ACCESS:       2459  HIT:       2090  MISS:        369
cpu0_STLB PREFETCH  ACCESS:          0  HIT:          0  MISS:          0
cpu0_STLB WRITEBACK ACCESS:          0  HIT:          0  MISS:          0
cpu0_L1D TOTAL     ACCESS:    5541836  HIT:    4860356  MISS:     681480
cpu0_L1D LOAD      ACCESS:    4869899  HIT:    4222402  MISS:     647497
cpu0_L1D RFO       ACCESS:     654765  HIT:     620991  MISS:      33774
cpu0_L1D PREFETCH  ACCESS:          0  HIT:          0  MISS:          0
cpu0_L1D WRITEBACK ACCESS:          0  HIT:          0  MISS:          0
cpu0_L2C TOTAL     ACCESS:     723040  HIT:     140668  MISS:     582372
cpu0_L2C LOAD      ACCESS:     647494  HIT:      95923  MISS:     551571
cpu0_L2C RFO       ACCESS:      33773  HIT:       3163  MISS:      30610
cpu0_L2C PREFETCH  ACCESS:          0  HIT:          0  MISS:          0
cpu0_L2C WRITEBACK ACCESS:      41564  HIT:      41442  MISS:        122
LLC TOTAL     ACCESS:     619896  HIT:     300939  MISS:     318957
LLC LOAD      ACCESS:     551571  HIT:     242239  MISS:     309332
LLC RFO       ACCESS:      30610  HIT:      21168  MISS:       9442
LLC PREFETCH  ACCESS:          0  HIT:          0  MISS:          0
LLC WRITEBACK ACCESS:      37646  HIT:      37474  MISS:        172
Heartbeat CPU 0 instructions: 100000002 cycles: 59694921 heartbeat IPC: 0.877658 cumulative IPC: 1.07106 (Simulation time: 1 hr 8 min 52 sec) 

Region of Interest Statistics
cpu0_DTLB TOTAL     ACCESS:    8782481  HIT:    8720876  MISS:      61605
cpu0_DTLB LOAD      ACCESS:    8302101  HIT:    8243036  MISS:      59065
cpu0_DTLB RFO       ACCESS:     480380  HIT:     477840  MISS:       2540
cpu0_DTLB PREFETCH  ACCESS:          0  HIT:          0  MISS:          0
cpu0_DTLB WRITEBACK ACCESS:          0  HIT:          0  MISS:          0
cpu0_ITLB TOTAL     ACCESS:    4365130  HIT:    4365130  MISS:          0
cpu0_ITLB LOAD      ACCESS:    4365130  HIT:    4365130  MISS:          0
cpu0_ITLB RFO       ACCESS:          0  HIT:          0  MISS:          0
cpu0_ITLB PREFETCH  ACCESS:          0  HIT:          0  MISS:          0
cpu0_ITLB WRITEBACK ACCESS:          0  HIT:          0  MISS:          0
cpu0_L1I TOTAL     ACCESS:      20381  HIT:      20381  MISS:          0
cpu0_L1I LOAD      ACCESS:      20381  HIT:      20381  MISS:          0
cpu0_L1I RFO       ACCESS:          0  HIT:          0  MISS:          0
cpu0_L1I PREFETCH  ACCESS:          0  HIT:          0  MISS:          0
cpu0_L1I WRITEBACK ACCESS:          0  HIT:          0  MISS:          0
cpu0_STLB TOTAL     ACCESS:      61605  HIT:      42670  MISS:      18935
cpu0_STLB LOAD      ACCESS:      59065  HIT:      40505  MISS:      18560
cpu0_STLB RFO       ACCESS:       2540  HIT:       2165  MISS:        375
cpu0_STLB PREFETCH  ACCESS:          0  HIT:          0  MISS:          0
cpu0_STLB WRITEBACK ACCESS:          0  HIT:          0  MISS:          0
cpu0_L1D TOTAL     ACCESS:    5783183  HIT:    5071977  MISS:     711206
cpu0_L1D LOAD      ACCESS:    5074857  HIT:    4397935  MISS:     676922
cpu0_L1D RFO       ACCESS:     690290  HIT:     656224  MISS:      34066
cpu0_L1D PREFETCH  ACCESS:          0  HIT:          0  MISS:          0
cpu0_L1D WRITEBACK ACCESS:          0  HIT:          0  MISS:          0
cpu0_L2C TOTAL     ACCESS:     753062  HIT:     147198  MISS:     605864
cpu0_L2C LOAD      ACCESS:     676919  HIT:     102149  MISS:     574770
cpu0_L2C RFO       ACCESS:      34065  HIT:       3163  MISS:      30902
cpu0_L2C PREFETCH  ACCESS:          0  HIT:          0  MISS:          0
cpu0_L2C WRITEBACK ACCESS:      41860  HIT:      41738  MISS:        122
LLC TOTAL     ACCESS:     643806  HIT:     309925  MISS:     333881
LLC LOAD      ACCESS:     574770  HIT:     250623  MISS:     324147
LLC RFO       ACCESS:      30902  HIT:      21351  MISS:       9551
LLC PREFETCH  ACCESS:          0  HIT:          0  MISS:          0
LLC WRITEBACK ACCESS:      38064  HIT:      37892  MISS:        172
Heartbeat CPU 0 instructions: 102000002 cycles: 61900031 heartbeat IPC: 0.906984 cumulative IPC: 1.06366 (Simulation time: 1 hr 10 min 41 sec) 

Region of Interest Statistics
cpu0_DTLB TOTAL     ACCESS:    9149269  HIT:    9084752  MISS:      64517
cpu0_DTLB LOAD      ACCESS:    8647939  HIT:    8586095  MISS:      61844
cpu0_DTLB RFO       ACCESS:     501330  HIT:     498657  MISS:       2673
cpu0_DTLB PREFETCH  ACCESS:          0  HIT:          0  MISS:          0
cpu0_DTLB WRITEBACK ACCESS:          0  HIT:          0  MISS:          0
cpu0_ITLB TOTAL     ACCESS:    4528444  HIT:    4528444  MISS:          0
cpu0_ITLB LOAD      ACCESS:    4528444  HIT:    4528444  MISS:          0
cpu0_ITLB RFO       ACCESS:          0  HIT:          0  MISS:          0
cpu0_ITLB PREFETCH  ACCESS:          0  HIT:          0  MISS:          0
cpu0_ITLB WRITEBACK ACCESS:          0  HIT:          0  MISS:          0
cpu0_L1I TOTAL     ACCESS:      22840  HIT:      22840  MISS:          0
cpu0_L1I LOAD      ACCESS:      22840  HIT:      22840  MISS:          0
cpu0_L1I RFO       ACCESS:          0  HIT:          0  MISS:          0
cpu0_L1I PREFETCH  ACCESS:          0  HIT:          0  MISS:          0
cpu0_L1I WRITEBACK ACCESS:          0  HIT:          0  MISS:          0
cpu0_STLB TOTAL     ACCESS:      64517  HIT:      44582  MISS:      19935
cpu0_STLB LOAD      ACCESS:      61844  HIT:      42294  MISS:      19550
cpu0_STLB RFO       ACCESS:       2673  HIT:       2288  MISS:        385
cpu0_STLB PREFETCH  ACCESS:          0  HIT:          0  MISS:          0
cpu0_STLB WRITEBACK ACCESS:          0  HIT:          0  MISS:          0
cpu0_L1D TOTAL     ACCESS:    6033518  HIT:    5292720  MISS:     740798
cpu0_L1D LOAD      ACCESS:    5287010  HIT:    4580879  MISS:     706131
cpu0_L1D RFO       ACCESS:     727508  HIT:     693073  MISS:      34435
cpu0_L1D PREFETCH  ACCESS:          0  HIT:          0  MISS:          0
cpu0_L1D WRITEBACK ACCESS:          0  HIT:          0  MISS:          0
cpu0_L2C TOTAL     ACCESS:     784357  HIT:     154361  MISS:     629996
cpu0_L2C LOAD      ACCESS:     706128  HIT:     107551  MISS:     598577
cpu0_L2C RFO       ACCESS:      34434  HIT:       3225  MISS:      31209
cpu0_L2C PREFETCH  ACCESS:          0  HIT:          0  MISS:          0
cpu0_L2C WRITEBACK ACCESS:      43563  HIT:      43429  MISS:        134
LLC TOTAL     ACCESS:     668481  HIT:     319857  MISS:     348624
LLC LOAD      ACCESS:     598577  HIT:     259781  MISS:     338796
LLC RFO       ACCESS:      31209  HIT:      21568  MISS:       9641
LLC PREFETCH  ACCESS:          0  HIT:          0  MISS:          0
LLC WRITEBACK ACCESS:      38619  HIT:      38445  MISS:        174
Heartbeat CPU 0 instructions: 104000000 cycles: 63359451 heartbeat IPC: 1.37041 cumulative IPC: 1.07255 (Simulation time: 1 hr 12 min 13 sec) 

Region of Interest Statistics
cpu0_DTLB TOTAL     ACCESS:    9477479  HIT:    9412175  MISS:      65304
cpu0_DTLB LOAD      ACCESS:    8958888  HIT:    8896344  MISS:      62544
cpu0_DTLB RFO       ACCESS:     518591  HIT:     515831  MISS:       2760
cpu0_DTLB PREFETCH  ACCESS:          0  HIT:          0  MISS:          0
cpu0_DTLB WRITEBACK ACCESS:          0  HIT:          0  MISS:          0
cpu0_ITLB TOTAL     ACCESS:    4722996  HIT:    4722996  MISS:          0
cpu0_ITLB LOAD      ACCESS:    4722996  HIT:    4722996  MISS:          0
cpu0_ITLB RFO       ACCESS:          0  HIT:          0  MISS:          0
cpu0_ITLB PREFETCH  ACCESS:          0  HIT:          0  MISS:          0
cpu0_ITLB WRITEBACK ACCESS:          0  HIT:          0  MISS:          0
cpu0_L1I TOTAL     ACCESS:      23520  HIT:      23520  MISS:          0
cpu0_L1I LOAD      ACCESS:      23520  HIT:      23520  MISS:          0
cpu0_L1I RFO       ACCESS:          0  HIT:          0  MISS:          0
cpu0_L1I PREFETCH  ACCESS:          0  HIT:          0  MISS:          0
cpu0_L1I WRITEBACK ACCESS:          0  HIT:          0  MISS:          0
cpu0_STLB TOTAL     ACCESS:      65304  HIT:      44971  MISS:      20333
cpu0_STLB LOAD      ACCESS:      62544  HIT:      42627  MISS:      19917
cpu0_STLB RFO       ACCESS:       2760  HIT:       2344  MISS:        416
cpu0_STLB PREFETCH  ACCESS:          0  HIT:          0  MISS:          0
cpu0_STLB WRITEBACK ACCESS:          0  HIT:          0  MISS:          0
cpu0_L1D TOTAL     ACCESS:    6248144  HIT:    5479147  MISS:     768997
cpu0_L1D LOAD      ACCESS:    5485451  HIT:    4754583  MISS:     730868
cpu0_L1D RFO       ACCESS:     743310  HIT:     705418  MISS:      37892
cpu0_L1D PREFETCH  ACCESS:          0  HIT:          0  MISS:          0
cpu0_L1D WRITEBACK ACCESS:          0  HIT:          0  MISS:          0
cpu0_L2C TOTAL     ACCESS:     816135  HIT:     160811  MISS:     655324
cpu0_L2C LOAD      ACCESS:     730865  HIT:     110004  MISS:     620861
cpu0_L2C RFO       ACCESS:      37891  HIT:       3641  MISS:      34250
cpu0_L2C PREFETCH  ACCESS:          0  HIT:          0  MISS:          0
cpu0_L2C WRITEBACK ACCESS:      47142  HIT:      47006  MISS:        136
LLC TOTAL     ACCESS:     697713  HIT:     336656  MISS:     361057
LLC LOAD      ACCESS:     620861  HIT:     270404  MISS:     350457
LLC RFO       ACCESS:      34250  HIT:      23837  MISS:      10413
LLC PREFETCH  ACCESS:          0  HIT:          0  MISS:          0
LLC WRITEBACK ACCESS:      42525  HIT:      42351  MISS:        174
Heartbeat CPU 0 instructions: 106000003 cycles: 65473529 heartbeat IPC: 0.94604 cumulative IPC: 1.06745 (Simulation time: 1 hr 13 min 58 sec) 

Region of Interest Statistics
cpu0_DTLB TOTAL     ACCESS:    9840019  HIT:    9771119  MISS:      68900
cpu0_DTLB LOAD      ACCESS:    9299966  HIT:    9233928  MISS:      66038
cpu0_DTLB RFO       ACCESS:     540053  HIT:     537191  MISS:       2862
cpu0_DTLB PREFETCH  ACCESS:          0  HIT:          0  MISS:          0
cpu0_DTLB WRITEBACK ACCESS:          0  HIT:          0  MISS:          0
cpu0_ITLB TOTAL     ACCESS:    4892122  HIT:    4892122  MISS:          0
cpu0_ITLB LOAD      ACCESS:    4892122  HIT:    4892122  MISS:          0
cpu0_ITLB RFO       ACCESS:          0  HIT:          0  MISS:          0
cpu0_ITLB PREFETCH  ACCESS:          0  HIT:          0  MISS:          0
cpu0_ITLB WRITEBACK ACCESS:          0  HIT:          0  MISS:          0
cpu0_L1I TOTAL     ACCESS:      23539  HIT:      23539  MISS:          0
cpu0_L1I LOAD      ACCESS:      23539  HIT:      23539  MISS:          0
cpu0_L1I RFO       ACCESS:          0  HIT:          0  MISS:          0
cpu0_L1I PREFETCH  ACCESS:          0  HIT:          0  MISS:          0
cpu0_L1I WRITEBACK ACCESS:          0  HIT:          0  MISS:          0
cpu0_STLB TOTAL     ACCESS:      68900  HIT:      47588  MISS:      21312
cpu0_STLB LOAD      ACCESS:      66038  HIT:      45147  MISS:      20891
cpu0_STLB RFO       ACCESS:       2862  HIT:       2441  MISS:        421
cpu0_STLB PREFETCH  ACCESS:          0  HIT:          0  MISS:          0
cpu0_STLB WRITEBACK ACCESS:          0  HIT:          0  MISS:          0
cpu0_L1D TOTAL     ACCESS:    6486887  HIT:    5687807  MISS:     799080
cpu0_L1D LOAD      ACCESS:    5688679  HIT:    4928199  MISS:     760480
cpu0_L1D RFO       ACCESS:     777898  HIT:     739546  MISS:      38352
cpu0_L1D PREFETCH  ACCESS:          0  HIT:          0  MISS:          0
cpu0_L1D WRITEBACK ACCESS:          0  HIT:          0  MISS:          0
cpu0_L2C TOTAL     ACCESS:     846698  HIT:     166707  MISS:     679991
cpu0_L2C LOAD      ACCESS:     760477  HIT:     115413  MISS:     645064
cpu0_L2C RFO       ACCESS:      38351  HIT:       3641  MISS:      34710
cpu0_L2C PREFETCH  ACCESS:          0  HIT:          0  MISS:          0
cpu0_L2C WRITEBACK ACCESS:      47622  HIT:      47485  MISS:        137
[...]
cpu0_DTLB PREFETCH  ACCESS:          0  HIT:          0  MISS:          0
cpu0_DTLB WRITEBACK ACCESS:          0  HIT:          0  MISS:          0
cpu0_DTLB TRANSLATION ACCESS:          0  HIT:          0  MISS:          0
cpu0_DTLB PREFETCH  REQUESTED:          0  ISSUED:          0  USEFUL:          0  USELESS:          0
cpu0_DTLB AVERAGE MISS LATENCY: 11.0873 cycles
cpu0_ITLB TOTAL     ACCESS:  129034723  HIT:  129034723  MISS:          0
cpu0_ITLB LOAD      ACCESS:  129034723  HIT:  129034723  MISS:          0
cpu0_ITLB RFO       ACCESS:          0  HIT:          0  MISS:          0
cpu0_ITLB PREFETCH  ACCESS:          0  HIT:          0  MISS:          0
cpu0_ITLB WRITEBACK ACCESS:          0  HIT:          0  MISS:          0
cpu0_ITLB TRANSLATION ACCESS:          0  HIT:          0  MISS:          0
cpu0_ITLB PREFETCH  REQUESTED:          0  ISSUED:          0  USEFUL:          0  USELESS:          0
cpu0_ITLB AVERAGE MISS LATENCY: -nan cycles
cpu0_L1I TOTAL     ACCESS:    1310678  HIT:    1309865  MISS:        813
cpu0_L1I LOAD      ACCESS:    1310678  HIT:    1309865  MISS:        813
cpu0_L1I RFO       ACCESS:          0  HIT:          0  MISS:          0
cpu0_L1I PREFETCH  ACCESS:          0  HIT:          0  MISS:          0
cpu0_L1I WRITEBACK ACCESS:          0  HIT:          0  MISS:          0
cpu0_L1I TRANSLATION ACCESS:          0  HIT:          0  MISS:          0
cpu0_L1I PREFETCH  REQUESTED:          0  ISSUED:          0  USEFUL:          0  USELESS:          0
cpu0_L1I AVERAGE MISS LATENCY: 203.194 cycles
cpu0_STLB TOTAL     ACCESS:    2200511  HIT:    1673685  MISS:     526826
cpu0_STLB LOAD      ACCESS:    2100526  HIT:    1582217  MISS:     518309
cpu0_STLB RFO       ACCESS:      99985  HIT:      91468  MISS:       8517
cpu0_STLB PREFETCH  ACCESS:          0  HIT:          0  MISS:          0
cpu0_STLB WRITEBACK ACCESS:          0  HIT:          0  MISS:          0
cpu0_STLB TRANSLATION ACCESS:          0  HIT:          0  MISS:          0
cpu0_STLB PREFETCH  REQUESTED:          0  ISSUED:          0  USEFUL:          0  USELESS:          0
cpu0_STLB AVERAGE MISS LATENCY: 8.58138 cycles
cpu0_L1D TOTAL     ACCESS:  176147088  HIT:  153856699  MISS:   22290389
cpu0_L1D LOAD      ACCESS:  149123959  HIT:  127652451  MISS:   21471508
cpu0_L1D RFO       ACCESS:   26512015  HIT:   25702512  MISS:     809503
cpu0_L1D PREFETCH  ACCESS:          0  HIT:          0  MISS:          0
cpu0_L1D WRITEBACK ACCESS:          0  HIT:          0  MISS:          0
cpu0_L1D TRANSLATION ACCESS:     511114  HIT:     501736  MISS:       9378
cpu0_L1D PREFETCH  REQUESTED:          0  ISSUED:          0  USEFUL:          0  USELESS:          0
cpu0_L1D AVERAGE MISS LATENCY: 163.308 cycles
cpu0_L2C TOTAL     ACCESS:   23685852  HIT:    5461464  MISS:   18224388
cpu0_L2C LOAD      ACCESS:   21472234  HIT:    3924716  MISS:   17547518
cpu0_L2C RFO       ACCESS:     809415  HIT:     136646  MISS:     672769
cpu0_L2C PREFETCH  ACCESS:          0  HIT:          0  MISS:          0
cpu0_L2C WRITEBACK ACCESS:    1394825  HIT:    1392100  MISS:       2725
cpu0_L2C TRANSLATION ACCESS:       9378  HIT:       8002  MISS:       1376
cpu0_L2C PREFETCH  REQUESTED:          0  ISSUED:          0  USEFUL:          0  USELESS:          0
cpu0_L2C AVERAGE MISS LATENCY: 186.246 cycles
LLC TOTAL     ACCESS:   19349682  HIT:    5529807  MISS:   13819875
LLC LOAD      ACCESS:   17547461  HIT:    4006327  MISS:   13541134
LLC RFO       ACCESS:     672769  HIT:     398751  MISS:     274018
LLC PREFETCH  ACCESS:          0  HIT:          0  MISS:          0
LLC WRITEBACK ACCESS:    1128076  HIT:    1123711  MISS:       4365
LLC TRANSLATION ACCESS:       1376  HIT:       1018  MISS:        358
LLC PREFETCH  REQUESTED:          0  ISSUED:          0  USEFUL:          0  USELESS:          0
LLC AVERAGE MISS LATENCY: 217.914 cycles
~~~~~~~~~~Reuse Distance Profiler output~~~~~~~~~~
0	31594288	18487680
1	27781872	25752304
2	19133840	17220144
3	10289776	9708800
4	7514528	7079872
5	4147600	3813808
6	3500016	2934816
7	2253984	2019936
8	1680080	1491216
9	1387472	1232080
10	1107696	966576
11	789280	645296
12	743968	594848
13	612128	475984
14	855856	569616
15	598272	492240
16	629136	474304
17	761712	628848
18	584176	481776
19	462832	354000
20	397216	283328
21	395392	272560
22	443376	310000
23	424816	299904
24	436544	345952
25	523408	417008
26	511648	402496
27	561696	470768
28	600336	511168
29	585376	498768
30	608944	528176
31	687648	608736
32	783648	685456
33	892560	782752
34	893872	798688
35	946752	836128
36	995008	867952
37	1044064	946720
38	1099376	1002400
39	1177232	1077344
40	1182512	1083312
41	1157888	1054560
42	1177392	1059328
43	1184928	1030800
44	1173104	1058784
45	1110160	998256
46	1047952	929632
47	1009376	909040
48	1067488	962864
49	1080416	974224
50	983024	897088
51	943440	867712
52	895328	831504
53	751808	694976
54	618016	565584
55	505520	458672
56	419616	375648
57	352016	317584
58	307168	275904
59	287552	260640
60	308912	281200
61	236096	212832
62	185568	165440
63	173712	146704
64	310304	262304
66	174480	144640
68	159232	128000
70	138240	115872
72	132528	114928
74	181984	166448
76	306752	291248
78	238272	222544
80	224192	207792
82	220768	205280
84	148464	134032
86	159056	144336
88	171056	155728
90	220128	175824
92	177936	149840
94	168752	136768
96	151456	112528
98	128400	103200
100	134128	104848
102	136912	109696
104	117920	96400
106	124480	101120
108	136368	114064
110	135024	112128
112	119632	85168
114	115904	69424
116	92416	64064
118	70704	37152
120	56736	37648
122	41936	29488
124	43104	30736
126	59760	41504
128	150928	121088
132	120880	99696
136	102064	88016
140	134832	120480
144	209648	198176
148	235776	226704
152	253072	244752
156	258400	250576
160	219600	212672
164	170640	165280
168	137648	132848
172	96784	91872
176	71360	67232
180	56976	52544
184	53712	49760
188	57248	53520
192	66800	62736
196	76848	72496
200	87136	81104
204	90112	85280
208	77296	74176
212	64416	61216
216	47856	44608
220	38112	34848
224	31248	27728
228	26720	24464
232	26128	22992
236	25856	22528
240	30896	26720
244	31120	26320
248	34624	27408
252	39824	27392
256	74576	56592
264	45168	36032
272	36784	29888
280	45536	35264
288	57920	38480
296	68800	36672
304	63296	30688
312	56976	27808
320	54352	28432
328	52944	33056
336	52032	35328
344	52112	38640
352	53344	42368
360	56512	47184
368	73536	64080
376	98880	91248
384	133440	125088
392	162864	154480
400	176560	169712
408	175552	168080
416	160080	153120
424	141584	134000
432	122768	114064
440	106384	95472
448	108032	96112
456	128208	113056
464	179984	158832
472	267440	237808
480	363552	319536
488	432944	378144
496	433984	376384
504	360976	310592
512	436256	374896
528	185344	159376
544	79216	67200
560	43344	36544
576	31328	25680
592	26688	21584
608	25648	20576
624	21664	15360
640	19776	14880
656	16944	13616
672	15696	12912
688	13904	11808
704	13216	11056
720	13104	11104
736	13344	11056
752	13840	11632
768	14032	11472
784	14656	11728
800	16176	14192
816	14400	12288
832	15120	12768
848	15184	12992
864	16896	14992
880	21200	18400
896	18576	16096
912	18208	16192
928	19056	17488
944	23392	21536
960	34672	32816
976	52144	50112
992	71136	67536
1008	73024	68048
1024	87776	79920
1056	38512	34976
1088	24208	21552
1120	18928	16176
1152	17168	14416
1184	15856	13552
1216	14496	11680
1248	13744	11664
1280	14784	12144
1312	13808	11264
1344	15104	12512
1376	14928	12512
1408	18064	15472
1440	28400	26368
1472	51888	50128
1504	55408	53536
1536	41056	38960
1568	28736	26944
1600	19552	18048
1632	14176	12784
1664	13696	11968
1696	12352	10592
1728	11136	9872
1760	10400	9184
1792	10448	9312
1824	10272	9184
1856	10864	9440
1888	13424	12048
1920	16400	15280
1952	26896	25568
1984	39808	38624
2016	42816	41392
2048	57104	54768
2112	32112	30160
2176	22464	20432
2240	20928	18976
2304	22400	20176
2368	22464	20384
2432	43584	41392
2496	60480	58112
2560	39856	36768
2624	27952	22368
2688	20544	14976
2752	18624	15456
2816	16096	14624
2880	20768	18992
2944	37344	35296
3008	47296	45296
3072	34224	32208
3136	21072	19472
3200	16928	15392
3264	13200	12000
3328	15024	13968
3392	20608	19856
3456	31856	30896
3520	35968	35360
3584	28176	27616
3648	20416	20032
3712	15776	15312
3776	13840	13440
3840	14656	14144
3904	19552	19040
3968	28864	28496
4032	29536	29232
4096	40912	40160
4224	29488	28640
4352	34224	33792
4480	53984	53440
4608	38304	37712
4736	27424	26560
4864	35968	35440
4992	48816	48128
5120	36192	35600
5248	30208	29696
5376	32896	32240
5504	45856	45040
5632	35392	34784
5760	28112	27408
5888	33776	33328
6016	42560	42048
6144	32192	31456
6272	26976	26352
6400	33552	32864
6528	38944	38448
6656	29920	29584
6784	25984	25328
6912	32128	31568
7040	34176	33648
7168	28352	27888
7296	24560	24240
7424	29936	29312
7552	32640	31488
7680	27936	27584
7808	25792	25072
7936	31232	29408
8064	34992	31472
8192	51584	49744
8448	55840	53984
8704	50480	47088
8960	55888	53280
9216	50448	49248
9472	51568	50768
9728	48752	47536
9984	53376	51424
10240	47952	46304
10496	47760	46496
10752	50992	44464
11008	47872	44512
11264	43104	41792
11520	41280	39856
11776	43168	40656
12032	42736	39568
12288	39376	38192
12544	39440	38560
12800	38800	38144
13056	37360	36608
13312	37440	36416
13568	39248	35232
13824	36976	36016
14080	33968	33040
14336	35136	34272
14592	34768	34064
14848	34352	33168
15104	34112	33536
15360	33312	32656
15616	31072	30768
15872	32400	31728
16128	30416	29936
16384	62080	60352
16896	62880	60880
17408	62256	60672
17920	63952	55168
18432	57696	55472
18944	64768	54256
19456	56032	53088
19968	54528	52016
20480	60160	57072
20992	73664	68832
21504	48000	46176
22016	45568	43200
22528	43408	42000
23040	42112	40752
23552	39104	38128
24064	40672	39776
24576	39792	38608
25088	35824	35088
25600	36000	35472
26112	33488	33056
26624	31024	30448
27136	31408	30960
27648	29424	29056
28160	27952	27712
28672	28912	28480
29184	26160	25808
29696	26400	26064
30208	27264	26976
30720	26416	26192
31232	24352	24224
31744	23936	23776
32256	22640	22512
32768	44048	43872
33792	41248	41056
34816	39472	39216
35840	38048	37904
36864	35504	35280
37888	35232	35040
38912	31472	31280
39936	32720	32480
40960	31600	31328
41984	29568	29280
43008	27072	26912
44032	26688	26448
45056	26352	26080
46080	25184	24976
47104	23024	22816
48128	23472	23312
49152	22848	22672
50176	20336	20128
51200	20496	20224
52224	20048	19808
53248	18944	18784
54272	19328	19088
55296	18256	17936
56320	19344	19168
57344	18752	18608
58368	18496	18288
59392	17904	17856
60416	21424	21344
61440	23600	23536
62464	21168	21040
63488	21056	20912
64512	18192	18128
65536	36656	36576
67584	32736	32640
69632	29360	29280
71680	29200	29024
73728	28736	28672
75776	28432	28320
77824	25184	25120
79872	23968	23888
81920	21200	21104
83968	21360	21120
86016	20320	19488
88064	20624	18784
90112	20832	18176
92160	22144	18592
94208	21392	17520
96256	22000	17104
98304	20896	17872
100352	18944	17264
102400	16928	16048
104448	16480	15456
106496	16816	15536
108544	17568	16672
110592	15536	14192
112640	14048	13312
114688	14832	14208
116736	12784	11984
118784	11776	10768
120832	11184	9488
122880	10976	8800
124928	11440	9200
126976	11200	8800
129024	10016	8320
131072	18256	15904
135168	17536	15024
139264	18240	15376
143360	16096	14416
147456	15360	13472
151552	15344	13648
155648	14256	13008
159744	12800	11584
163840	13392	11536
167936	13040	11040
172032	12160	10224
176128	11200	9536
180224	11456	9696
184320	10640	9248
188416	11888	9744
192512	9856	7952
196608	9552	7872
200704	9408	7344
204800	8720	6928
208896	8320	6512
212992	10064	7728
217088	9504	6736
221184	9936	7072
225280	9760	7104
229376	10336	8000
233472	9392	7264
237568	9232	6944
241664	9680	7200
245760	9232	6544
249856	9040	6720
253952	7824	5920
258048	8432	6208
262144	17504	12112
270336	16064	10480
278528	14672	9072
286720	14448	8880
294912	13776	8672
303104	13792	8240
311296	14096	8832
319488	15792	10496
327680	14384	8656
335872	12784	8256
344064	13968	10432
352256	12848	8688
360448	10000	7424
368640	10864	8112
376832	9056	6512
385024	8448	6336
393216	9152	7264
401408	8064	6224
409600	8176	5984
417792	7424	5888
425984	7344	5648
434176	6816	5536
442368	6992	5632
450560	7216	5408
458752	6240	4736
466944	7056	5488
475136	6592	5312
483328	6048	4880
491520	6528	5280
499712	6176	5024
507904	6000	4576
516096	6960	5808
524288	12544	10240
540672	12784	10496
557056	13968	10496
573440	26464	17104
589824	201840	197504
606208	18080	13632
622592	119200	111904
638976	154880	147264
655360	141216	131984
671744	186096	182368
688128	39520	36208
704512	97488	92128
720896	137824	132208
737280	77568	75728
753664	60400	55504
770048	129808	124000
786432	172944	163680
802816	259440	248944
819200	322560	316720
835584	91136	81552
851968	480208	457168
868352	1022688	991728
884736	701792	680320
901120	723952	708352
917504	513152	496448
933888	546128	530688
950272	510256	495984
966656	344768	332416
983040	367632	361840
999424	202128	196080
1015808	283584	274400
1032192	324352	315712
1048576	679648	662208
1081344	431376	415472
1114112	615616	601344
1146880	253088	248208
1179648	181008	175584
1212416	109600	105008
1245184	581136	561584
1277952	867696	856752
1310720	168752	165728
1343488	134912	131968
1376256	153296	148096
1409024	141232	140368
1441792	94816	93120
1474560	170464	164736
1507328	215664	209632
1540096	166416	163920
1572864	361408	354448
1605632	159856	156800
1638400	166640	163552
1671168	269600	261392
1703936	269696	263248
1736704	300544	297088
1769472	382592	373648
1802240	455888	446240
1835008	495984	490256
1867776	132576	132384
1900544	2032	1984
1933312	5440	5360
1966080	3168	3072
1998848	2064	1824
2031616	4704	4576
2064384	8000	5888
2097152	166240	165392
2162688	4224	4160
2228224	16064	15856
2293760	19664	19616
2359296	11056	10992
2424832	10832	10064
2490368	54496	50976
2555904	68304	67824
2621440	26352	26288
2686976	37424	37136
2752512	28208	28016
2818048	6592	6432
2883584	64432	64048
2949120	12672	12560
3014656	42320	39968
3080192	9840	9840
3145728	576	544
3211264	1376	1376
3276800	1744	1744
3342336	1600	1600
3407872	1136	1136
3473408	304	304
3538944	2176	2176
3604480	1760	1760
3670016	1840	1840
3735552	7888	7872
3801088	1168	1168
3866624	2400	2400
3932160	512	512
3997696	1024	1024
4063232	4000	3984
4128768	864	848
4194304	3936	3904
4325376	1248	1216
4456448	4160	4144
4587520	4800	4784
4718592	3344	3344
4849664	1024	1008
4980736	1664	1648
5111808	1152	1152
5242880	4464	4416
5373952	1952	1920
5505024	5632	5568
5636096	1536	1504
5767168	3152	3152
5898240	1584	1520
6029312	2656	2640
6160384	3440	3408
6291456	1184	1184
6422528	3408	3360
6553600	2400	2384
6684672	720	704
6815744	3424	3408
6946816	6720	6688
7077888	3200	3184
7208960	4608	4592
7340032	2720	2688
7471104	1568	1568
7602176	8240	8240
7733248	4224	4192
7864320	4784	4768
7995392	3008	3008
8126464	1936	1904
8257536	6544	6544
8388608	1856	1760
8650752	5280	5232
8912896	3888	3824
9175040	3280	2400
9437184	6400	6320
9699328	1536	1536
9961472	2320	2240
10223616	1200	1184
10485760	5024	4624
10747904	5056	4672
11010048	2128	1392
11272192	7344	6624
11534336	1504	1216
11796480	944	912
12058624	1120	1120
12320768	10752	10512
12582912	4416	3008
12845056	1504	1248
13107200	3728	3696
13369344	2208	1680
13631488	4176	3264
13893632	1328	816
14155776	3040	3040
14417920	2640	2608
14680064	2000	1968
14942208	944	944
15204352	12144	12128
15466496	3696	3664
15728640	1840	1840
15990784	3808	3808
16252928	2592	2592
16515072	1872	1840
16777216	4960	4944
17301504	5872	5840
17825792	2384	2352
18350080	4400	3584
18874368	944	864
19398656	3360	3280
19922944	1008	896
20447232	992	976
20971520	2080	2080
21495808	800	768
22020096	560	560
22544384	2976	2432
23068672	976	624
23592960	512	512
24117248	160	144
24641536	1840	1776
25165824	1024	944
25690112	576	560
26214400	1648	1648
26738688	416	416
27262976	864	848
27787264	1584	1584
28311552	1088	1040
28835840	416	416
29360128	2256	2256
29884416	624	624
30408704	1248	1248
30932992	224	224
31457280	960	960
31981568	272	272
32505856	3232	3232
33030144	704	672
33554432	2656	2640
34603008	1488	1456
35651584	1200	1168
36700160	4800	4752
37748736	3664	3584
38797312	2784	2752
39845888	3632	3600
40894464	2816	2736
41943040	2800	2768
42991616	2656	2624
44040192	4272	4272
45088768	3952	3952
46137344	1760	1696
47185920	2368	2368
48234496	5184	5136
49283072	3904	3904
50331648	2256	2256
51380224	2560	2512
52428800	1168	1168
53477376	2384	2384
54525952	752	752
55574528	1040	1024
56623104	560	560
57671680	224	224
58720256	752	752
59768832	672	672
60817408	688	672
61865984	400	384
62914560	384	368
63963136	1296	1296
65011712	192	192
66060288	112	112
67108864	960	944
69206016	2064	2064
71303168	1984	1984
73400320	784	768
75497472	2528	2528
77594624	3232	3232
79691776	4576	4576
81788928	1664	1664
83886080	2480	2480
85983232	1536	1536
88080384	1504	1504
90177536	3040	3040
92274688	2496	2480
94371840	672	672
96468992	688	688
98566144	736	736
100663296	688	688
102760448	176	176
104857600	0	0
106954752	0	0
109051904	0	0
111149056	0	0
113246208	80	80
115343360	16	16
117440512	0	0
119537664	64	64
121634816	176	176
123731968	0	0
125829120	624	624
127926272	512	512
130023424	80	80
132120576	0	0
134217728	16	16
138412032	0	0
142606336	16	16
146800640	0	0
150994944	0	0
155189248	32	32
159383552	0	0
163577856	0	0
167772160	0	0
171966464	0	0
176160768	0	0
180355072	0	0
184549376	0	0
188743680	0	0
192937984	0	0
197132288	0	0
201326592	0	0
205520896	0	0
209715200	0	0
213909504	0	0
218103808	0	0
222298112	0	0
226492416	0	0
230686720	0	0
234881024	0	0
239075328	0	0
243269632	0	0
247463936	0	0
251658240	0	0
255852544	0	0
260046848	0	0
264241152	0	0
268435456	0	0
276824064	0	0
285212672	0	0
293601280	0	0
301989888	0	0
310378496	0	0
318767104	0	0
327155712	0	0
335544320	0	0
343932928	0	0
352321536	0	0
360710144	0	0
369098752	0	0
377487360	0	0
385875968	0	0
394264576	0	0
402653184	0	0
411041792	0	0
419430400	0	0
427819008	0	0
436207616	0	0
444596224	0	0
452984832	0	0
461373440	0	0
469762048	0	0
478150656	0	0
486539264	0	0
494927872	0	0
503316480	0	0
511705088	0	0
520093696	0	0
528482304	0	0
536870912	0	0
553648128	0	0
570425344	0	0
587202560	0	0
603979776	0	0
620756992	0	0
637534208	0	0
654311424	0	0
671088640	0	0
687865856	0	0
704643072	0	0
721420288	0	0
738197504	0	0
754974720	0	0
771751936	0	0
788529152	0	0
805306368	0	0
822083584	0	0
838860800	0	0
855638016	0	0
872415232	0	0
889192448	0	0
905969664	0	0
922746880	0	0
939524096	0	0
956301312	0	0
973078528	0	0
989855744	0	0
1006632960	0	0
1023410176	0	0
1040187392	0	0
1056964608	0	0
1073741824	0	0
1107296256	0	0
1140850688	0	0
1174405120	0	0
1207959552	0	0
1241513984	0	0
1275068416	0	0
1308622848	0	0
1342177280	0	0
1375731712	0	0
1409286144	0	0
1442840576	0	0
1476395008	0	0
1509949440	0	0
1543503872	0	0
1577058304	0	0
1610612736	0	0
1644167168	0	0
1677721600	0	0
1711276032	0	0
1744830464	0	0
1778384896	0	0
1811939328	0	0
1845493760	0	0
1879048192	0	0
1912602624	0	0
1946157056	0	0
1979711488	0	0
2013265920	0	0
2046820352	0	0
2080374784	0	0
2113929216	0	0
2147483648	0	0
2214592512	0	0
2281701376	0	0
2348810240	0	0
2415919104	0	0
2483027968	0	0
2550136832	0	0
2617245696	0	0
2684354560	0	0
2751463424	0	0
2818572288	0	0
2885681152	0	0
2952790016	0	0
3019898880	0	0
3087007744	0	0
3154116608	0	0
3221225472	0	0
3288334336	0	0
3355443200	0	0
3422552064	0	0
3489660928	0	0
3556769792	0	0
3623878656	0	0
3690987520	0	0
3758096384	0	0
3825205248	0	0
3892314112	0	0
3959422976	0	0
4026531840	0	0
4093640704	0	0
4160749568	0	0
4227858432	0	0
~~~~~~~~~~Reuse Distance Profiler output end~~~~~~~~~~

Sampler size:11685

DRAM Statistics
 CHANNEL 0
 RQ ROW_BUFFER_HIT:    1306850  ROW_BUFFER_MISS:   12507806
 DBUS AVG_CONGESTED_CYCLE:    3.88534
 WQ ROW_BUFFER_HIT:     212868  ROW_BUFFER_MISS:     260567  FULL:          0


CPU 0 Branch Prediction Accuracy: 92.9794% MPKI: 6.62931 Average ROB Occupancy at Mispredict: 182.3
Branch type MPKI
BRANCH_DIRECT_JUMP: 6.66667e-06
BRANCH_INDIRECT: 0
BRANCH_CONDITIONAL: 6.62929
BRANCH_DIRECT_CALL: 1.33333e-06
BRANCH_INDIRECT_CALL: 2e-06
BRANCH_RETURN: 3.33333e-06

