
*** ChampSim Multicore Out-of-Order Simulator ***

Warmup Instructions: 50000000
Simulation Instructions: 1500000000
Number of CPUs: 1
Off-chip DRAM Size: 4 GiB Channels: 1 Width: 64-bit Data Rate: 3200 MT/s

VirtualMemory physical capacity: 8588881920 num_ppages: 2096895
VirtualMemory page size: 4096 log2_page_size: 12

CPU 0 runs /s/traces/champsim_traces/600.perlbench_s-570B.champsimtrace.xz
CPU 0 Bimodal branch predictor
Basic BTB sets: 1024 ways: 8 indirect buffer size: 4096 RAS size: 64
Initializing LRU.
Initializing LRU.
Initializing LRU.
Initializing LRU.
Initializing rdLRU.
Initializing LRU.
Heartbeat CPU 0 instructions: 2000000 cycles: 503384 heartbeat IPC: 3.97311 cumulative IPC: 3.97311 (Simulation time: 0 hr 0 min 58 sec) 
Heartbeat CPU 0 instructions: 4000002 cycles: 1005236 heartbeat IPC: 3.98524 cumulative IPC: 3.97917 (Simulation time: 0 hr 1 min 54 sec) 
Heartbeat CPU 0 instructions: 6000003 cycles: 1505451 heartbeat IPC: 3.99828 cumulative IPC: 3.98552 (Simulation time: 0 hr 2 min 49 sec) 
Heartbeat CPU 0 instructions: 8000001 cycles: 2009783 heartbeat IPC: 3.96564 cumulative IPC: 3.98053 (Simulation time: 0 hr 3 min 28 sec) 
Heartbeat CPU 0 instructions: 10000001 cycles: 2509957 heartbeat IPC: 3.99861 cumulative IPC: 3.98413 (Simulation time: 0 hr 4 min 26 sec) 
Heartbeat CPU 0 instructions: 12000001 cycles: 3009957 heartbeat IPC: 4 cumulative IPC: 3.98677 (Simulation time: 0 hr 5 min 25 sec) 
Heartbeat CPU 0 instructions: 14000001 cycles: 3509957 heartbeat IPC: 4 cumulative IPC: 3.98865 (Simulation time: 0 hr 6 min 27 sec) 
Heartbeat CPU 0 instructions: 16000001 cycles: 4009957 heartbeat IPC: 4 cumulative IPC: 3.99007 (Simulation time: 0 hr 7 min 26 sec) 
Heartbeat CPU 0 instructions: 18000002 cycles: 4510034 heartbeat IPC: 3.99939 cumulative IPC: 3.9911 (Simulation time: 0 hr 8 min 22 sec) 
Heartbeat CPU 0 instructions: 20000001 cycles: 5010285 heartbeat IPC: 3.99799 cumulative IPC: 3.99179 (Simulation time: 0 hr 9 min 16 sec) 
Heartbeat CPU 0 instructions: 22000002 cycles: 5510703 heartbeat IPC: 3.99666 cumulative IPC: 3.99223 (Simulation time: 0 hr 10 min 13 sec) 
Heartbeat CPU 0 instructions: 24000002 cycles: 6010703 heartbeat IPC: 4 cumulative IPC: 3.99288 (Simulation time: 0 hr 11 min 13 sec) 
Heartbeat CPU 0 instructions: 26000002 cycles: 6510703 heartbeat IPC: 4 cumulative IPC: 3.99342 (Simulation time: 0 hr 12 min 3 sec) 
Heartbeat CPU 0 instructions: 28000002 cycles: 7010703 heartbeat IPC: 4 cumulative IPC: 3.99389 (Simulation time: 0 hr 13 min 1 sec) 
Heartbeat CPU 0 instructions: 30000002 cycles: 7510703 heartbeat IPC: 4 cumulative IPC: 3.9943 (Simulation time: 0 hr 13 min 58 sec) 
Heartbeat CPU 0 instructions: 32000002 cycles: 8010703 heartbeat IPC: 4 cumulative IPC: 3.99466 (Simulation time: 0 hr 14 min 59 sec) 
Heartbeat CPU 0 instructions: 34000002 cycles: 8510703 heartbeat IPC: 4 cumulative IPC: 3.99497 (Simulation time: 0 hr 15 min 48 sec) 
Heartbeat CPU 0 instructions: 36000002 cycles: 9010703 heartbeat IPC: 4 cumulative IPC: 3.99525 (Simulation time: 0 hr 16 min 48 sec) 
Heartbeat CPU 0 instructions: 38000001 cycles: 9510736 heartbeat IPC: 3.99973 cumulative IPC: 3.99548 (Simulation time: 0 hr 17 min 45 sec) 
Heartbeat CPU 0 instructions: 40000003 cycles: 10010755 heartbeat IPC: 3.99985 cumulative IPC: 3.9957 (Simulation time: 0 hr 18 min 43 sec) 
Heartbeat CPU 0 instructions: 42000003 cycles: 10510755 heartbeat IPC: 4 cumulative IPC: 3.99591 (Simulation time: 0 hr 19 min 38 sec) 
Heartbeat CPU 0 instructions: 44000003 cycles: 11010755 heartbeat IPC: 4 cumulative IPC: 3.99609 (Simulation time: 0 hr 20 min 38 sec) 
Heartbeat CPU 0 instructions: 46000002 cycles: 11515714 heartbeat IPC: 3.96072 cumulative IPC: 3.99454 (Simulation time: 0 hr 21 min 33 sec) 
Heartbeat CPU 0 instructions: 48000002 cycles: 12015714 heartbeat IPC: 4 cumulative IPC: 3.99477 (Simulation time: 0 hr 22 min 29 sec) 
Heartbeat CPU 0 instructions: 50000002 cycles: 12515714 heartbeat IPC: 4 cumulative IPC: 3.99498 (Simulation time: 0 hr 23 min 25 sec) 

Warmup complete CPU 0 instructions: 50000002 cycles: 12515714 (Simulation time: 0 hr 23 min 25 sec) 

Heartbeat CPU 0 instructions: 52000000 cycles: 13540013 heartbeat IPC: 1.95255 cumulative IPC: 1.95255 (Simulation time: 0 hr 24 min 37 sec) 

Region of Interest Statistics
cpu0_DTLB TOTAL     ACCESS:     364661  HIT:     364658  MISS:          3
cpu0_DTLB LOAD      ACCESS:     200588  HIT:     200585  MISS:          3
cpu0_DTLB RFO       ACCESS:     164073  HIT:     164073  MISS:          0
cpu0_DTLB PREFETCH  ACCESS:          0  HIT:          0  MISS:          0
cpu0_DTLB WRITEBACK ACCESS:          0  HIT:          0  MISS:          0
cpu0_ITLB TOTAL     ACCESS:     211866  HIT:     211866  MISS:          0
cpu0_ITLB LOAD      ACCESS:     211866  HIT:     211866  MISS:          0
cpu0_ITLB RFO       ACCESS:          0  HIT:          0  MISS:          0
cpu0_ITLB PREFETCH  ACCESS:          0  HIT:          0  MISS:          0
cpu0_ITLB WRITEBACK ACCESS:          0  HIT:          0  MISS:          0
cpu0_L1I TOTAL     ACCESS:       1199  HIT:       1199  MISS:          0
cpu0_L1I LOAD      ACCESS:       1199  HIT:       1199  MISS:          0
cpu0_L1I RFO       ACCESS:          0  HIT:          0  MISS:          0
cpu0_L1I PREFETCH  ACCESS:          0  HIT:          0  MISS:          0
cpu0_L1I WRITEBACK ACCESS:          0  HIT:          0  MISS:          0
cpu0_STLB TOTAL     ACCESS:          3  HIT:          3  MISS:          0
cpu0_STLB LOAD      ACCESS:          3  HIT:          3  MISS:          0
cpu0_STLB RFO       ACCESS:          0  HIT:          0  MISS:          0
cpu0_STLB PREFETCH  ACCESS:          0  HIT:          0  MISS:          0
cpu0_STLB WRITEBACK ACCESS:          0  HIT:          0  MISS:          0
cpu0_L1D TOTAL     ACCESS:     701390  HIT:     701388  MISS:          2
cpu0_L1D LOAD      ACCESS:     241358  HIT:     241356  MISS:          2
cpu0_L1D RFO       ACCESS:     460032  HIT:     460032  MISS:          0
cpu0_L1D PREFETCH  ACCESS:          0  HIT:          0  MISS:          0
cpu0_L1D WRITEBACK ACCESS:          0  HIT:          0  MISS:          0
cpu0_L2C TOTAL     ACCESS:          2  HIT:          1  MISS:          1
cpu0_L2C LOAD      ACCESS:          2  HIT:          1  MISS:          1
cpu0_L2C RFO       ACCESS:          0  HIT:          0  MISS:          0
cpu0_L2C PREFETCH  ACCESS:          0  HIT:          0  MISS:          0
cpu0_L2C WRITEBACK ACCESS:          0  HIT:          0  MISS:          0
LLC TOTAL     ACCESS:          1  HIT:          0  MISS:          1
LLC LOAD      ACCESS:          1  HIT:          0  MISS:          1
LLC RFO       ACCESS:          0  HIT:          0  MISS:          0
LLC PREFETCH  ACCESS:          0  HIT:          0  MISS:          0
LLC WRITEBACK ACCESS:          0  HIT:          0  MISS:          0
Heartbeat CPU 0 instructions: 54000004 cycles: 14565341 heartbeat IPC: 1.9506 cumulative IPC: 1.95158 (Simulation time: 0 hr 25 min 48 sec) 

Region of Interest Statistics
cpu0_DTLB TOTAL     ACCESS:     729717  HIT:     729711  MISS:          6
cpu0_DTLB LOAD      ACCESS:     401479  HIT:     401473  MISS:          6
cpu0_DTLB RFO       ACCESS:     328238  HIT:     328238  MISS:          0
cpu0_DTLB PREFETCH  ACCESS:          0  HIT:          0  MISS:          0
cpu0_DTLB WRITEBACK ACCESS:          0  HIT:          0  MISS:          0
cpu0_ITLB TOTAL     ACCESS:     423878  HIT:     423878  MISS:          0
cpu0_ITLB LOAD      ACCESS:     423878  HIT:     423878  MISS:          0
cpu0_ITLB RFO       ACCESS:          0  HIT:          0  MISS:          0
cpu0_ITLB PREFETCH  ACCESS:          0  HIT:          0  MISS:          0
cpu0_ITLB WRITEBACK ACCESS:          0  HIT:          0  MISS:          0
cpu0_L1I TOTAL     ACCESS:       2328  HIT:       2328  MISS:          0
cpu0_L1I LOAD      ACCESS:       2328  HIT:       2328  MISS:          0
cpu0_L1I RFO       ACCESS:          0  HIT:          0  MISS:          0
cpu0_L1I PREFETCH  ACCESS:          0  HIT:          0  MISS:          0
cpu0_L1I WRITEBACK ACCESS:          0  HIT:          0  MISS:          0
cpu0_STLB TOTAL     ACCESS:          6  HIT:          6  MISS:          0
cpu0_STLB LOAD      ACCESS:          6  HIT:          6  MISS:          0
cpu0_STLB RFO       ACCESS:          0  HIT:          0  MISS:          0
cpu0_STLB PREFETCH  ACCESS:          0  HIT:          0  MISS:          0
cpu0_STLB WRITEBACK ACCESS:          0  HIT:          0  MISS:          0
cpu0_L1D TOTAL     ACCESS:    1403527  HIT:    1403525  MISS:          2
cpu0_L1D LOAD      ACCESS:     483244  HIT:     483242  MISS:          2
cpu0_L1D RFO       ACCESS:     920283  HIT:     920283  MISS:          0
cpu0_L1D PREFETCH  ACCESS:          0  HIT:          0  MISS:          0
cpu0_L1D WRITEBACK ACCESS:          0  HIT:          0  MISS:          0
cpu0_L2C TOTAL     ACCESS:          2  HIT:          1  MISS:          1
cpu0_L2C LOAD      ACCESS:          2  HIT:          1  MISS:          1
cpu0_L2C RFO       ACCESS:          0  HIT:          0  MISS:          0
cpu0_L2C PREFETCH  ACCESS:          0  HIT:          0  MISS:          0
cpu0_L2C WRITEBACK ACCESS:          0  HIT:          0  MISS:          0
LLC TOTAL     ACCESS:          1  HIT:          0  MISS:          1
LLC LOAD      ACCESS:          1  HIT:          0  MISS:          1
LLC RFO       ACCESS:          0  HIT:          0  MISS:          0
LLC PREFETCH  ACCESS:          0  HIT:          0  MISS:          0
LLC WRITEBACK ACCESS:          0  HIT:          0  MISS:          0
Heartbeat CPU 0 instructions: 56000001 cycles: 15617635 heartbeat IPC: 1.90061 cumulative IPC: 1.93428 (Simulation time: 0 hr 27 min 13 sec) 

Region of Interest Statistics
cpu0_DTLB TOTAL     ACCESS:    1067816  HIT:    1067568  MISS:        248
cpu0_DTLB LOAD      ACCESS:     579200  HIT:     578976  MISS:        224
cpu0_DTLB RFO       ACCESS:     488616  HIT:     488592  MISS:         24
cpu0_DTLB PREFETCH  ACCESS:          0  HIT:          0  MISS:          0
cpu0_DTLB WRITEBACK ACCESS:          0  HIT:          0  MISS:          0
cpu0_ITLB TOTAL     ACCESS:     572477  HIT:     572460  MISS:         17
cpu0_ITLB LOAD      ACCESS:     572477  HIT:     572460  MISS:         17
cpu0_ITLB RFO       ACCESS:          0  HIT:          0  MISS:          0
cpu0_ITLB PREFETCH  ACCESS:          0  HIT:          0  MISS:          0
cpu0_ITLB WRITEBACK ACCESS:          0  HIT:          0  MISS:          0
cpu0_L1I TOTAL     ACCESS:      78811  HIT:      78682  MISS:        129
cpu0_L1I LOAD      ACCESS:      78811  HIT:      78682  MISS:        129
cpu0_L1I RFO       ACCESS:          0  HIT:          0  MISS:          0
cpu0_L1I PREFETCH  ACCESS:          0  HIT:          0  MISS:          0
cpu0_L1I WRITEBACK ACCESS:          0  HIT:          0  MISS:          0
cpu0_STLB TOTAL     ACCESS:        265  HIT:        240  MISS:         25
cpu0_STLB LOAD      ACCESS:        241  HIT:        219  MISS:         22
cpu0_STLB RFO       ACCESS:         24  HIT:         21  MISS:          3
cpu0_STLB PREFETCH  ACCESS:          0  HIT:          0  MISS:          0
cpu0_STLB WRITEBACK ACCESS:          0  HIT:          0  MISS:          0
cpu0_L1D TOTAL     ACCESS:    2032109  HIT:    2031809  MISS:        300
cpu0_L1D LOAD      ACCESS:     700336  HIT:     700049  MISS:        287
cpu0_L1D RFO       ACCESS:    1331748  HIT:    1331736  MISS:         12
cpu0_L1D PREFETCH  ACCESS:          0  HIT:          0  MISS:          0
cpu0_L1D WRITEBACK ACCESS:          0  HIT:          0  MISS:          0
cpu0_L2C TOTAL     ACCESS:        463  HIT:        164  MISS:        299
cpu0_L2C LOAD      ACCESS:        416  HIT:        129  MISS:        287
cpu0_L2C RFO       ACCESS:         12  HIT:          0  MISS:         12
cpu0_L2C PREFETCH  ACCESS:          0  HIT:          0  MISS:          0
cpu0_L2C WRITEBACK ACCESS:         34  HIT:         34  MISS:          0
LLC TOTAL     ACCESS:        304  HIT:          5  MISS:        299
LLC LOAD      ACCESS:        287  HIT:          0  MISS:        287
LLC RFO       ACCESS:         12  HIT:          0  MISS:         12
LLC PREFETCH  ACCESS:          0  HIT:          0  MISS:          0
LLC WRITEBACK ACCESS:          5  HIT:          5  MISS:          0
Heartbeat CPU 0 instructions: 58000000 cycles: 16706112 heartbeat IPC: 1.83743 cumulative IPC: 1.90913 (Simulation time: 0 hr 28 min 37 sec) 

Region of Interest Statistics
cpu0_DTLB TOTAL     ACCESS:    1421547  HIT:    1421122  MISS:        425
cpu0_DTLB LOAD      ACCESS:     768393  HIT:     768010  MISS:        383
cpu0_DTLB RFO       ACCESS:     653154  HIT:     653112  MISS:         42
cpu0_DTLB PREFETCH  ACCESS:          0  HIT:          0  MISS:          0
cpu0_DTLB WRITEBACK ACCESS:          0  HIT:          0  MISS:          0
cpu0_ITLB TOTAL     ACCESS:     718622  HIT:     718595  MISS:         27
cpu0_ITLB LOAD      ACCESS:     718622  HIT:     718595  MISS:         27
cpu0_ITLB RFO       ACCESS:          0  HIT:          0  MISS:          0
cpu0_ITLB PREFETCH  ACCESS:          0  HIT:          0  MISS:          0
cpu0_ITLB WRITEBACK ACCESS:          0  HIT:          0  MISS:          0
cpu0_L1I TOTAL     ACCESS:     158878  HIT:     158668  MISS:        210
cpu0_L1I LOAD      ACCESS:     158878  HIT:     158668  MISS:        210
cpu0_L1I RFO       ACCESS:          0  HIT:          0  MISS:          0
cpu0_L1I PREFETCH  ACCESS:          0  HIT:          0  MISS:          0
cpu0_L1I WRITEBACK ACCESS:          0  HIT:          0  MISS:          0
cpu0_STLB TOTAL     ACCESS:        452  HIT:        404  MISS:         48
cpu0_STLB LOAD      ACCESS:        410  HIT:        369  MISS:         41
cpu0_STLB RFO       ACCESS:         42  HIT:         35  MISS:          7
cpu0_STLB PREFETCH  ACCESS:          0  HIT:          0  MISS:          0
cpu0_STLB WRITEBACK ACCESS:          0  HIT:          0  MISS:          0
cpu0_L1D TOTAL     ACCESS:    2689555  HIT:    2688976  MISS:        579
cpu0_L1D LOAD      ACCESS:     925170  HIT:     924611  MISS:        559
cpu0_L1D RFO       ACCESS:    1764337  HIT:    1764318  MISS:         19
cpu0_L1D PREFETCH  ACCESS:          0  HIT:          0  MISS:          0
cpu0_L1D WRITEBACK ACCESS:          0  HIT:          0  MISS:          0
cpu0_L2C TOTAL     ACCESS:        854  HIT:        276  MISS:        578
cpu0_L2C LOAD      ACCESS:        769  HIT:        209  MISS:        560
cpu0_L2C RFO       ACCESS:         19  HIT:          1  MISS:         18
cpu0_L2C PREFETCH  ACCESS:          0  HIT:          0  MISS:          0
cpu0_L2C WRITEBACK ACCESS:         65  HIT:         65  MISS:          0
LLC TOTAL     ACCESS:        593  HIT:         16  MISS:        577
LLC LOAD      ACCESS:        560  HIT:          1  MISS:        559
LLC RFO       ACCESS:         18  HIT:          0  MISS:         18
LLC PREFETCH  ACCESS:          0  HIT:          0  MISS:          0
LLC WRITEBACK ACCESS:         15  HIT:         15  MISS:          0
Heartbeat CPU 0 instructions: 60000000 cycles: 17755534 heartbeat IPC: 1.90581 cumulative IPC: 1.90846 (Simulation time: 0 hr 29 min 51 sec) 

Region of Interest Statistics
cpu0_DTLB TOTAL     ACCESS:    1782302  HIT:    1780471  MISS:       1831
cpu0_DTLB LOAD      ACCESS:     966279  HIT:     964498  MISS:       1781
cpu0_DTLB RFO       ACCESS:     816023  HIT:     815973  MISS:         50
cpu0_DTLB PREFETCH  ACCESS:          0  HIT:          0  MISS:          0
cpu0_DTLB WRITEBACK ACCESS:          0  HIT:          0  MISS:          0
cpu0_ITLB TOTAL     ACCESS:     893678  HIT:     893645  MISS:         33
cpu0_ITLB LOAD      ACCESS:     893678  HIT:     893645  MISS:         33
cpu0_ITLB RFO       ACCESS:          0  HIT:          0  MISS:          0
cpu0_ITLB PREFETCH  ACCESS:          0  HIT:          0  MISS:          0
cpu0_ITLB WRITEBACK ACCESS:          0  HIT:          0  MISS:          0
cpu0_L1I TOTAL     ACCESS:     193687  HIT:     193396  MISS:        291
cpu0_L1I LOAD      ACCESS:     193687  HIT:     193396  MISS:        291
cpu0_L1I RFO       ACCESS:          0  HIT:          0  MISS:          0
cpu0_L1I PREFETCH  ACCESS:          0  HIT:          0  MISS:          0
cpu0_L1I WRITEBACK ACCESS:          0  HIT:          0  MISS:          0
cpu0_STLB TOTAL     ACCESS:       1864  HIT:       1809  MISS:         55
cpu0_STLB LOAD      ACCESS:       1814  HIT:       1768  MISS:         46
cpu0_STLB RFO       ACCESS:         50  HIT:         41  MISS:          9
cpu0_STLB PREFETCH  ACCESS:          0  HIT:          0  MISS:          0
cpu0_STLB WRITEBACK ACCESS:          0  HIT:          0  MISS:          0
cpu0_L1D TOTAL     ACCESS:    3372011  HIT:    3371320  MISS:        691
cpu0_L1D LOAD      ACCESS:    1163251  HIT:    1162592  MISS:        659
cpu0_L1D RFO       ACCESS:    2208705  HIT:    2208675  MISS:         30
cpu0_L1D PREFETCH  ACCESS:          0  HIT:          0  MISS:          0
cpu0_L1D WRITEBACK ACCESS:          0  HIT:          0  MISS:          0
cpu0_L2C TOTAL     ACCESS:       1056  HIT:        368  MISS:        688
cpu0_L2C LOAD      ACCESS:        950  HIT:        286  MISS:        664
cpu0_L2C RFO       ACCESS:         30  HIT:          6  MISS:         24
cpu0_L2C PREFETCH  ACCESS:          0  HIT:          0  MISS:          0
cpu0_L2C WRITEBACK ACCESS:         74  HIT:         74  MISS:          0
LLC TOTAL     ACCESS:        705  HIT:         22  MISS:        683
LLC LOAD      ACCESS:        664  HIT:          5  MISS:        659
LLC RFO       ACCESS:         24  HIT:          0  MISS:         24
LLC PREFETCH  ACCESS:          0  HIT:          0  MISS:          0
LLC WRITEBACK ACCESS:         17  HIT:         17  MISS:          0
Heartbeat CPU 0 instructions: 62000004 cycles: 19386763 heartbeat IPC: 1.22607 cumulative IPC: 1.74646 (Simulation time: 0 hr 31 min 16 sec) 

Region of Interest Statistics
cpu0_DTLB TOTAL     ACCESS:    2134427  HIT:    2131171  MISS:       3256
cpu0_DTLB LOAD      ACCESS:    1172804  HIT:    1169722  MISS:       3082
cpu0_DTLB RFO       ACCESS:     961623  HIT:     961449  MISS:        174
cpu0_DTLB PREFETCH  ACCESS:          0  HIT:          0  MISS:          0
cpu0_DTLB WRITEBACK ACCESS:          0  HIT:          0  MISS:          0
cpu0_ITLB TOTAL     ACCESS:    1044186  HIT:    1044064  MISS:        122
cpu0_ITLB LOAD      ACCESS:    1044186  HIT:    1044064  MISS:        122
cpu0_ITLB RFO       ACCESS:          0  HIT:          0  MISS:          0
cpu0_ITLB PREFETCH  ACCESS:          0  HIT:          0  MISS:          0
cpu0_ITLB WRITEBACK ACCESS:          0  HIT:          0  MISS:          0
cpu0_L1I TOTAL     ACCESS:     300351  HIT:     298780  MISS:       1571
cpu0_L1I LOAD      ACCESS:     300351  HIT:     298780  MISS:       1571
cpu0_L1I RFO       ACCESS:          0  HIT:          0  MISS:          0
cpu0_L1I PREFETCH  ACCESS:          0  HIT:          0  MISS:          0
cpu0_L1I WRITEBACK ACCESS:          0  HIT:          0  MISS:          0
cpu0_STLB TOTAL     ACCESS:       3378  HIT:       2881  MISS:        497
cpu0_STLB LOAD      ACCESS:       3204  HIT:       2758  MISS:        446
cpu0_STLB RFO       ACCESS:        174  HIT:        123  MISS:         51
cpu0_STLB PREFETCH  ACCESS:          0  HIT:          0  MISS:          0
cpu0_STLB WRITEBACK ACCESS:          0  HIT:          0  MISS:          0
cpu0_L1D TOTAL     ACCESS:    3978289  HIT:    3975358  MISS:       2931
cpu0_L1D LOAD      ACCESS:    1401726  HIT:    1398964  MISS:       2762
cpu0_L1D RFO       ACCESS:    2576069  HIT:    2575913  MISS:        156
cpu0_L1D PREFETCH  ACCESS:          0  HIT:          0  MISS:          0
cpu0_L1D WRITEBACK ACCESS:          0  HIT:          0  MISS:          0
cpu0_L2C TOTAL     ACCESS:       5026  HIT:       1634  MISS:       3392
cpu0_L2C LOAD      ACCESS:       4333  HIT:       1088  MISS:       3245
cpu0_L2C RFO       ACCESS:        156  HIT:         28  MISS:        128
cpu0_L2C PREFETCH  ACCESS:          0  HIT:          0  MISS:          0
cpu0_L2C WRITEBACK ACCESS:        524  HIT:        508  MISS:         16
LLC TOTAL     ACCESS:       3539  HIT:        282  MISS:       3257
LLC LOAD      ACCESS:       3245  HIT:        107  MISS:       3138
LLC RFO       ACCESS:        128  HIT:          9  MISS:        119
LLC PREFETCH  ACCESS:          0  HIT:          0  MISS:          0
LLC WRITEBACK ACCESS:        163  HIT:        163  MISS:          0
Heartbeat CPU 0 instructions: 64000000 cycles: 21915709 heartbeat IPC: 0.790842 cumulative IPC: 1.48936 (Simulation time: 0 hr 32 min 31 sec) 

Region of Interest Statistics
cpu0_DTLB TOTAL     ACCESS:    2573194  HIT:    2558436  MISS:      14758
cpu0_DTLB LOAD      ACCESS:    1455810  HIT:    1442015  MISS:      13795
cpu0_DTLB RFO       ACCESS:    1117384  HIT:    1116421  MISS:        963
cpu0_DTLB PREFETCH  ACCESS:          0  HIT:          0  MISS:          0
cpu0_DTLB WRITEBACK ACCESS:          0  HIT:          0  MISS:          0
cpu0_ITLB TOTAL     ACCESS:    1202587  HIT:    1201620  MISS:        967
cpu0_ITLB LOAD      ACCESS:    1202587  HIT:    1201620  MISS:        967
cpu0_ITLB RFO       ACCESS:          0  HIT:          0  MISS:          0
cpu0_ITLB PREFETCH  ACCESS:          0  HIT:          0  MISS:          0
cpu0_ITLB WRITEBACK ACCESS:          0  HIT:          0  MISS:          0
cpu0_L1I TOTAL     ACCESS:     523094  HIT:     505545  MISS:      17549
cpu0_L1I LOAD      ACCESS:     523094  HIT:     505545  MISS:      17549
cpu0_L1I RFO       ACCESS:          0  HIT:          0  MISS:          0
cpu0_L1I PREFETCH  ACCESS:          0  HIT:          0  MISS:          0
cpu0_L1I WRITEBACK ACCESS:          0  HIT:          0  MISS:          0
cpu0_STLB TOTAL     ACCESS:      15725  HIT:      14800  MISS:        925
cpu0_STLB LOAD      ACCESS:      14762  HIT:      13931  MISS:        831
cpu0_STLB RFO       ACCESS:        963  HIT:        869  MISS:         94
cpu0_STLB PREFETCH  ACCESS:          0  HIT:          0  MISS:          0
cpu0_STLB WRITEBACK ACCESS:          0  HIT:          0  MISS:          0
cpu0_L1D TOTAL     ACCESS:    4582659  HIT:    4572733  MISS:       9926
cpu0_L1D LOAD      ACCESS:    1694402  HIT:    1685099  MISS:       9303
cpu0_L1D RFO       ACCESS:    2887335  HIT:    2886765  MISS:        570
cpu0_L1D PREFETCH  ACCESS:          0  HIT:          0  MISS:          0
cpu0_L1D WRITEBACK ACCESS:          0  HIT:          0  MISS:          0
cpu0_L2C TOTAL     ACCESS:      29613  HIT:      22049  MISS:       7564
cpu0_L2C LOAD      ACCESS:      26852  HIT:      19599  MISS:       7253
cpu0_L2C RFO       ACCESS:        570  HIT:        284  MISS:        286
cpu0_L2C PREFETCH  ACCESS:          0  HIT:          0  MISS:          0
cpu0_L2C WRITEBACK ACCESS:       2138  HIT:       2118  MISS:         20
LLC TOTAL     ACCESS:       8165  HIT:       1051  MISS:       7114
LLC LOAD      ACCESS:       7253  HIT:        408  MISS:       6845
LLC RFO       ACCESS:        286  HIT:         17  MISS:        269
LLC PREFETCH  ACCESS:          0  HIT:          0  MISS:          0
LLC WRITEBACK ACCESS:        621  HIT:        621  MISS:          0
Heartbeat CPU 0 instructions: 66000000 cycles: 23717896 heartbeat IPC: 1.10976 cumulative IPC: 1.42829 (Simulation time: 0 hr 33 min 40 sec) 

Region of Interest Statistics
cpu0_DTLB TOTAL     ACCESS:    2948879  HIT:    2928691  MISS:      20188
cpu0_DTLB LOAD      ACCESS:    1699277  HIT:    1680430  MISS:      18847
cpu0_DTLB RFO       ACCESS:    1249602  HIT:    1248261  MISS:       1341
cpu0_DTLB PREFETCH  ACCESS:          0  HIT:          0  MISS:          0
cpu0_DTLB WRITEBACK ACCESS:          0  HIT:          0  MISS:          0
cpu0_ITLB TOTAL     ACCESS:    1321516  HIT:    1320321  MISS:       1195
cpu0_ITLB LOAD      ACCESS:    1321516  HIT:    1320321  MISS:       1195
cpu0_ITLB RFO       ACCESS:          0  HIT:          0  MISS:          0
cpu0_ITLB PREFETCH  ACCESS:          0  HIT:          0  MISS:          0
cpu0_ITLB WRITEBACK ACCESS:          0  HIT:          0  MISS:          0
cpu0_L1I TOTAL     ACCESS:     732427  HIT:     709437  MISS:      22990
cpu0_L1I LOAD      ACCESS:     732427  HIT:     709437  MISS:      22990
cpu0_L1I RFO       ACCESS:          0  HIT:          0  MISS:          0
cpu0_L1I PREFETCH  ACCESS:          0  HIT:          0  MISS:          0
cpu0_L1I WRITEBACK ACCESS:          0  HIT:          0  MISS:          0
cpu0_STLB TOTAL     ACCESS:      21383  HIT:      20287  MISS:       1096
cpu0_STLB LOAD      ACCESS:      20042  HIT:      19062  MISS:        980
cpu0_STLB RFO       ACCESS:       1341  HIT:       1225  MISS:        116
cpu0_STLB PREFETCH  ACCESS:          0  HIT:          0  MISS:          0
cpu0_STLB WRITEBACK ACCESS:          0  HIT:          0  MISS:          0
cpu0_L1D TOTAL     ACCESS:    5151430  HIT:    5137737  MISS:      13693
cpu0_L1D LOAD      ACCESS:    1948551  HIT:    1935699  MISS:      12852
cpu0_L1D RFO       ACCESS:    3201787  HIT:    3201008  MISS:        779
cpu0_L1D PREFETCH  ACCESS:          0  HIT:          0  MISS:          0
cpu0_L1D WRITEBACK ACCESS:          0  HIT:          0  MISS:          0
cpu0_L2C TOTAL     ACCESS:      39643  HIT:      30213  MISS:       9430
cpu0_L2C LOAD      ACCESS:      35842  HIT:      26825  MISS:       9017
cpu0_L2C RFO       ACCESS:        779  HIT:        397  MISS:        382
cpu0_L2C PREFETCH  ACCESS:          0  HIT:          0  MISS:          0
cpu0_L2C WRITEBACK ACCESS:       2960  HIT:       2934  MISS:         26
LLC TOTAL     ACCESS:      10333  HIT:       1571  MISS:       8762
LLC LOAD      ACCESS:       9017  HIT:        617  MISS:       8400
LLC RFO       ACCESS:        382  HIT:         20  MISS:        362
LLC PREFETCH  ACCESS:          0  HIT:          0  MISS:          0
LLC WRITEBACK ACCESS:        929  HIT:        929  MISS:          0
Heartbeat CPU 0 instructions: 68000000 cycles: 24789809 heartbeat IPC: 1.86582 cumulative IPC: 1.4665 (Simulation time: 0 hr 34 min 49 sec) 

Region of Interest Statistics
cpu0_DTLB TOTAL     ACCESS:    3322179  HIT:    3301867  MISS:      20312
cpu0_DTLB LOAD      ACCESS:    1908199  HIT:    1889228  MISS:      18971
cpu0_DTLB RFO       ACCESS:    1413980  HIT:    1412639  MISS:       1341
cpu0_DTLB PREFETCH  ACCESS:          0  HIT:          0  MISS:          0
cpu0_DTLB WRITEBACK ACCESS:          0  HIT:          0  MISS:          0
cpu0_ITLB TOTAL     ACCESS:    1452759  HIT:    1451560  MISS:       1199
cpu0_ITLB LOAD      ACCESS:    1452759  HIT:    1451560  MISS:       1199
cpu0_ITLB RFO       ACCESS:          0  HIT:          0  MISS:          0
cpu0_ITLB PREFETCH  ACCESS:          0  HIT:          0  MISS:          0
cpu0_ITLB WRITEBACK ACCESS:          0  HIT:          0  MISS:          0
cpu0_L1I TOTAL     ACCESS:     818180  HIT:     795101  MISS:      23079
cpu0_L1I LOAD      ACCESS:     818180  HIT:     795101  MISS:      23079
cpu0_L1I RFO       ACCESS:          0  HIT:          0  MISS:          0
cpu0_L1I PREFETCH  ACCESS:          0  HIT:          0  MISS:          0
cpu0_L1I WRITEBACK ACCESS:          0  HIT:          0  MISS:          0
cpu0_STLB TOTAL     ACCESS:      21511  HIT:      20412  MISS:       1099
cpu0_STLB LOAD      ACCESS:      20170  HIT:      19187  MISS:        983
cpu0_STLB RFO       ACCESS:       1341  HIT:       1225  MISS:        116
cpu0_STLB PREFETCH  ACCESS:          0  HIT:          0  MISS:          0
cpu0_STLB WRITEBACK ACCESS:          0  HIT:          0  MISS:          0
cpu0_L1D TOTAL     ACCESS:    5862058  HIT:    5848119  MISS:      13939
cpu0_L1D LOAD      ACCESS:    2215564  HIT:    2202469  MISS:      13095
cpu0_L1D RFO       ACCESS:    3645399  HIT:    3644617  MISS:        782
cpu0_L1D PREFETCH  ACCESS:          0  HIT:          0  MISS:          0
cpu0_L1D WRITEBACK ACCESS:          0  HIT:          0  MISS:          0
cpu0_L2C TOTAL     ACCESS:      40021  HIT:      30541  MISS:       9480
cpu0_L2C LOAD      ACCESS:      36174  HIT:      27107  MISS:       9067
cpu0_L2C RFO       ACCESS:        782  HIT:        400  MISS:        382
cpu0_L2C PREFETCH  ACCESS:          0  HIT:          0  MISS:          0
cpu0_L2C WRITEBACK ACCESS:       3003  HIT:       2977  MISS:         26
LLC TOTAL     ACCESS:      10394  HIT:       1596  MISS:       8798
LLC LOAD      ACCESS:       9067  HIT:        631  MISS:       8436
LLC RFO       ACCESS:        382  HIT:         20  MISS:        362
LLC PREFETCH  ACCESS:          0  HIT:          0  MISS:          0
LLC WRITEBACK ACCESS:        940  HIT:        940  MISS:          0
Heartbeat CPU 0 instructions: 70000000 cycles: 28020777 heartbeat IPC: 0.61901 cumulative IPC: 1.2899 (Simulation time: 0 hr 36 min 21 sec) 

Region of Interest Statistics
cpu0_DTLB TOTAL     ACCESS:    3771642  HIT:    3740462  MISS:      31180
cpu0_DTLB LOAD      ACCESS:    2184287  HIT:    2155528  MISS:      28759
cpu0_DTLB RFO       ACCESS:    1587355  HIT:    1584934  MISS:       2421
cpu0_DTLB PREFETCH  ACCESS:          0  HIT:          0  MISS:          0
cpu0_DTLB WRITEBACK ACCESS:          0  HIT:          0  MISS:          0
cpu0_ITLB TOTAL     ACCESS:    1596927  HIT:    1594304  MISS:       2623
cpu0_ITLB LOAD      ACCESS:    1596927  HIT:    1594304  MISS:       2623
cpu0_ITLB RFO       ACCESS:          0  HIT:          0  MISS:          0
cpu0_ITLB PREFETCH  ACCESS:          0  HIT:          0  MISS:          0
cpu0_ITLB WRITEBACK ACCESS:          0  HIT:          0  MISS:          0
cpu0_L1I TOTAL     ACCESS:    1026814  HIT:     981291  MISS:      45523
cpu0_L1I LOAD      ACCESS:    1026814  HIT:     981291  MISS:      45523
cpu0_L1I RFO       ACCESS:          0  HIT:          0  MISS:          0
cpu0_L1I PREFETCH  ACCESS:          0  HIT:          0  MISS:          0
cpu0_L1I WRITEBACK ACCESS:          0  HIT:          0  MISS:          0
cpu0_STLB TOTAL     ACCESS:      33803  HIT:      31855  MISS:       1948
cpu0_STLB LOAD      ACCESS:      31382  HIT:      29693  MISS:       1689
cpu0_STLB RFO       ACCESS:       2421  HIT:       2162  MISS:        259
cpu0_STLB PREFETCH  ACCESS:          0  HIT:          0  MISS:          0
cpu0_STLB WRITEBACK ACCESS:          0  HIT:          0  MISS:          0
cpu0_L1D TOTAL     ACCESS:    6535769  HIT:    6507320  MISS:      28449
cpu0_L1D LOAD      ACCESS:    2522701  HIT:    2496168  MISS:      26533
cpu0_L1D RFO       ACCESS:    4011126  HIT:    4009370  MISS:       1756
cpu0_L1D PREFETCH  ACCESS:          0  HIT:          0  MISS:          0
cpu0_L1D WRITEBACK ACCESS:          0  HIT:          0  MISS:          0
cpu0_L2C TOTAL     ACCESS:      80072  HIT:      61212  MISS:      18860
cpu0_L2C LOAD      ACCESS:      72056  HIT:      54146  MISS:      17910
cpu0_L2C RFO       ACCESS:       1756  HIT:        860  MISS:        896
cpu0_L2C PREFETCH  ACCESS:          0  HIT:          0  MISS:          0
cpu0_L2C WRITEBACK ACCESS:       6100  HIT:       6055  MISS:         45
LLC TOTAL     ACCESS:      21441  HIT:       4391  MISS:      17050
LLC LOAD      ACCESS:      17910  HIT:       1707  MISS:      16203
LLC RFO       ACCESS:        896  HIT:         49  MISS:        847
LLC PREFETCH  ACCESS:          0  HIT:          0  MISS:          0
LLC WRITEBACK ACCESS:       2626  HIT:       2626  MISS:          0
Heartbeat CPU 0 instructions: 72000002 cycles: 31826584 heartbeat IPC: 0.525513 cumulative IPC: 1.13925 (Simulation time: 0 hr 37 min 59 sec) 

Region of Interest Statistics
cpu0_DTLB TOTAL     ACCESS:    4268264  HIT:    4219313  MISS:      48951
cpu0_DTLB LOAD      ACCESS:    2504844  HIT:    2459704  MISS:      45140
cpu0_DTLB RFO       ACCESS:    1763420  HIT:    1759609  MISS:       3811
cpu0_DTLB PREFETCH  ACCESS:          0  HIT:          0  MISS:          0
cpu0_DTLB WRITEBACK ACCESS:          0  HIT:          0  MISS:          0
cpu0_ITLB TOTAL     ACCESS:    1746743  HIT:    1742287  MISS:       4456
cpu0_ITLB LOAD      ACCESS:    1746743  HIT:    1742287  MISS:       4456
cpu0_ITLB RFO       ACCESS:          0  HIT:          0  MISS:          0
cpu0_ITLB PREFETCH  ACCESS:          0  HIT:          0  MISS:          0
cpu0_ITLB WRITEBACK ACCESS:          0  HIT:          0  MISS:          0
cpu0_L1I TOTAL     ACCESS:    1309431  HIT:    1233431  MISS:      76000
cpu0_L1I LOAD      ACCESS:    1309431  HIT:    1233431  MISS:      76000
cpu0_L1I RFO       ACCESS:          0  HIT:          0  MISS:          0
cpu0_L1I PREFETCH  ACCESS:          0  HIT:          0  MISS:          0
cpu0_L1I WRITEBACK ACCESS:          0  HIT:          0  MISS:          0
cpu0_STLB TOTAL     ACCESS:      53407  HIT:      50521  MISS:       2886
cpu0_STLB LOAD      ACCESS:      49596  HIT:      47056  MISS:       2540
cpu0_STLB RFO       ACCESS:       3811  HIT:       3465  MISS:        346
cpu0_STLB PREFETCH  ACCESS:          0  HIT:          0  MISS:          0
cpu0_STLB WRITEBACK ACCESS:          0  HIT:          0  MISS:          0
cpu0_L1D TOTAL     ACCESS:    7186357  HIT:    7139607  MISS:      46750
cpu0_L1D LOAD      ACCESS:    2857056  HIT:    2813271  MISS:      43785
cpu0_L1D RFO       ACCESS:    4326426  HIT:    4323727  MISS:       2699
cpu0_L1D PREFETCH  ACCESS:          0  HIT:          0  MISS:          0
cpu0_L1D WRITEBACK ACCESS:          0  HIT:          0  MISS:          0
cpu0_L2C TOTAL     ACCESS:     132947  HIT:     104318  MISS:      28629
cpu0_L2C LOAD      ACCESS:     119785  HIT:      92503  MISS:      27282
cpu0_L2C RFO       ACCESS:       2699  HIT:       1433  MISS:       1266
cpu0_L2C PREFETCH  ACCESS:          0  HIT:          0  MISS:          0
cpu0_L2C WRITEBACK ACCESS:      10197  HIT:      10130  MISS:         67
LLC TOTAL     ACCESS:      33131  HIT:       8169  MISS:      24962
LLC LOAD      ACCESS:      27282  HIT:       3431  MISS:      23851
LLC RFO       ACCESS:       1266  HIT:        155  MISS:       1111
LLC PREFETCH  ACCESS:          0  HIT:          0  MISS:          0
LLC WRITEBACK ACCESS:       4569  HIT:       4569  MISS:          0
Heartbeat CPU 0 instructions: 74000000 cycles: 34174469 heartbeat IPC: 0.85183 cumulative IPC: 1.1081 (Simulation time: 0 hr 39 min 21 sec) 

Region of Interest Statistics
cpu0_DTLB TOTAL     ACCESS:    4694456  HIT:    4639867  MISS:      54589
cpu0_DTLB LOAD      ACCESS:    2777772  HIT:    2727673  MISS:      50099
cpu0_DTLB RFO       ACCESS:    1916684  HIT:    1912194  MISS:       4490
cpu0_DTLB PREFETCH  ACCESS:          0  HIT:          0  MISS:          0
cpu0_DTLB WRITEBACK ACCESS:          0  HIT:          0  MISS:          0
cpu0_ITLB TOTAL     ACCESS:    1887591  HIT:    1882180  MISS:       5411
cpu0_ITLB LOAD      ACCESS:    1887591  HIT:    1882180  MISS:       5411
cpu0_ITLB RFO       ACCESS:          0  HIT:          0  MISS:          0
cpu0_ITLB PREFETCH  ACCESS:          0  HIT:          0  MISS:          0
cpu0_ITLB WRITEBACK ACCESS:          0  HIT:          0  MISS:          0
cpu0_L1I TOTAL     ACCESS:    1501849  HIT:    1412836  MISS:      89013
cpu0_L1I LOAD      ACCESS:    1501849  HIT:    1412836  MISS:      89013
cpu0_L1I RFO       ACCESS:          0  HIT:          0  MISS:          0
cpu0_L1I PREFETCH  ACCESS:          0  HIT:          0  MISS:          0
cpu0_L1I WRITEBACK ACCESS:          0  HIT:          0  MISS:          0
cpu0_STLB TOTAL     ACCESS:      60000  HIT:      56496  MISS:       3504
cpu0_STLB LOAD      ACCESS:      55510  HIT:      52443  MISS:       3067
cpu0_STLB RFO       ACCESS:       4490  HIT:       4053  MISS:        437
cpu0_STLB PREFETCH  ACCESS:          0  HIT:          0  MISS:          0
cpu0_STLB WRITEBACK ACCESS:          0  HIT:          0  MISS:          0
cpu0_L1D TOTAL     ACCESS:    7763740  HIT:    7707122  MISS:      56618
cpu0_L1D LOAD      ACCESS:    3120476  HIT:    3069116  MISS:      51360
cpu0_L1D RFO       ACCESS:    4639775  HIT:    4634829  MISS:       4946
cpu0_L1D PREFETCH  ACCESS:          0  HIT:          0  MISS:          0
cpu0_L1D WRITEBACK ACCESS:          0  HIT:          0  MISS:          0
cpu0_L2C TOTAL     ACCESS:     159672  HIT:     123086  MISS:      36586
cpu0_L2C LOAD      ACCESS:     140373  HIT:     106291  MISS:      34082
cpu0_L2C RFO       ACCESS:       4946  HIT:       2532  MISS:       2414
cpu0_L2C PREFETCH  ACCESS:          0  HIT:          0  MISS:          0
cpu0_L2C WRITEBACK ACCESS:      14041  HIT:      13967  MISS:         74
LLC TOTAL     ACCESS:      42620  HIT:      12366  MISS:      30254
LLC LOAD      ACCESS:      34082  HIT:       5843  MISS:      28239
LLC RFO       ACCESS:       2414  HIT:        400  MISS:       2014
LLC PREFETCH  ACCESS:          0  HIT:          0  MISS:          0
LLC WRITEBACK ACCESS:       6108  HIT:       6108  MISS:          0
Heartbeat CPU 0 instructions: 76000001 cycles: 35763668 heartbeat IPC: 1.2585 cumulative IPC: 1.11838 (Simulation time: 0 hr 40 min 38 sec) 

Region of Interest Statistics
cpu0_DTLB TOTAL     ACCESS:    5130327  HIT:    5068535  MISS:      61792
cpu0_DTLB LOAD      ACCESS:    3017963  HIT:    2961580  MISS:      56383
cpu0_DTLB RFO       ACCESS:    2112364  HIT:    2106955  MISS:       5409
cpu0_DTLB PREFETCH  ACCESS:          0  HIT:          0  MISS:          0
cpu0_DTLB WRITEBACK ACCESS:          0  HIT:          0  MISS:          0
cpu0_ITLB TOTAL     ACCESS:    2012928  HIT:    2006076  MISS:       6852
cpu0_ITLB LOAD      ACCESS:    2012928  HIT:    2006076  MISS:       6852
cpu0_ITLB RFO       ACCESS:          0  HIT:          0  MISS:          0
cpu0_ITLB PREFETCH  ACCESS:          0  HIT:          0  MISS:          0
cpu0_ITLB WRITEBACK ACCESS:          0  HIT:          0  MISS:          0
cpu0_L1I TOTAL     ACCESS:    1715817  HIT:    1607878  MISS:     107939
cpu0_L1I LOAD      ACCESS:    1715817  HIT:    1607878  MISS:     107939
cpu0_L1I RFO       ACCESS:          0  HIT:          0  MISS:          0
cpu0_L1I PREFETCH  ACCESS:          0  HIT:          0  MISS:          0
cpu0_L1I WRITEBACK ACCESS:          0  HIT:          0  MISS:          0
cpu0_STLB TOTAL     ACCESS:      68644  HIT:      65139  MISS:       3505
cpu0_STLB LOAD      ACCESS:      63235  HIT:      60168  MISS:       3067
cpu0_STLB RFO       ACCESS:       5409  HIT:       4971  MISS:        438
cpu0_STLB PREFETCH  ACCESS:          0  HIT:          0  MISS:          0
cpu0_STLB WRITEBACK ACCESS:          0  HIT:          0  MISS:          0
cpu0_L1D TOTAL     ACCESS:    8447457  HIT:    8382368  MISS:      65089
cpu0_L1D LOAD      ACCESS:    3388016  HIT:    3330309  MISS:      57707
cpu0_L1D RFO       ACCESS:    5055951  HIT:    5048882  MISS:       7069
cpu0_L1D PREFETCH  ACCESS:          0  HIT:          0  MISS:          0
cpu0_L1D WRITEBACK ACCESS:          0  HIT:          0  MISS:          0
cpu0_L2C TOTAL     ACCESS:     190795  HIT:     154176  MISS:      36619
cpu0_L2C LOAD      ACCESS:     165645  HIT:     131547  MISS:      34098
cpu0_L2C RFO       ACCESS:       7069  HIT:       4639  MISS:       2430
cpu0_L2C PREFETCH  ACCESS:          0  HIT:          0  MISS:          0
cpu0_L2C WRITEBACK ACCESS:      17768  HIT:      17693  MISS:         75
LLC TOTAL     ACCESS:      42657  HIT:      12383  MISS:      30274
LLC LOAD      ACCESS:      34098  HIT:       5855  MISS:      28243
LLC RFO       ACCESS:       2430  HIT:        400  MISS:       2030
LLC PREFETCH  ACCESS:          0  HIT:          0  MISS:          0
LLC WRITEBACK ACCESS:       6113  HIT:       6113  MISS:          0
Heartbeat CPU 0 instructions: 78000002 cycles: 37345818 heartbeat IPC: 1.2641 cumulative IPC: 1.12766 (Simulation time: 0 hr 42 min 0 sec) 

Region of Interest Statistics
cpu0_DTLB TOTAL     ACCESS:    5565587  HIT:    5496631  MISS:      68956
cpu0_DTLB LOAD      ACCESS:    3258617  HIT:    3195985  MISS:      62632
cpu0_DTLB RFO       ACCESS:    2306970  HIT:    2300646  MISS:       6324
cpu0_DTLB PREFETCH  ACCESS:          0  HIT:          0  MISS:          0
cpu0_DTLB WRITEBACK ACCESS:          0  HIT:          0  MISS:          0
cpu0_ITLB TOTAL     ACCESS:    2138811  HIT:    2130520  MISS:       8291
cpu0_ITLB LOAD      ACCESS:    2138811  HIT:    2130520  MISS:       8291
cpu0_ITLB RFO       ACCESS:          0  HIT:          0  MISS:          0
cpu0_ITLB PREFETCH  ACCESS:          0  HIT:          0  MISS:          0
cpu0_ITLB WRITEBACK ACCESS:          0  HIT:          0  MISS:          0
cpu0_L1I TOTAL     ACCESS:    1929228  HIT:    1802148  MISS:     127080
cpu0_L1I LOAD      ACCESS:    1929228  HIT:    1802148  MISS:     127080
cpu0_L1I RFO       ACCESS:          0  HIT:          0  MISS:          0
cpu0_L1I PREFETCH  ACCESS:          0  HIT:          0  MISS:          0
cpu0_L1I WRITEBACK ACCESS:          0  HIT:          0  MISS:          0
cpu0_STLB TOTAL     ACCESS:      77247  HIT:      73741  MISS:       3506
cpu0_STLB LOAD      ACCESS:      70923  HIT:      67856  MISS:       3067
cpu0_STLB RFO       ACCESS:       6324  HIT:       5885  MISS:        439
cpu0_STLB PREFETCH  ACCESS:          0  HIT:          0  MISS:          0
cpu0_STLB WRITEBACK ACCESS:          0  HIT:          0  MISS:          0
cpu0_L1D TOTAL     ACCESS:    9130450  HIT:    9056873  MISS:      73577
cpu0_L1D LOAD      ACCESS:    3655776  HIT:    3591755  MISS:      64021
cpu0_L1D RFO       ACCESS:    5471183  HIT:    5461941  MISS:       9242
cpu0_L1D PREFETCH  ACCESS:          0  HIT:          0  MISS:          0
cpu0_L1D WRITEBACK ACCESS:          0  HIT:          0  MISS:          0
cpu0_L2C TOTAL     ACCESS:     222146  HIT:     185509  MISS:      36637
cpu0_L2C LOAD      ACCESS:     191100  HIT:     156998  MISS:      34102
cpu0_L2C RFO       ACCESS:       9242  HIT:       6798  MISS:       2444
cpu0_L2C PREFETCH  ACCESS:          0  HIT:          0  MISS:          0
cpu0_L2C WRITEBACK ACCESS:      21490  HIT:      21415  MISS:         75
LLC TOTAL     ACCESS:      42682  HIT:      12393  MISS:      30289
LLC LOAD      ACCESS:      34102  HIT:       5858  MISS:      28244
LLC RFO       ACCESS:       2444  HIT:        400  MISS:       2044
LLC PREFETCH  ACCESS:          0  HIT:          0  MISS:          0
LLC WRITEBACK ACCESS:       6120  HIT:       6120  MISS:          0
Heartbeat CPU 0 instructions: 80000003 cycles: 38756993 heartbeat IPC: 1.41726 cumulative IPC: 1.14324 (Simulation time: 0 hr 43 min 23 sec) 

Region of Interest Statistics
cpu0_DTLB TOTAL     ACCESS:    5935117  HIT:    5862907  MISS:      72210
cpu0_DTLB LOAD      ACCESS:    3446316  HIT:    3380892  MISS:      65424
cpu0_DTLB RFO       ACCESS:    2488801  HIT:    2482015  MISS:       6786
cpu0_DTLB PREFETCH  ACCESS:          0  HIT:          0  MISS:          0
cpu0_DTLB WRITEBACK ACCESS:          0  HIT:          0  MISS:          0
cpu0_ITLB TOTAL     ACCESS:    2262504  HIT:    2253884  MISS:       8620
cpu0_ITLB LOAD      ACCESS:    2262504  HIT:    2253884  MISS:       8620
cpu0_ITLB RFO       ACCESS:          0  HIT:          0  MISS:          0
cpu0_ITLB PREFETCH  ACCESS:          0  HIT:          0  MISS:          0
cpu0_ITLB WRITEBACK ACCESS:          0  HIT:          0  MISS:          0
cpu0_L1I TOTAL     ACCESS:    2098375  HIT:    1966274  MISS:     132101
cpu0_L1I LOAD      ACCESS:    2098375  HIT:    1966274  MISS:     132101
cpu0_L1I RFO       ACCESS:          0  HIT:          0  MISS:          0
cpu0_L1I PREFETCH  ACCESS:          0  HIT:          0  MISS:          0
cpu0_L1I WRITEBACK ACCESS:          0  HIT:          0  MISS:          0
cpu0_STLB TOTAL     ACCESS:      80830  HIT:      77152  MISS:       3678
cpu0_STLB LOAD      ACCESS:      74044  HIT:      70821  MISS:       3223
cpu0_STLB RFO       ACCESS:       6786  HIT:       6331  MISS:        455
cpu0_STLB PREFETCH  ACCESS:          0  HIT:          0  MISS:          0
cpu0_STLB WRITEBACK ACCESS:          0  HIT:          0  MISS:          0
cpu0_L1D TOTAL     ACCESS:    9811506  HIT:    9732872  MISS:      78634
cpu0_L1D LOAD      ACCESS:    3879831  HIT:    3811397  MISS:      68434
cpu0_L1D RFO       ACCESS:    5928012  HIT:    5918156  MISS:       9856
cpu0_L1D PREFETCH  ACCESS:          0  HIT:          0  MISS:          0
cpu0_L1D WRITEBACK ACCESS:          0  HIT:          0  MISS:          0
cpu0_L2C TOTAL     ACCESS:     234495  HIT:     195876  MISS:      38619
cpu0_L2C LOAD      ACCESS:     200534  HIT:     164580  MISS:      35954
cpu0_L2C RFO       ACCESS:       9856  HIT:       7290  MISS:       2566
cpu0_L2C PREFETCH  ACCESS:          0  HIT:          0  MISS:          0
cpu0_L2C WRITEBACK ACCESS:      23761  HIT:      23678  MISS:         83
LLC TOTAL     ACCESS:      45209  HIT:      13946  MISS:      31263
LLC LOAD      ACCESS:      35954  HIT:       6835  MISS:      29119
LLC RFO       ACCESS:       2566  HIT:        423  MISS:       2143
LLC PREFETCH  ACCESS:          0  HIT:          0  MISS:          0
LLC WRITEBACK ACCESS:       6673  HIT:       6673  MISS:          0
Heartbeat CPU 0 instructions: 82000002 cycles: 40976472 heartbeat IPC: 0.901112 cumulative IPC: 1.12436 (Simulation time: 0 hr 44 min 37 sec) 

Region of Interest Statistics
cpu0_DTLB TOTAL     ACCESS:    6384340  HIT:    6298688  MISS:      85652
cpu0_DTLB LOAD      ACCESS:    3711001  HIT:    3633721  MISS:      77280
cpu0_DTLB RFO       ACCESS:    2673339  HIT:    2664967  MISS:       8372
cpu0_DTLB PREFETCH  ACCESS:          0  HIT:          0  MISS:          0
cpu0_DTLB WRITEBACK ACCESS:          0  HIT:          0  MISS:          0
cpu0_ITLB TOTAL     ACCESS:    2405145  HIT:    2394532  MISS:      10613
cpu0_ITLB LOAD      ACCESS:    2405145  HIT:    2394532  MISS:      10613
cpu0_ITLB RFO       ACCESS:          0  HIT:          0  MISS:          0
cpu0_ITLB PREFETCH  ACCESS:          0  HIT:          0  MISS:          0
cpu0_ITLB WRITEBACK ACCESS:          0  HIT:          0  MISS:          0
cpu0_L1I TOTAL     ACCESS:    2342249  HIT:    2180391  MISS:     161858
cpu0_L1I LOAD      ACCESS:    2342249  HIT:    2180391  MISS:     161858
cpu0_L1I RFO       ACCESS:          0  HIT:          0  MISS:          0
cpu0_L1I PREFETCH  ACCESS:          0  HIT:          0  MISS:          0
cpu0_L1I WRITEBACK ACCESS:          0  HIT:          0  MISS:          0
cpu0_STLB TOTAL     ACCESS:      96265  HIT:      92364  MISS:       3901
cpu0_STLB LOAD      ACCESS:      87893  HIT:      84494  MISS:       3399
cpu0_STLB RFO       ACCESS:       8372  HIT:       7870  MISS:        502
cpu0_STLB PREFETCH  ACCESS:          0  HIT:          0  MISS:          0
cpu0_STLB WRITEBACK ACCESS:          0  HIT:          0  MISS:          0
cpu0_L1D TOTAL     ACCESS:   10452659  HIT:   10354440  MISS:      98219
cpu0_L1D LOAD      ACCESS:    4161539  HIT:    4075945  MISS:      85594
cpu0_L1D RFO       ACCESS:    6287235  HIT:    6275032  MISS:      12203
cpu0_L1D PREFETCH  ACCESS:          0  HIT:          0  MISS:          0
cpu0_L1D WRITEBACK ACCESS:          0  HIT:          0  MISS:          0
cpu0_L2C TOTAL     ACCESS:     291258  HIT:     249204  MISS:      42054
cpu0_L2C LOAD      ACCESS:     247451  HIT:     208526  MISS:      38925
cpu0_L2C RFO       ACCESS:      12203  HIT:       9184  MISS:       3019
cpu0_L2C PREFETCH  ACCESS:          0  HIT:          0  MISS:          0
cpu0_L2C WRITEBACK ACCESS:      31182  HIT:      31088  MISS:         94
LLC TOTAL     ACCESS:      49814  HIT:      17547  MISS:      32267
LLC LOAD      ACCESS:      38925  HIT:       8985  MISS:      29940
LLC RFO       ACCESS:       3019  HIT:        694  MISS:       2325
LLC PREFETCH  ACCESS:          0  HIT:          0  MISS:          0
LLC WRITEBACK ACCESS:       7854  HIT:       7853  MISS:          1
Heartbeat CPU 0 instructions: 84000002 cycles: 43748761 heartbeat IPC: 0.721426 cumulative IPC: 1.08859 (Simulation time: 0 hr 46 min 1 sec) 

Region of Interest Statistics
cpu0_DTLB TOTAL     ACCESS:    6832916  HIT:    6735087  MISS:      97829
cpu0_DTLB LOAD      ACCESS:    3995789  HIT:    3907864  MISS:      87925
cpu0_DTLB RFO       ACCESS:    2837127  HIT:    2827223  MISS:       9904
cpu0_DTLB PREFETCH  ACCESS:          0  HIT:          0  MISS:          0
cpu0_DTLB WRITEBACK ACCESS:          0  HIT:          0  MISS:          0
cpu0_ITLB TOTAL     ACCESS:    2541784  HIT:    2529117  MISS:      12667
cpu0_ITLB LOAD      ACCESS:    2541784  HIT:    2529117  MISS:      12667
cpu0_ITLB RFO       ACCESS:          0  HIT:          0  MISS:          0
cpu0_ITLB PREFETCH  ACCESS:          0  HIT:          0  MISS:          0
cpu0_ITLB WRITEBACK ACCESS:          0  HIT:          0  MISS:          0
cpu0_L1I TOTAL     ACCESS:    2591200  HIT:    2399220  MISS:     191980
cpu0_L1I LOAD      ACCESS:    2591200  HIT:    2399220  MISS:     191980
cpu0_L1I RFO       ACCESS:          0  HIT:          0  MISS:          0
cpu0_L1I PREFETCH  ACCESS:          0  HIT:          0  MISS:          0
cpu0_L1I WRITEBACK ACCESS:          0  HIT:          0  MISS:          0
cpu0_STLB TOTAL     ACCESS:     110496  HIT:     105711  MISS:       4785
cpu0_STLB LOAD      ACCESS:     100592  HIT:      96409  MISS:       4183
cpu0_STLB RFO       ACCESS:       9904  HIT:       9302  MISS:        602
cpu0_STLB PREFETCH  ACCESS:          0  HIT:          0  MISS:          0
cpu0_STLB WRITEBACK ACCESS:          0  HIT:          0  MISS:          0
cpu0_L1D TOTAL     ACCESS:   11055024  HIT:   10944860  MISS:     110164
cpu0_L1D LOAD      ACCESS:    4454501  HIT:    4358510  MISS:      95991
cpu0_L1D RFO       ACCESS:    6595764  HIT:    6582106  MISS:      13658
cpu0_L1D PREFETCH  ACCESS:          0  HIT:          0  MISS:          0
cpu0_L1D WRITEBACK ACCESS:          0  HIT:          0  MISS:          0
cpu0_L2C TOTAL     ACCESS:     338517  HIT:     288055  MISS:      50462
cpu0_L2C LOAD      ACCESS:     287970  HIT:     241675  MISS:      46295
cpu0_L2C RFO       ACCESS:      13658  HIT:       9624  MISS:       4034
cpu0_L2C PREFETCH  ACCESS:          0  HIT:          0  MISS:          0
cpu0_L2C WRITEBACK ACCESS:      36374  HIT:      36259  MISS:        115
LLC TOTAL     ACCESS:      61206  HIT:      23472  MISS:      37734
LLC LOAD      ACCESS:      46295  HIT:      11638  MISS:      34657
LLC RFO       ACCESS:       4034  HIT:        959  MISS:       3075
LLC PREFETCH  ACCESS:          0  HIT:          0  MISS:          0
LLC WRITEBACK ACCESS:      10859  HIT:      10858  MISS:          1
Heartbeat CPU 0 instructions: 86000002 cycles: 46155413 heartbeat IPC: 0.83103 cumulative IPC: 1.07016 (Simulation time: 0 hr 47 min 14 sec) 

Region of Interest Statistics
cpu0_DTLB TOTAL     ACCESS:    7287934  HIT:    7179244  MISS:     108690
cpu0_DTLB LOAD      ACCESS:    4288427  HIT:    4191034  MISS:      97393
cpu0_DTLB RFO       ACCESS:    2999507  HIT:    2988210  MISS:      11297
cpu0_DTLB PREFETCH  ACCESS:          0  HIT:          0  MISS:          0
cpu0_DTLB WRITEBACK ACCESS:          0  HIT:          0  MISS:          0
cpu0_ITLB TOTAL     ACCESS:    2684617  HIT:    2669810  MISS:      14807
cpu0_ITLB LOAD      ACCESS:    2684617  HIT:    2669810  MISS:      14807
cpu0_ITLB RFO       ACCESS:          0  HIT:          0  MISS:          0
cpu0_ITLB PREFETCH  ACCESS:          0  HIT:          0  MISS:          0
cpu0_ITLB WRITEBACK ACCESS:          0  HIT:          0  MISS:          0
cpu0_L1I TOTAL     ACCESS:    2831121  HIT:    2619799  MISS:     211322
cpu0_L1I LOAD      ACCESS:    2831121  HIT:    2619799  MISS:     211322
cpu0_L1I RFO       ACCESS:          0  HIT:          0  MISS:          0
cpu0_L1I PREFETCH  ACCESS:          0  HIT:          0  MISS:          0
cpu0_L1I WRITEBACK ACCESS:          0  HIT:          0  MISS:          0
cpu0_STLB TOTAL     ACCESS:     123497  HIT:     118324  MISS:       5173
cpu0_STLB LOAD      ACCESS:     112200  HIT:     107662  MISS:       4538
cpu0_STLB RFO       ACCESS:      11297  HIT:      10662  MISS:        635
cpu0_STLB PREFETCH  ACCESS:          0  HIT:          0  MISS:          0
cpu0_STLB WRITEBACK ACCESS:          0  HIT:          0  MISS:          0
cpu0_L1D TOTAL     ACCESS:   11672443  HIT:   11545260  MISS:     127183
cpu0_L1D LOAD      ACCESS:    4756592  HIT:    4645789  MISS:     110803
cpu0_L1D RFO       ACCESS:    6910708  HIT:    6894899  MISS:      15809
cpu0_L1D PREFETCH  ACCESS:          0  HIT:          0  MISS:          0
cpu0_L1D WRITEBACK ACCESS:          0  HIT:          0  MISS:          0
cpu0_L2C TOTAL     ACCESS:     379655  HIT:     324924  MISS:      54731
cpu0_L2C LOAD      ACCESS:     322124  HIT:     271745  MISS:      50379
cpu0_L2C RFO       ACCESS:      15809  HIT:      11597  MISS:       4212
cpu0_L2C PREFETCH  ACCESS:          0  HIT:          0  MISS:          0
cpu0_L2C WRITEBACK ACCESS:      41151  HIT:      41029  MISS:        122
LLC TOTAL     ACCESS:      66804  HIT:      26954  MISS:      39850
LLC LOAD      ACCESS:      50379  HIT:      13655  MISS:      36724
LLC RFO       ACCESS:       4212  HIT:       1089  MISS:       3123
LLC PREFETCH  ACCESS:          0  HIT:          0  MISS:          0
LLC WRITEBACK ACCESS:      12195  HIT:      12193  MISS:          2
Heartbeat CPU 0 instructions: 88000002 cycles: 49456334 heartbeat IPC: 0.605892 cumulative IPC: 1.02868 (Simulation time: 0 hr 48 min 42 sec) 

Region of Interest Statistics
cpu0_DTLB TOTAL     ACCESS:    7769559  HIT:    7645103  MISS:     124456
cpu0_DTLB LOAD      ACCESS:    4597280  HIT:    4485530  MISS:     111750
cpu0_DTLB RFO       ACCESS:    3172279  HIT:    3159573  MISS:      12706
cpu0_DTLB PREFETCH  ACCESS:          0  HIT:          0  MISS:          0
cpu0_DTLB WRITEBACK ACCESS:          0  HIT:          0  MISS:          0
cpu0_ITLB TOTAL     ACCESS:    2835912  HIT:    2819547  MISS:      16365
cpu0_ITLB LOAD      ACCESS:    2835912  HIT:    2819547  MISS:      16365
cpu0_ITLB RFO       ACCESS:          0  HIT:          0  MISS:          0
cpu0_ITLB PREFETCH  ACCESS:          0  HIT:          0  MISS:          0
cpu0_ITLB WRITEBACK ACCESS:          0  HIT:          0  MISS:          0
cpu0_L1I TOTAL     ACCESS:    3085140  HIT:    2852622  MISS:     232518
cpu0_L1I LOAD      ACCESS:    3085140  HIT:    2852622  MISS:     232518
cpu0_L1I RFO       ACCESS:          0  HIT:          0  MISS:          0
cpu0_L1I PREFETCH  ACCESS:          0  HIT:          0  MISS:          0
cpu0_L1I WRITEBACK ACCESS:          0  HIT:          0  MISS:          0
cpu0_STLB TOTAL     ACCESS:     140821  HIT:     134995  MISS:       5826
cpu0_STLB LOAD      ACCESS:     128115  HIT:     122972  MISS:       5143
cpu0_STLB RFO       ACCESS:      12706  HIT:      12023  MISS:        683
cpu0_STLB PREFETCH  ACCESS:          0  HIT:          0  MISS:          0
cpu0_STLB WRITEBACK ACCESS:          0  HIT:          0  MISS:          0
cpu0_L1D TOTAL     ACCESS:   12316803  HIT:   12173617  MISS:     143186
cpu0_L1D LOAD      ACCESS:    5079359  HIT:    4953513  MISS:     125846
cpu0_L1D RFO       ACCESS:    7231651  HIT:    7214967  MISS:      16684
cpu0_L1D PREFETCH  ACCESS:          0  HIT:          0  MISS:          0
cpu0_L1D WRITEBACK ACCESS:          0  HIT:          0  MISS:          0
cpu0_L2C TOTAL     ACCESS:     420130  HIT:     357260  MISS:      62870
cpu0_L2C LOAD      ACCESS:     358363  HIT:     300108  MISS:      58255
cpu0_L2C RFO       ACCESS:      16684  HIT:      12219  MISS:       4465
cpu0_L2C PREFETCH  ACCESS:          0  HIT:          0  MISS:          0
cpu0_L2C WRITEBACK ACCESS:      44427  HIT:      44297  MISS:        130
LLC TOTAL     ACCESS:      76602  HIT:      30467  MISS:      46135
LLC LOAD      ACCESS:      58255  HIT:      15398  MISS:      42857
LLC RFO       ACCESS:       4465  HIT:       1191  MISS:       3274
LLC PREFETCH  ACCESS:          0  HIT:          0  MISS:          0
LLC WRITEBACK ACCESS:      13862  HIT:      13859  MISS:          3
Heartbeat CPU 0 instructions: 90000002 cycles: 52472552 heartbeat IPC: 0.663082 cumulative IPC: 1.00108 (Simulation time: 0 hr 50 min 14 sec) 

Region of Interest Statistics
cpu0_DTLB TOTAL     ACCESS:    8220905  HIT:    8083366  MISS:     137539
cpu0_DTLB LOAD      ACCESS:    4878966  HIT:    4755264  MISS:     123702
cpu0_DTLB RFO       ACCESS:    3341939  HIT:    3328102  MISS:      13837
cpu0_DTLB PREFETCH  ACCESS:          0  HIT:          0  MISS:          0
cpu0_DTLB WRITEBACK ACCESS:          0  HIT:          0  MISS:          0
cpu0_ITLB TOTAL     ACCESS:    2987846  HIT:    2970427  MISS:      17419
cpu0_ITLB LOAD      ACCESS:    2987846  HIT:    2970427  MISS:      17419
cpu0_ITLB RFO       ACCESS:          0  HIT:          0  MISS:          0
cpu0_ITLB PREFETCH  ACCESS:          0  HIT:          0  MISS:          0
cpu0_ITLB WRITEBACK ACCESS:          0  HIT:          0  MISS:          0
cpu0_L1I TOTAL     ACCESS:    3301974  HIT:    3054696  MISS:     247278
cpu0_L1I LOAD      ACCESS:    3301974  HIT:    3054696  MISS:     247278
cpu0_L1I RFO       ACCESS:          0  HIT:          0  MISS:          0
cpu0_L1I PREFETCH  ACCESS:          0  HIT:          0  MISS:          0
cpu0_L1I WRITEBACK ACCESS:          0  HIT:          0  MISS:          0
cpu0_STLB TOTAL     ACCESS:     154958  HIT:     148483  MISS:       6475
cpu0_STLB LOAD      ACCESS:     141121  HIT:     135380  MISS:       5741
cpu0_STLB RFO       ACCESS:      13837  HIT:      13103  MISS:        734
cpu0_STLB PREFETCH  ACCESS:          0  HIT:          0  MISS:          0
cpu0_STLB WRITEBACK ACCESS:          0  HIT:          0  MISS:          0
cpu0_L1D TOTAL     ACCESS:   12946934  HIT:   12789907  MISS:     157027
cpu0_L1D LOAD      ACCESS:    5377758  HIT:    5238855  MISS:     138903
cpu0_L1D RFO       ACCESS:    7562738  HIT:    7545337  MISS:      17401
cpu0_L1D PREFETCH  ACCESS:          0  HIT:          0  MISS:          0
cpu0_L1D WRITEBACK ACCESS:          0  HIT:          0  MISS:          0
cpu0_L2C TOTAL     ACCESS:     451411  HIT:     380292  MISS:      71119
cpu0_L2C LOAD      ACCESS:     386180  HIT:     319933  MISS:      66247
cpu0_L2C RFO       ACCESS:      17401  HIT:      12702  MISS:       4699
cpu0_L2C PREFETCH  ACCESS:          0  HIT:          0  MISS:          0
cpu0_L2C WRITEBACK ACCESS:      47107  HIT:      46958  MISS:        149
LLC TOTAL     ACCESS:      86101  HIT:      33905  MISS:      52196
LLC LOAD      ACCESS:      66247  HIT:      17466  MISS:      48781
LLC RFO       ACCESS:       4699  HIT:       1293  MISS:       3406
LLC PREFETCH  ACCESS:          0  HIT:          0  MISS:          0
LLC WRITEBACK ACCESS:      15131  HIT:      15125  MISS:          6
Heartbeat CPU 0 instructions: 92000002 cycles: 53662601 heartbeat IPC: 1.6806 cumulative IPC: 1.02073 (Simulation time: 0 hr 51 min 36 sec) 

Region of Interest Statistics
cpu0_DTLB TOTAL     ACCESS:    8570999  HIT:    8432078  MISS:     138921
cpu0_DTLB LOAD      ACCESS:    5062275  HIT:    4937249  MISS:     125026
cpu0_DTLB RFO       ACCESS:    3508724  HIT:    3494829  MISS:      13895
cpu0_DTLB PREFETCH  ACCESS:          0  HIT:          0  MISS:          0
cpu0_DTLB WRITEBACK ACCESS:          0  HIT:          0  MISS:          0
cpu0_ITLB TOTAL     ACCESS:    3145410  HIT:    3127933  MISS:      17477
cpu0_ITLB LOAD      ACCESS:    3145410  HIT:    3127933  MISS:      17477
cpu0_ITLB RFO       ACCESS:          0  HIT:          0  MISS:          0
cpu0_ITLB PREFETCH  ACCESS:          0  HIT:          0  MISS:          0
cpu0_ITLB WRITEBACK ACCESS:          0  HIT:          0  MISS:          0
cpu0_L1I TOTAL     ACCESS:    3374530  HIT:    3126891  MISS:     247639
cpu0_L1I LOAD      ACCESS:    3374530  HIT:    3126891  MISS:     247639
cpu0_L1I RFO       ACCESS:          0  HIT:          0  MISS:          0
cpu0_L1I PREFETCH  ACCESS:          0  HIT:          0  MISS:          0
cpu0_L1I WRITEBACK ACCESS:          0  HIT:          0  MISS:          0
cpu0_STLB TOTAL     ACCESS:     156398  HIT:     149836  MISS:       6562
cpu0_STLB LOAD      ACCESS:     142503  HIT:     136688  MISS:       5815
cpu0_STLB RFO       ACCESS:      13895  HIT:      13148  MISS:        747
cpu0_STLB PREFETCH  ACCESS:          0  HIT:          0  MISS:          0
cpu0_STLB WRITEBACK ACCESS:          0  HIT:          0  MISS:          0
cpu0_L1D TOTAL     ACCESS:   13608291  HIT:   13450336  MISS:     157955
cpu0_L1D LOAD      ACCESS:    5604509  HIT:    5464714  MISS:     139795
cpu0_L1D RFO       ACCESS:    7997258  HIT:    7979826  MISS:      17432
cpu0_L1D PREFETCH  ACCESS:          0  HIT:          0  MISS:          0
cpu0_L1D WRITEBACK ACCESS:          0  HIT:          0  MISS:          0
cpu0_L2C TOTAL     ACCESS:     452872  HIT:     380813  MISS:      72059
cpu0_L2C LOAD      ACCESS:     387433  HIT:     320273  MISS:      67160
cpu0_L2C RFO       ACCESS:      17432  HIT:      12708  MISS:       4724
cpu0_L2C PREFETCH  ACCESS:          0  HIT:          0  MISS:          0
cpu0_L2C WRITEBACK ACCESS:      47279  HIT:      47128  MISS:        151
LLC TOTAL     ACCESS:      87182  HIT:      34116  MISS:      53066
LLC LOAD      ACCESS:      67160  HIT:      17534  MISS:      49626
LLC RFO       ACCESS:       4724  HIT:       1293  MISS:       3431
LLC PREFETCH  ACCESS:          0  HIT:          0  MISS:          0
LLC WRITEBACK ACCESS:      15274  HIT:      15268  MISS:          6
Heartbeat CPU 0 instructions: 94000003 cycles: 54798766 heartbeat IPC: 1.76031 cumulative IPC: 1.04061 (Simulation time: 0 hr 52 min 53 sec) 

Region of Interest Statistics
cpu0_DTLB TOTAL     ACCESS:    8930121  HIT:    8789054  MISS:     141067
cpu0_DTLB LOAD      ACCESS:    5257954  HIT:    5130827  MISS:     127127
cpu0_DTLB RFO       ACCESS:    3672167  HIT:    3658227  MISS:      13940
cpu0_DTLB PREFETCH  ACCESS:          0  HIT:          0  MISS:          0
cpu0_DTLB WRITEBACK ACCESS:          0  HIT:          0  MISS:          0
cpu0_ITLB TOTAL     ACCESS:    3303853  HIT:    3286342  MISS:      17511
cpu0_ITLB LOAD      ACCESS:    3303853  HIT:    3286342  MISS:      17511
cpu0_ITLB RFO       ACCESS:          0  HIT:          0  MISS:          0
cpu0_ITLB PREFETCH  ACCESS:          0  HIT:          0  MISS:          0
cpu0_ITLB WRITEBACK ACCESS:          0  HIT:          0  MISS:          0
cpu0_L1I TOTAL     ACCESS:    3436433  HIT:    3188538  MISS:     247895
cpu0_L1I LOAD      ACCESS:    3436433  HIT:    3188538  MISS:     247895
cpu0_L1I RFO       ACCESS:          0  HIT:          0  MISS:          0
cpu0_L1I PREFETCH  ACCESS:          0  HIT:          0  MISS:          0
cpu0_L1I WRITEBACK ACCESS:          0  HIT:          0  MISS:          0
cpu0_STLB TOTAL     ACCESS:     158578  HIT:     151951  MISS:       6627
cpu0_STLB LOAD      ACCESS:     144638  HIT:     138771  MISS:       5867
cpu0_STLB RFO       ACCESS:      13940  HIT:      13180  MISS:        760
cpu0_STLB PREFETCH  ACCESS:          0  HIT:          0  MISS:          0
cpu0_STLB WRITEBACK ACCESS:          0  HIT:          0  MISS:          0
cpu0_L1D TOTAL     ACCESS:   14280947  HIT:   14122282  MISS:     158665
cpu0_L1D LOAD      ACCESS:    5844649  HIT:    5704173  MISS:     140476
cpu0_L1D RFO       ACCESS:    8429709  HIT:    8412253  MISS:      17456
cpu0_L1D PREFETCH  ACCESS:          0  HIT:          0  MISS:          0
cpu0_L1D WRITEBACK ACCESS:          0  HIT:          0  MISS:          0
cpu0_L2C TOTAL     ACCESS:     453919  HIT:     381149  MISS:      72770
cpu0_L2C LOAD      ACCESS:     388370  HIT:     320521  MISS:      67849
cpu0_L2C RFO       ACCESS:      17456  HIT:      12710  MISS:       4746
cpu0_L2C PREFETCH  ACCESS:          0  HIT:          0  MISS:          0
cpu0_L2C WRITEBACK ACCESS:      47360  HIT:      47209  MISS:        151
LLC TOTAL     ACCESS:      88004  HIT:      34284  MISS:      53720
LLC LOAD      ACCESS:      67849  HIT:      17588  MISS:      50261
LLC RFO       ACCESS:       4746  HIT:       1296  MISS:       3450
LLC PREFETCH  ACCESS:          0  HIT:          0  MISS:          0
LLC WRITEBACK ACCESS:      15385  HIT:      15379  MISS:          6
Heartbeat CPU 0 instructions: 96000004 cycles: 56139454 heartbeat IPC: 1.49177 cumulative IPC: 1.05447 (Simulation time: 0 hr 54 min 21 sec) 

Region of Interest Statistics
cpu0_DTLB TOTAL     ACCESS:    9279813  HIT:    9137546  MISS:     142267
cpu0_DTLB LOAD      ACCESS:    5446956  HIT:    5318727  MISS:     128229
cpu0_DTLB RFO       ACCESS:    3832857  HIT:    3818819  MISS:      14038
cpu0_DTLB PREFETCH  ACCESS:          0  HIT:          0  MISS:          0
cpu0_DTLB WRITEBACK ACCESS:          0  HIT:          0  MISS:          0
cpu0_ITLB TOTAL     ACCESS:    3447789  HIT:    3430196  MISS:      17593
cpu0_ITLB LOAD      ACCESS:    3447789  HIT:    3430196  MISS:      17593
cpu0_ITLB RFO       ACCESS:          0  HIT:          0  MISS:          0
cpu0_ITLB PREFETCH  ACCESS:          0  HIT:          0  MISS:          0
cpu0_ITLB WRITEBACK ACCESS:          0  HIT:          0  MISS:          0
cpu0_L1I TOTAL     ACCESS:    3538354  HIT:    3289833  MISS:     248521
cpu0_L1I LOAD      ACCESS:    3538354  HIT:    3289833  MISS:     248521
cpu0_L1I RFO       ACCESS:          0  HIT:          0  MISS:          0
cpu0_L1I PREFETCH  ACCESS:          0  HIT:          0  MISS:          0
cpu0_L1I WRITEBACK ACCESS:          0  HIT:          0  MISS:          0
cpu0_STLB TOTAL     ACCESS:     159860  HIT:     153067  MISS:       6793
cpu0_STLB LOAD      ACCESS:     145822  HIT:     139818  MISS:       6004
cpu0_STLB RFO       ACCESS:      14038  HIT:      13249  MISS:        789
cpu0_STLB PREFETCH  ACCESS:          0  HIT:          0  MISS:          0
cpu0_STLB WRITEBACK ACCESS:          0  HIT:          0  MISS:          0
cpu0_L1D TOTAL     ACCESS:   14917767  HIT:   14757317  MISS:     160450
cpu0_L1D LOAD      ACCESS:    6076111  HIT:    5933902  MISS:     142209
cpu0_L1D RFO       ACCESS:    8834901  HIT:    8817402  MISS:      17499
cpu0_L1D PREFETCH  ACCESS:          0  HIT:          0  MISS:          0
cpu0_L1D WRITEBACK ACCESS:          0  HIT:          0  MISS:          0
cpu0_L2C TOTAL     ACCESS:     456500  HIT:     381981  MISS:      74519
cpu0_L2C LOAD      ACCESS:     390729  HIT:     321173  MISS:      69556
cpu0_L2C RFO       ACCESS:      17499  HIT:      12712  MISS:       4787
cpu0_L2C PREFETCH  ACCESS:          0  HIT:          0  MISS:          0
cpu0_L2C WRITEBACK ACCESS:      47530  HIT:      47379  MISS:        151
LLC TOTAL     ACCESS:      90055  HIT:      34671  MISS:      55384
LLC LOAD      ACCESS:      69556  HIT:      17672  MISS:      51884
LLC RFO       ACCESS:       4787  HIT:       1297  MISS:       3490
LLC PREFETCH  ACCESS:          0  HIT:          0  MISS:          0
LLC WRITEBACK ACCESS:      15687  HIT:      15680  MISS:          7
Heartbeat CPU 0 instructions: 98000000 cycles: 57332896 heartbeat IPC: 1.67582 cumulative IPC: 1.07102 (Simulation time: 0 hr 55 min 35 sec) 

Region of Interest Statistics
cpu0_DTLB TOTAL     ACCESS:    9636587  HIT:    9493817  MISS:     142770
cpu0_DTLB LOAD      ACCESS:    5639269  HIT:    5510572  MISS:     128697
cpu0_DTLB RFO       ACCESS:    3997318  HIT:    3983245  MISS:      14073
cpu0_DTLB PREFETCH  ACCESS:          0  HIT:          0  MISS:          0
cpu0_DTLB WRITEBACK ACCESS:          0  HIT:          0  MISS:          0
cpu0_ITLB TOTAL     ACCESS:    3629481  HIT:    3611849  MISS:      17632
cpu0_ITLB LOAD      ACCESS:    3629481  HIT:    3611849  MISS:      17632
cpu0_ITLB RFO       ACCESS:          0  HIT:          0  MISS:          0
cpu0_ITLB PREFETCH  ACCESS:          0  HIT:          0  MISS:          0
cpu0_ITLB WRITEBACK ACCESS:          0  HIT:          0  MISS:          0
cpu0_L1I TOTAL     ACCESS:    3577433  HIT:    3328666  MISS:     248767
cpu0_L1I LOAD      ACCESS:    3577433  HIT:    3328666  MISS:     248767
cpu0_L1I RFO       ACCESS:          0  HIT:          0  MISS:          0
cpu0_L1I PREFETCH  ACCESS:          0  HIT:          0  MISS:          0
cpu0_L1I WRITEBACK ACCESS:          0  HIT:          0  MISS:          0
cpu0_STLB TOTAL     ACCESS:     160402  HIT:     153544  MISS:       6858
cpu0_STLB LOAD      ACCESS:     146329  HIT:     140271  MISS:       6058
cpu0_STLB RFO       ACCESS:      14073  HIT:      13273  MISS:        800
cpu0_STLB PREFETCH  ACCESS:          0  HIT:          0  MISS:          0
cpu0_STLB WRITEBACK ACCESS:          0  HIT:          0  MISS:          0
cpu0_L1D TOTAL     ACCESS:   15594045  HIT:   15432772  MISS:     161273
cpu0_L1D LOAD      ACCESS:    6309950  HIT:    6166945  MISS:     143005
cpu0_L1D RFO       ACCESS:    9277275  HIT:    9259752  MISS:      17523
cpu0_L1D PREFETCH  ACCESS:          0  HIT:          0  MISS:          0
cpu0_L1D WRITEBACK ACCESS:          0  HIT:          0  MISS:          0
cpu0_L2C TOTAL     ACCESS:     457661  HIT:     382317  MISS:      75344
cpu0_L2C LOAD      ACCESS:     391771  HIT:     321409  MISS:      70362
cpu0_L2C RFO       ACCESS:      17523  HIT:      12717  MISS:       4806
cpu0_L2C PREFETCH  ACCESS:          0  HIT:          0  MISS:          0
cpu0_L2C WRITEBACK ACCESS:      47622  HIT:      47471  MISS:        151
LLC TOTAL     ACCESS:      91001  HIT:      34831  MISS:      56170
LLC LOAD      ACCESS:      70362  HIT:      17710  MISS:      52652
LLC RFO       ACCESS:       4806  HIT:       1298  MISS:       3508
LLC PREFETCH  ACCESS:          0  HIT:          0  MISS:          0
LLC WRITEBACK ACCESS:      15808  HIT:      15801  MISS:          7
Heartbeat CPU 0 instructions: 100000001 cycles: 58469962 heartbeat IPC: 1.75891 cumulative IPC: 1.08804 (Simulation time: 0 hr 56 min 47 sec) 

Region of Interest Statistics
cpu0_DTLB TOTAL     ACCESS:   10005065  HIT:    9861605  MISS:     143460
cpu0_DTLB LOAD      ACCESS:    5840414  HIT:    5711108  MISS:     129306
cpu0_DTLB RFO       ACCESS:    4164651  HIT:    4150497  MISS:      14154
cpu0_DTLB PREFETCH  ACCESS:          0  HIT:          0  MISS:          0
cpu0_DTLB WRITEBACK ACCESS:          0  HIT:          0  MISS:          0
cpu0_ITLB TOTAL     ACCESS:    3789505  HIT:    3771838  MISS:      17667
cpu0_ITLB LOAD      ACCESS:    3789505  HIT:    3771838  MISS:      17667
cpu0_ITLB RFO       ACCESS:          0  HIT:          0  MISS:          0
cpu0_ITLB PREFETCH  ACCESS:          0  HIT:          0  MISS:          0
cpu0_ITLB WRITEBACK ACCESS:          0  HIT:          0  MISS:          0
cpu0_L1I TOTAL     ACCESS:    3632873  HIT:    3383905  MISS:     248968
cpu0_L1I LOAD      ACCESS:    3632873  HIT:    3383905  MISS:     248968
cpu0_L1I RFO       ACCESS:          0  HIT:          0  MISS:          0
cpu0_L1I PREFETCH  ACCESS:          0  HIT:          0  MISS:          0
cpu0_L1I WRITEBACK ACCESS:          0  HIT:          0  MISS:          0
cpu0_STLB TOTAL     ACCESS:     161127  HIT:     154195  MISS:       6932
cpu0_STLB LOAD      ACCESS:     146973  HIT:     140856  MISS:       6117
cpu0_STLB RFO       ACCESS:      14154  HIT:      13339  MISS:        815
cpu0_STLB PREFETCH  ACCESS:          0  HIT:          0  MISS:          0
cpu0_STLB WRITEBACK ACCESS:          0  HIT:          0  MISS:          0
cpu0_L1D TOTAL     ACCESS:   16278285  HIT:   16116118  MISS:     162167
cpu0_L1D LOAD      ACCESS:    6550725  HIT:    6406856  MISS:     143869
cpu0_L1D RFO       ACCESS:    9720667  HIT:    9703117  MISS:      17550
cpu0_L1D PREFETCH  ACCESS:          0  HIT:          0  MISS:          0
cpu0_L1D WRITEBACK ACCESS:          0  HIT:          0  MISS:          0
cpu0_L2C TOTAL     ACCESS:     458848  HIT:     382626  MISS:      76222
cpu0_L2C LOAD      ACCESS:     392836  HIT:     321619  MISS:      71217
cpu0_L2C RFO       ACCESS:      17550  HIT:      12721  MISS:       4829
cpu0_L2C PREFETCH  ACCESS:          0  HIT:          0  MISS:          0
cpu0_L2C WRITEBACK ACCESS:      47714  HIT:      47563  MISS:        151
LLC TOTAL     ACCESS:      92021  HIT:      34987  MISS:      57034
LLC LOAD      ACCESS:      71217  HIT:      17726  MISS:      53491
LLC RFO       ACCESS:       4829  HIT:       1298  MISS:       3531
LLC PREFETCH  ACCESS:          0  HIT:          0  MISS:          0
LLC WRITEBACK ACCESS:      15950  HIT:      15941  MISS:          9
Heartbeat CPU 0 instructions: 102000001 cycles: 59641617 heartbeat IPC: 1.70699 cumulative IPC: 1.10343 (Simulation time: 0 hr 58 min 1 sec) 

Region of Interest Statistics
cpu0_DTLB TOTAL     ACCESS:   10372672  HIT:   10228630  MISS:     144042
cpu0_DTLB LOAD      ACCESS:    6043741  HIT:    5913898  MISS:     129843
cpu0_DTLB RFO       ACCESS:    4328931  HIT:    4314732  MISS:      14199
cpu0_DTLB PREFETCH  ACCESS:          0  HIT:          0  MISS:          0
cpu0_DTLB WRITEBACK ACCESS:          0  HIT:          0  MISS:          0
cpu0_ITLB TOTAL     ACCESS:    3941750  HIT:    3924036  MISS:      17714
cpu0_ITLB LOAD      ACCESS:    3941750  HIT:    3924036  MISS:      17714
cpu0_ITLB RFO       ACCESS:          0  HIT:          0  MISS:          0
cpu0_ITLB PREFETCH  ACCESS:          0  HIT:          0  MISS:          0
cpu0_ITLB WRITEBACK ACCESS:          0  HIT:          0  MISS:          0
cpu0_L1I TOTAL     ACCESS:    3717817  HIT:    3468513  MISS:     249304
cpu0_L1I LOAD      ACCESS:    3717817  HIT:    3468513  MISS:     249304
cpu0_L1I RFO       ACCESS:          0  HIT:          0  MISS:          0
cpu0_L1I PREFETCH  ACCESS:          0  HIT:          0  MISS:          0
cpu0_L1I WRITEBACK ACCESS:          0  HIT:          0  MISS:          0
cpu0_STLB TOTAL     ACCESS:     161756  HIT:     154761  MISS:       6995
cpu0_STLB LOAD      ACCESS:     147557  HIT:     141390  MISS:       6167
cpu0_STLB RFO       ACCESS:      14199  HIT:      13371  MISS:        828
cpu0_STLB PREFETCH  ACCESS:          0  HIT:          0  MISS:          0
cpu0_STLB WRITEBACK ACCESS:          0  HIT:          0  MISS:          0
cpu0_L1D TOTAL     ACCESS:   16949940  HIT:   16786854  MISS:     163086
cpu0_L1D LOAD      ACCESS:    6797338  HIT:    6652583  MISS:     144755
cpu0_L1D RFO       ACCESS:   10145646  HIT:   10128065  MISS:      17581
cpu0_L1D PREFETCH  ACCESS:          0  HIT:          0  MISS:          0
cpu0_L1D WRITEBACK ACCESS:          0  HIT:          0  MISS:          0
cpu0_L2C TOTAL     ACCESS:     460190  HIT:     383079  MISS:      77111
cpu0_L2C LOAD      ACCESS:     394058  HIT:     321978  MISS:      72080
cpu0_L2C RFO       ACCESS:      17581  HIT:      12726  MISS:       4855
cpu0_L2C PREFETCH  ACCESS:          0  HIT:          0  MISS:          0
cpu0_L2C WRITEBACK ACCESS:      47801  HIT:      47650  MISS:        151
LLC TOTAL     ACCESS:      93021  HIT:      35135  MISS:      57886
LLC LOAD      ACCESS:      72080  HIT:      17763  MISS:      54317
LLC RFO       ACCESS:       4855  HIT:       1299  MISS:       3556
LLC PREFETCH  ACCESS:          0  HIT:          0  MISS:          0
LLC WRITEBACK ACCESS:      16061  HIT:      16051  MISS:         10
Heartbeat CPU 0 instructions: 104000003 cycles: 60785029 heartbeat IPC: 1.74915 cumulative IPC: 1.11872 (Simulation time: 0 hr 59 min 13 sec) 

Region of Interest Statistics
cpu0_DTLB TOTAL     ACCESS:   10733086  HIT:   10588707  MISS:     144379
cpu0_DTLB LOAD      ACCESS:    6234791  HIT:    6104642  MISS:     130149
cpu0_DTLB RFO       ACCESS:    4498295  HIT:    4484065  MISS:      14230
cpu0_DTLB PREFETCH  ACCESS:          0  HIT:          0  MISS:          0
cpu0_DTLB WRITEBACK ACCESS:          0  HIT:          0  MISS:          0
cpu0_ITLB TOTAL     ACCESS:    4120762  HIT:    4103023  MISS:      17739
cpu0_ITLB LOAD      ACCESS:    4120762  HIT:    4103023  MISS:      17739
cpu0_ITLB RFO       ACCESS:          0  HIT:          0  MISS:          0
cpu0_ITLB PREFETCH  ACCESS:          0  HIT:          0  MISS:          0
cpu0_ITLB WRITEBACK ACCESS:          0  HIT:          0  MISS:          0
cpu0_L1I TOTAL     ACCESS:    3758032  HIT:    3508587  MISS:     249445
cpu0_L1I LOAD      ACCESS:    3758032  HIT:    3508587  MISS:     249445
cpu0_L1I RFO       ACCESS:          0  HIT:          0  MISS:          0
cpu0_L1I PREFETCH  ACCESS:          0  HIT:          0  MISS:          0
cpu0_L1I WRITEBACK ACCESS:          0  HIT:          0  MISS:          0
cpu0_STLB TOTAL     ACCESS:     162118  HIT:     155087  MISS:       7031
cpu0_STLB LOAD      ACCESS:     147888  HIT:     141695  MISS:       6193
cpu0_STLB RFO       ACCESS:      14230  HIT:      13392  MISS:        838
cpu0_STLB PREFETCH  ACCESS:          0  HIT:          0  MISS:          0
cpu0_STLB WRITEBACK ACCESS:          0  HIT:          0  MISS:          0
cpu0_L1D TOTAL     ACCESS:   17636812  HIT:   17473225  MISS:     163587
cpu0_L1D LOAD      ACCESS:    7027278  HIT:    6882044  MISS:     145234
cpu0_L1D RFO       ACCESS:   10602542  HIT:   10584944  MISS:      17598
cpu0_L1D PREFETCH  ACCESS:          0  HIT:          0  MISS:          0
cpu0_L1D WRITEBACK ACCESS:          0  HIT:          0  MISS:          0
cpu0_L2C TOTAL     ACCESS:     460890  HIT:     383281  MISS:      77609
cpu0_L2C LOAD      ACCESS:     394678  HIT:     322116  MISS:      72562
cpu0_L2C RFO       ACCESS:      17598  HIT:      12727  MISS:       4871
cpu0_L2C PREFETCH  ACCESS:          0  HIT:          0  MISS:          0
cpu0_L2C WRITEBACK ACCESS:      47859  HIT:      47708  MISS:        151
LLC TOTAL     ACCESS:      93595  HIT:      35223  MISS:      58372
LLC LOAD      ACCESS:      72562  HIT:      17775  MISS:      54787
LLC RFO       ACCESS:       4871  HIT:       1299  MISS:       3572
LLC PREFETCH  ACCESS:          0  HIT:          0  MISS:          0
LLC WRITEBACK ACCESS:      16137  HIT:      16127  MISS:         10
Heartbeat CPU 0 instructions: 106000001 cycles: 62113405 heartbeat IPC: 1.5056 cumulative IPC: 1.12908 (Simulation time: 1 hr 0 min 35 sec) 

Region of Interest Statistics
cpu0_DTLB TOTAL     ACCESS:   11084577  HIT:   10938674  MISS:     145903
cpu0_DTLB LOAD      ACCESS:    6423300  HIT:    6291717  MISS:     131583
cpu0_DTLB RFO       ACCESS:    4661277  HIT:    4646957  MISS:      14320
cpu0_DTLB PREFETCH  ACCESS:          0  HIT:          0  MISS:          0
cpu0_DTLB WRITEBACK ACCESS:          0  HIT:          0  MISS:          0
cpu0_ITLB TOTAL     ACCESS:    4260452  HIT:    4242637  MISS:      17815
cpu0_ITLB LOAD      ACCESS:    4260452  HIT:    4242637  MISS:      17815
cpu0_ITLB RFO       ACCESS:          0  HIT:          0  MISS:          0
cpu0_ITLB PREFETCH  ACCESS:          0  HIT:          0  MISS:          0
cpu0_ITLB WRITEBACK ACCESS:          0  HIT:          0  MISS:          0
cpu0_L1I TOTAL     ACCESS:    3844573  HIT:    3594577  MISS:     249996
cpu0_L1I LOAD      ACCESS:    3844573  HIT:    3594577  MISS:     249996
cpu0_L1I RFO       ACCESS:          0  HIT:          0  MISS:          0
cpu0_L1I PREFETCH  ACCESS:          0  HIT:          0  MISS:          0
cpu0_L1I WRITEBACK ACCESS:          0  HIT:          0  MISS:          0
cpu0_STLB TOTAL     ACCESS:     163718  HIT:     156561  MISS:       7157
cpu0_STLB LOAD      ACCESS:     149398  HIT:     143108  MISS:       6290
cpu0_STLB RFO       ACCESS:      14320  HIT:      13453  MISS:        867
cpu0_STLB PREFETCH  ACCESS:          0  HIT:          0  MISS:          0
cpu0_STLB WRITEBACK ACCESS:          0  HIT:          0  MISS:          0
cpu0_L1D TOTAL     ACCESS:   18282426  HIT:   18117117  MISS:     165309
cpu0_L1D LOAD      ACCESS:    7256063  HIT:    7109162  MISS:     146901
cpu0_L1D RFO       ACCESS:   11019246  HIT:   11001597  MISS:      17649
cpu0_L1D PREFETCH  ACCESS:          0  HIT:          0  MISS:          0
cpu0_L1D WRITEBACK ACCESS:          0  HIT:          0  MISS:          0
cpu0_L2C TOTAL     ACCESS:     463338  HIT:     384020  MISS:      79318
cpu0_L2C LOAD      ACCESS:     396896  HIT:     322672  MISS:      74224
cpu0_L2C RFO       ACCESS:      17649  HIT:      12732  MISS:       4917
cpu0_L2C PREFETCH  ACCESS:          0  HIT:          0  MISS:          0
cpu0_L2C WRITEBACK ACCESS:      48034  HIT:      47882  MISS:        152
LLC TOTAL     ACCESS:      95518  HIT:      35508  MISS:      60010
[...]
cpu0_DTLB WRITEBACK ACCESS:          0  HIT:          0  MISS:          0
cpu0_DTLB TRANSLATION ACCESS:          0  HIT:          0  MISS:          0
cpu0_DTLB PREFETCH  REQUESTED:          0  ISSUED:          0  USEFUL:          0  USELESS:          0
cpu0_DTLB AVERAGE MISS LATENCY: 9.82819 cycles
cpu0_ITLB TOTAL     ACCESS:  117293781  HIT:  117045468  MISS:     248313
cpu0_ITLB LOAD      ACCESS:  117293781  HIT:  117045468  MISS:     248313
cpu0_ITLB RFO       ACCESS:          0  HIT:          0  MISS:          0
cpu0_ITLB PREFETCH  ACCESS:          0  HIT:          0  MISS:          0
cpu0_ITLB WRITEBACK ACCESS:          0  HIT:          0  MISS:          0
cpu0_ITLB TRANSLATION ACCESS:          0  HIT:          0  MISS:          0
cpu0_ITLB PREFETCH  REQUESTED:          0  ISSUED:          0  USEFUL:          0  USELESS:          0
cpu0_ITLB AVERAGE MISS LATENCY: 9.25623 cycles
cpu0_L1I TOTAL     ACCESS:   78600384  HIT:   75042820  MISS:    3557564
cpu0_L1I LOAD      ACCESS:   78600384  HIT:   75042820  MISS:    3557564
cpu0_L1I RFO       ACCESS:          0  HIT:          0  MISS:          0
cpu0_L1I PREFETCH  ACCESS:          0  HIT:          0  MISS:          0
cpu0_L1I WRITEBACK ACCESS:          0  HIT:          0  MISS:          0
cpu0_L1I TRANSLATION ACCESS:          0  HIT:          0  MISS:          0
cpu0_L1I PREFETCH  REQUESTED:          0  ISSUED:          0  USEFUL:          0  USELESS:          0
cpu0_L1I AVERAGE MISS LATENCY: 12.3902 cycles
cpu0_STLB TOTAL     ACCESS:    2765982  HIT:    2660538  MISS:     105444
cpu0_STLB LOAD      ACCESS:    2550366  HIT:    2457349  MISS:      93017
cpu0_STLB RFO       ACCESS:     215616  HIT:     203189  MISS:      12427
cpu0_STLB PREFETCH  ACCESS:          0  HIT:          0  MISS:          0
cpu0_STLB WRITEBACK ACCESS:          0  HIT:          0  MISS:          0
cpu0_STLB TRANSLATION ACCESS:          0  HIT:          0  MISS:          0
cpu0_STLB PREFETCH  REQUESTED:          0  ISSUED:          0  USEFUL:          0  USELESS:          0
cpu0_STLB AVERAGE MISS LATENCY: 19.9074 cycles
cpu0_L1D TOTAL     ACCESS:  492844656  HIT:  490401746  MISS:    2442910
cpu0_L1D LOAD      ACCESS:  186981728  HIT:  184751253  MISS:    2230475
cpu0_L1D RFO       ACCESS:  305758081  HIT:  305557095  MISS:     200986
cpu0_L1D PREFETCH  ACCESS:          0  HIT:          0  MISS:          0
cpu0_L1D WRITEBACK ACCESS:          0  HIT:          0  MISS:          0
cpu0_L1D TRANSLATION ACCESS:     104847  HIT:      93398  MISS:      11449
cpu0_L1D PREFETCH  REQUESTED:          0  ISSUED:          0  USEFUL:          0  USELESS:          0
cpu0_L1D AVERAGE MISS LATENCY: 56.1806 cycles
cpu0_L2C TOTAL     ACCESS:    6637986  HIT:    5364934  MISS:    1273052
cpu0_L2C LOAD      ACCESS:    5787984  HIT:    4591278  MISS:    1196706
cpu0_L2C RFO       ACCESS:     200972  HIT:     128273  MISS:      72699
cpu0_L2C PREFETCH  ACCESS:          0  HIT:          0  MISS:          0
cpu0_L2C WRITEBACK ACCESS:     637581  HIT:     634360  MISS:       3221
cpu0_L2C TRANSLATION ACCESS:      11449  HIT:      11023  MISS:        426
cpu0_L2C PREFETCH  REQUESTED:          0  ISSUED:          0  USEFUL:          0  USELESS:          0
cpu0_L2C AVERAGE MISS LATENCY: 90.5153 cycles
LLC TOTAL     ACCESS:    1517281  HIT:     938262  MISS:     579019
LLC LOAD      ACCESS:    1196705  HIT:     645545  MISS:     551160
LLC RFO       ACCESS:      72698  HIT:      45486  MISS:      27212
LLC PREFETCH  ACCESS:          0  HIT:          0  MISS:          0
LLC WRITEBACK ACCESS:     247452  HIT:     246848  MISS:        604
LLC TRANSLATION ACCESS:        426  HIT:        383  MISS:         43
LLC PREFETCH  REQUESTED:          0  ISSUED:          0  USEFUL:          0  USELESS:          0
LLC AVERAGE MISS LATENCY: 152.956 cycles
~~~~~~~~~~Reuse Distance Profiler output~~~~~~~~~~
0	85747472	4187232
1	36960304	6119712
2	25618832	8296512
3	19311264	6712272
4	16281776	4111024
5	12807552	3521168
6	15859088	4549584
7	19066944	4740688
8	13836288	3725888
9	13022304	3067792
10	10745712	4022048
11	11165072	4173504
12	7179824	2264496
13	8074816	3012480
14	4501184	1297440
15	3878096	1338224
16	6250176	2751072
17	5097408	2275440
18	4540608	1694880
19	7271888	1995488
20	5808976	2746992
21	4160176	2007520
22	4456528	1978192
23	3977712	2116016
24	3699520	1247424
25	3641488	1596016
26	3170464	832256
27	1723312	752720
28	2283536	803776
29	1700752	537744
30	1856576	749520
31	2243232	1165216
32	2203904	632720
33	1778688	964368
34	1497008	839072
35	1621200	1015472
36	2466640	1094896
37	1329488	864864
38	1069072	400592
39	1816704	1142768
40	949488	579088
41	994928	635488
42	1506512	732960
43	1766912	1074128
44	1495696	706352
45	1981248	857040
46	1104320	446880
47	2716560	1610544
48	1773712	1284048
49	1237136	601344
50	890016	705600
51	858784	573984
52	1015168	442400
53	793792	360960
54	579136	331936
55	606256	411312
56	656720	455392
57	1351328	490848
58	2285008	1214048
59	968176	393568
60	1801664	819264
61	1399664	830752
62	989328	537904
63	1276240	891168
64	2749008	1405392
66	2165120	1046496
68	1825984	806032
70	2467200	1127632
72	1159536	719472
74	1801744	632736
76	1224768	536448
78	1157088	500384
80	1386448	997408
82	1887120	1640000
84	1050672	849328
86	803664	645184
88	626432	432160
90	1127312	993424
92	1484928	1395216
94	1769824	1605856
96	777568	629312
98	1275488	1168064
100	872608	733584
102	920320	807280
104	688768	585152
106	912848	825600
108	775824	716992
110	452592	374736
112	672832	589056
114	841424	761488
116	682032	613712
118	571392	503392
120	607584	503872
122	702640	629360
124	479600	395856
126	706384	626416
128	1221072	705808
132	1329472	1216544
136	1849184	1296656
140	4201760	3647888
144	1771088	1380176
148	3465328	2900144
152	2846704	2689280
156	1228976	1134848
160	943264	817232
164	831184	700448
168	1162240	1003200
172	904240	688464
176	1774448	1496336
180	1547872	1278512
184	1032416	897472
188	769376	657808
192	532816	456608
196	541856	438576
200	563920	452336
204	369264	297552
208	404144	327104
212	371312	303088
216	338304	261072
220	353952	286752
224	328336	281728
228	442752	390736
232	569024	522448
236	339104	259648
240	288928	218560
244	585200	519408
248	294784	248224
252	268544	227936
256	864816	648064
264	560176	489072
272	527488	412032
280	1944240	1706176
288	867152	779744
296	1015008	932240
304	517776	452896
312	578464	478128
320	408848	330608
328	526640	462512
336	560128	451840
344	778576	644576
352	556416	458528
360	607296	504624
368	369328	318704
376	793360	691152
384	401184	346400
392	298800	253328
400	263344	228208
408	206352	170128
416	297200	245600
424	253056	202784
432	169024	138560
440	208624	174048
448	157408	134688
456	283536	257456
464	160144	138032
472	157984	135536
480	133312	115728
488	101472	84048
496	101744	82976
504	88560	73200
512	172768	151760
528	189568	164608
544	174512	148464
560	221040	194496
576	331248	298720
592	274304	237440
608	131456	110128
624	289104	252896
640	104160	86768
656	94832	83568
672	116800	98432
688	122480	107344
704	96848	84912
720	103552	90416
736	84528	74112
752	92288	81952
768	89520	78848
784	82352	71584
800	75376	64176
816	91520	82832
832	73440	62736
848	71472	62080
864	95392	82384
880	79888	71264
896	66976	57792
912	51488	43392
928	55664	46192
944	52800	43552
960	72688	63344
976	67328	58640
992	54672	47808
1008	58496	52048
1024	105712	95888
1056	106960	96224
1088	99712	88272
1120	89904	79648
1152	106176	91552
1184	105136	90160
1216	77600	60560
1248	84192	68640
1280	87328	72784
1312	78224	65104
1344	89440	71520
1376	110496	92096
1408	118128	104928
1440	88592	77056
1472	78432	68064
1504	68880	58016
1536	65296	55344
1568	55808	46656
1600	50064	41600
1632	45888	39520
1664	48096	42272
1696	47280	41936
1728	45136	39280
1760	47376	41136
1792	49056	42384
1824	43584	38800
1856	35760	31856
1888	37984	33360
1920	37904	32960
1952	37408	32160
1984	40160	33712
2016	35840	31152
2048	87216	75104
2112	69344	61392
2176	58288	50928
2240	65648	58784
2304	67632	60144
2368	68048	61040
2432	58064	52096
2496	59664	51456
2560	74592	65360
2624	73744	65008
2688	57920	50736
2752	64336	59360
2816	56512	51904
2880	48368	42000
2944	54016	48448
3008	49008	43792
3072	61216	53600
3136	59968	52736
3200	73296	65568
3264	54592	49904
3328	40752	35904
3392	33392	29488
3456	32720	29488
3520	34064	31168
3584	24880	22176
3648	25440	21952
3712	31296	27312
3776	29728	26560
3840	35776	32256
3904	28016	25264
3968	26672	23152
4032	30848	27440
4096	61152	54912
4224	59472	53664
4352	79040	72176
4480	52656	47088
4608	59712	54816
4736	62384	57872
4864	53056	47744
4992	49344	44848
5120	44384	39376
5248	53616	49264
5376	38288	34144
5504	48688	44624
5632	52224	48336
5760	42640	38944
5888	38368	35424
6016	32576	29744
6144	36784	34304
6272	30640	27920
6400	35280	32528
6528	31328	28944
6656	29344	26320
6784	28400	26432
6912	25408	23056
7040	27776	25248
7168	27216	24224
7296	27168	24672
7424	35472	33456
7552	23600	20960
7680	26048	23408
7808	20832	19168
7936	23648	22048
8064	22448	20416
8192	43008	39408
8448	45888	42048
8704	78928	73568
8960	43776	40432
9216	35296	32272
9472	32336	29152
9728	31072	28304
9984	32480	29120
10240	31296	28336
10496	42848	38592
10752	31312	28048
11008	27072	23664
11264	26816	24032
11520	37968	34864
11776	35584	32576
12032	28464	25968
12288	26192	23600
12544	22960	21088
12800	21824	19104
13056	22272	19952
13312	23152	20992
13568	23072	21248
13824	26480	23952
14080	27984	25376
14336	24208	21824
14592	23424	21376
14848	20960	19376
15104	17856	16064
15360	17344	15392
15616	18384	16704
15872	18352	16560
16128	17472	15520
16384	33520	29696
16896	40832	36816
17408	38304	34896
17920	44656	41552
18432	32960	30272
18944	31248	28928
19456	28688	26592
19968	25936	23072
20480	25552	23152
20992	27744	25168
21504	24080	21136
22016	34048	31488
22528	50576	47920
23040	40544	37664
23552	25376	23056
24064	23984	22160
24576	23664	21616
25088	22768	20192
25600	20464	18224
26112	18720	16544
26624	15616	14112
27136	20144	18400
27648	19968	18176
28160	21248	19680
28672	19424	18080
29184	15520	14624
29696	14464	13488
30208	13728	12736
30720	14048	13040
31232	13744	12960
31744	11424	10656
32256	14192	13488
32768	25200	23328
33792	28480	26016
34816	19264	17968
35840	14576	13360
36864	14992	13744
37888	14128	12368
38912	16608	14784
39936	16976	15040
40960	18160	15680
41984	16336	14448
43008	17824	15936
44032	20672	18688
45056	15984	13952
46080	16624	14592
47104	12592	10880
48128	13072	11616
49152	23824	18448
50176	17504	14928
51200	15376	13696
52224	19424	14928
53248	17792	13984
54272	19632	14752
55296	12640	10768
56320	9296	8288
57344	9936	8800
58368	15520	14352
59392	10192	9264
60416	8992	8080
61440	10176	9504
62464	9200	8384
63488	8192	7520
64512	6176	5648
65536	14352	13088
67584	15584	14352
69632	21792	19856
71680	27792	25632
73728	31232	29600
75776	24080	22464
77824	17648	16560
79872	19552	18624
81920	31904	30784
83968	12480	11680
86016	16688	15760
88064	11680	10544
90112	16432	15344
92160	13488	12560
94208	11920	10976
96256	8640	7936
98304	9216	8384
100352	10720	9600
102400	10816	10144
104448	9728	9184
106496	5680	5248
108544	6432	5904
110592	10224	9712
112640	5984	5552
114688	5392	4864
116736	5680	5312
118784	5120	4752
120832	5904	5344
122880	5312	4928
124928	5056	4528
126976	4944	4448
129024	5136	4672
131072	9568	8864
135168	9216	8480
139264	10000	9440
143360	8352	7648
147456	8864	8208
151552	10144	9248
155648	9872	8976
159744	9680	8992
163840	18096	16768
167936	9056	8416
172032	9120	8320
176128	8320	7728
180224	9680	8592
184320	10128	9296
188416	11408	10416
192512	8960	8176
196608	7872	7472
200704	5408	4928
204800	8608	7952
208896	5072	4656
212992	5488	4608
217088	8672	8144
221184	5856	5440
225280	6592	6128
229376	5040	4672
233472	3872	3632
237568	3456	3200
241664	3504	3200
245760	3776	3552
249856	3856	3536
253952	3392	3168
258048	3600	3248
262144	10000	9328
270336	11904	11104
278528	17200	15872
286720	8784	8096
294912	5136	4768
303104	5008	4576
311296	5264	4784
319488	5680	5248
327680	5344	5040
335872	5840	5360
344064	5616	4880
352256	6496	5136
360448	3392	3008
368640	4400	3952
376832	4864	4384
385024	4800	4368
393216	3936	3584
401408	3440	3040
409600	4560	4224
417792	3792	3408
425984	3392	2960
434176	4080	3648
442368	5568	5056
450560	3216	2800
458752	3952	3344
466944	2512	2240
475136	3264	2944
483328	1856	1680
491520	2992	2816
499712	2400	2128
507904	2176	1760
516096	2592	2224
524288	4560	4176
540672	4480	4032
557056	3744	3360
573440	4048	3712
589824	4544	4144
606208	3072	2736
622592	3376	3024
638976	3248	3024
655360	2208	1824
671744	2880	2480
688128	2080	1824
704512	2176	1824
720896	2496	2240
737280	2352	2112
753664	1808	1616
770048	1680	1312
786432	1328	1136
802816	1504	1264
819200	2496	2208
835584	1872	1776
851968	1920	1648
868352	1872	1632
884736	1728	1632
901120	1936	1776
917504	1216	1088
933888	1136	960
950272	1216	1024
966656	1008	880
983040	912	720
999424	1104	1008
1015808	1136	1056
1032192	1120	960
1048576	2096	1872
1081344	2432	2112
1114112	2624	2272
1146880	3152	2832
1179648	3008	2800
1212416	2960	2528
1245184	4800	3888
1277952	4256	3632
1310720	2480	2080
1343488	2256	1984
1376256	3072	2640
1409024	2848	2608
1441792	1792	1616
1474560	2768	2192
1507328	1872	1568
1540096	1344	1296
1572864	1760	1648
1605632	1968	1696
1638400	1888	1744
1671168	2400	2192
1703936	1728	1568
1736704	2272	1984
1769472	2848	2640
1802240	1600	1424
1835008	1200	1040
1867776	1712	1504
1900544	960	832
1933312	2880	2624
1966080	1792	1696
1998848	1392	1184
2031616	672	496
2064384	1168	1072
2097152	2832	2576
2162688	2448	2208
2228224	2320	2128
2293760	3472	2992
2359296	2736	2496
2424832	2832	2720
2490368	2416	2192
2555904	2464	2336
2621440	2240	2112
2686976	2144	2000
2752512	1648	1600
2818048	1952	1776
2883584	1728	1600
2949120	2032	1872
3014656	1472	1408
3080192	944	672
3145728	1152	1024
3211264	1520	1344
3276800	1408	1248
3342336	1392	1232
3407872	1232	1104
3473408	992	896
3538944	560	496
3604480	848	800
3670016	448	432
3735552	368	272
3801088	880	720
3866624	1104	1008
3932160	1280	1200
3997696	752	704
4063232	960	880
4128768	2032	1936
4194304	2192	2032
4325376	1600	1568
4456448	944	880
4587520	832	720
4718592	736	672
4849664	688	672
4980736	976	944
5111808	1280	1168
5242880	336	240
5373952	688	640
5505024	848	816
5636096	560	480
5767168	368	336
5898240	464	416
6029312	560	528
6160384	272	256
6291456	464	400
6422528	624	560
6553600	432	320
6684672	208	176
6815744	752	688
6946816	624	576
7077888	448	432
7208960	768	720
7340032	624	480
7471104	496	464
7602176	384	336
7733248	848	800
7864320	992	832
7995392	832	704
8126464	560	528
8257536	1968	1904
8388608	14144	13776
8650752	1376	1296
8912896	848	800
9175040	752	592
9437184	1104	1024
9699328	1824	1728
9961472	1696	1600
10223616	5824	5696
10485760	1680	1616
10747904	2432	2288
11010048	2144	1952
11272192	4128	3968
11534336	3984	3664
11796480	1776	1600
12058624	640	608
12320768	1120	1072
12582912	1168	1136
12845056	976	896
13107200	1664	1520
13369344	1168	1056
13631488	3120	2688
13893632	1312	1264
14155776	1824	1728
14417920	8096	7872
14680064	7408	6992
14942208	9408	9072
15204352	11024	10704
15466496	6864	6544
15728640	10944	10592
15990784	17984	17392
16252928	6800	6448
16515072	9232	9008
16777216	5984	5664
17301504	4816	4640
17825792	7584	7264
18350080	6752	6384
18874368	4880	4752
19398656	5328	4976
19922944	8736	8192
20447232	20064	19440
20971520	13952	13408
21495808	5296	4912
22020096	6912	6448
22544384	15008	14592
23068672	15536	14960
23592960	19504	18720
24117248	6480	6128
24641536	4800	4640
25165824	6128	5760
25690112	5600	5280
26214400	5392	4848
26738688	5216	4928
27262976	5984	5376
27787264	5168	4944
28311552	5632	5376
28835840	6144	5904
29360128	10224	9552
29884416	15024	14304
30408704	34048	32672
30932992	50768	49488
31457280	28592	27616
31981568	12656	12064
32505856	6816	6288
33030144	2608	2384
33554432	10544	9936
34603008	7728	7376
35651584	40880	39584
36700160	6240	5952
37748736	3296	3136
38797312	3552	3264
39845888	1920	1808
40894464	1264	1184
41943040	2032	1904
42991616	2048	1984
44040192	2016	1856
45088768	4736	4560
46137344	2704	2496
47185920	1280	1184
48234496	1888	1744
49283072	2128	2032
50331648	2960	2784
51380224	1312	1264
52428800	1744	1696
53477376	2416	2304
54525952	2880	2816
55574528	2384	2336
56623104	3680	3552
57671680	3520	3328
58720256	2976	2720
59768832	3200	2944
60817408	5248	4656
61865984	6192	5696
62914560	9456	8640
63963136	25376	23968
65011712	15232	14688
66060288	2880	2560
67108864	19776	18704
69206016	27248	26176
71303168	1872	1552
73400320	2928	2400
75497472	2928	2624
77594624	2432	1984
79691776	4144	3760
81788928	1824	1568
83886080	2352	2128
85983232	2816	2608
88080384	2080	1952
90177536	3408	3248
92274688	3136	3072
94371840	4304	3920
96468992	3200	2640
98566144	4464	4016
100663296	27616	26880
102760448	11152	10544
104857600	400	144
106954752	160	64
109051904	576	544
111149056	224	112
113246208	448	176
115343360	640	352
117440512	112	32
119537664	0	0
121634816	32	32
123731968	32	16
125829120	16	16
127926272	0	0
130023424	48	16
132120576	3264	3136
134217728	880	864
138412032	544	464
142606336	32	32
146800640	16	16
150994944	16	16
155189248	96	32
159383552	192	64
163577856	208	144
167772160	1712	1504
171966464	1072	976
176160768	160	112
180355072	16	16
184549376	0	0
188743680	0	0
192937984	0	0
197132288	16	0
201326592	112	64
205520896	352	320
209715200	112	0
213909504	80	16
218103808	80	48
222298112	32	32
226492416	0	0
230686720	16	16
234881024	0	0
239075328	304	272
243269632	32	32
247463936	16	16
251658240	16	0
255852544	0	0
260046848	0	0
264241152	0	0
268435456	16	16
276824064	144	128
285212672	0	0
293601280	0	0
301989888	32	32
310378496	0	0
318767104	0	0
327155712	0	0
335544320	320	320
343932928	64	32
352321536	16	16
360710144	64	48
369098752	112	80
377487360	1024	928
385875968	0	0
394264576	0	0
402653184	0	0
411041792	16	0
419430400	0	0
427819008	0	0
436207616	48	0
444596224	0	0
452984832	16	16
461373440	0	0
469762048	0	0
478150656	0	0
486539264	0	0
494927872	0	0
503316480	0	0
511705088	0	0
520093696	0	0
528482304	0	0
536870912	0	0
553648128	0	0
570425344	0	0
587202560	0	0
603979776	0	0
620756992	0	0
637534208	0	0
654311424	0	0
671088640	0	0
687865856	0	0
704643072	0	0
721420288	0	0
738197504	0	0
754974720	0	0
771751936	0	0
788529152	0	0
805306368	0	0
822083584	0	0
838860800	0	0
855638016	0	0
872415232	0	0
889192448	0	0
905969664	0	0
922746880	0	0
939524096	0	0
956301312	0	0
973078528	0	0
989855744	0	0
1006632960	0	0
1023410176	0	0
1040187392	0	0
1056964608	0	0
1073741824	0	0
1107296256	0	0
1140850688	0	0
1174405120	0	0
1207959552	0	0
1241513984	0	0
1275068416	0	0
1308622848	0	0
1342177280	0	0
1375731712	0	0
1409286144	0	0
1442840576	0	0
1476395008	0	0
1509949440	0	0
1543503872	0	0
1577058304	0	0
1610612736	0	0
1644167168	0	0
1677721600	0	0
1711276032	0	0
1744830464	0	0
1778384896	0	0
1811939328	0	0
1845493760	0	0
1879048192	0	0
1912602624	0	0
1946157056	0	0
1979711488	0	0
2013265920	0	0
2046820352	0	0
2080374784	0	0
2113929216	0	0
2147483648	0	0
2214592512	0	0
2281701376	0	0
2348810240	0	0
2415919104	0	0
2483027968	0	0
2550136832	0	0
2617245696	0	0
2684354560	0	0
2751463424	0	0
2818572288	0	0
2885681152	0	0
2952790016	0	0
3019898880	0	0
3087007744	0	0
3154116608	0	0
3221225472	0	0
3288334336	0	0
3355443200	0	0
3422552064	0	0
3489660928	0	0
3556769792	0	0
3623878656	0	0
3690987520	0	0
3758096384	0	0
3825205248	0	0
3892314112	0	0
3959422976	0	0
4026531840	0	0
4093640704	0	0
4160749568	0	0
4227858432	0	0
~~~~~~~~~~Reuse Distance Profiler output end~~~~~~~~~~

Sampler size:5339

DRAM Statistics
 CHANNEL 0
 RQ ROW_BUFFER_HIT:      67650  ROW_BUFFER_MISS:     510765
 DBUS AVG_CONGESTED_CYCLE:    3.81828
 WQ ROW_BUFFER_HIT:      35179  ROW_BUFFER_MISS:      39685  FULL:          0


CPU 0 Branch Prediction Accuracy: 96.1804% MPKI: 5.90751 Average ROB Occupancy at Mispredict: 93.9505
Branch type MPKI
BRANCH_DIRECT_JUMP: 0.00169533
BRANCH_INDIRECT: 0.365058
BRANCH_CONDITIONAL: 5.30648
BRANCH_DIRECT_CALL: 0.00171133
BRANCH_INDIRECT_CALL: 0.225198
BRANCH_RETURN: 0.007368

