
*** ChampSim Multicore Out-of-Order Simulator ***

Warmup Instructions: 50000000
Simulation Instructions: 1500000000
Number of CPUs: 1
Off-chip DRAM Size: 4 GiB Channels: 1 Width: 64-bit Data Rate: 3200 MT/s

VirtualMemory physical capacity: 8588881920 num_ppages: 2096895
VirtualMemory page size: 4096 log2_page_size: 12

CPU 0 runs /s/traces/champsim_traces/602.gcc_s-2226B.champsimtrace.xz
CPU 0 Bimodal branch predictor
Basic BTB sets: 1024 ways: 8 indirect buffer size: 4096 RAS size: 64
Initializing LRU.
Initializing LRU.
Initializing LRU.
Initializing LRU.
Initializing rdLRU.
Initializing LRU.
Heartbeat CPU 0 instructions: 2000004 cycles: 698712 heartbeat IPC: 2.86242 cumulative IPC: 2.86242 (Simulation time: 0 hr 1 min 30 sec) 
Heartbeat CPU 0 instructions: 4000001 cycles: 1394338 heartbeat IPC: 2.8751 cumulative IPC: 2.86875 (Simulation time: 0 hr 3 min 0 sec) 
Heartbeat CPU 0 instructions: 6000003 cycles: 2081030 heartbeat IPC: 2.91252 cumulative IPC: 2.88319 (Simulation time: 0 hr 4 min 22 sec) 
Heartbeat CPU 0 instructions: 8000003 cycles: 2777717 heartbeat IPC: 2.87073 cumulative IPC: 2.88006 (Simulation time: 0 hr 5 min 44 sec) 
Heartbeat CPU 0 instructions: 10000001 cycles: 3475363 heartbeat IPC: 2.86678 cumulative IPC: 2.8774 (Simulation time: 0 hr 7 min 12 sec) 
Heartbeat CPU 0 instructions: 12000004 cycles: 4173089 heartbeat IPC: 2.86646 cumulative IPC: 2.87557 (Simulation time: 0 hr 8 min 32 sec) 
Heartbeat CPU 0 instructions: 14000003 cycles: 4870607 heartbeat IPC: 2.86731 cumulative IPC: 2.87439 (Simulation time: 0 hr 9 min 57 sec) 
Heartbeat CPU 0 instructions: 16000000 cycles: 5567654 heartbeat IPC: 2.86924 cumulative IPC: 2.87374 (Simulation time: 0 hr 11 min 26 sec) 
Heartbeat CPU 0 instructions: 18000003 cycles: 6265584 heartbeat IPC: 2.86562 cumulative IPC: 2.87284 (Simulation time: 0 hr 12 min 52 sec) 
Heartbeat CPU 0 instructions: 20000000 cycles: 6963120 heartbeat IPC: 2.86723 cumulative IPC: 2.87228 (Simulation time: 0 hr 14 min 20 sec) 
Heartbeat CPU 0 instructions: 22000002 cycles: 7661196 heartbeat IPC: 2.86502 cumulative IPC: 2.87161 (Simulation time: 0 hr 15 min 46 sec) 
Heartbeat CPU 0 instructions: 24000002 cycles: 8358489 heartbeat IPC: 2.86823 cumulative IPC: 2.87133 (Simulation time: 0 hr 17 min 7 sec) 
Heartbeat CPU 0 instructions: 26000000 cycles: 9059318 heartbeat IPC: 2.85376 cumulative IPC: 2.86997 (Simulation time: 0 hr 18 min 35 sec) 
Heartbeat CPU 0 instructions: 28000000 cycles: 9759683 heartbeat IPC: 2.85565 cumulative IPC: 2.86895 (Simulation time: 0 hr 20 min 0 sec) 
Heartbeat CPU 0 instructions: 30000003 cycles: 10459619 heartbeat IPC: 2.85741 cumulative IPC: 2.86817 (Simulation time: 0 hr 21 min 22 sec) 
Heartbeat CPU 0 instructions: 32000000 cycles: 11159670 heartbeat IPC: 2.85693 cumulative IPC: 2.86747 (Simulation time: 0 hr 22 min 46 sec) 
Heartbeat CPU 0 instructions: 34000002 cycles: 11860095 heartbeat IPC: 2.85541 cumulative IPC: 2.86676 (Simulation time: 0 hr 24 min 12 sec) 
Heartbeat CPU 0 instructions: 36000002 cycles: 12561037 heartbeat IPC: 2.8533 cumulative IPC: 2.86601 (Simulation time: 0 hr 25 min 36 sec) 
Heartbeat CPU 0 instructions: 38000000 cycles: 13260448 heartbeat IPC: 2.85955 cumulative IPC: 2.86566 (Simulation time: 0 hr 27 min 1 sec) 
Heartbeat CPU 0 instructions: 40000000 cycles: 13956965 heartbeat IPC: 2.87143 cumulative IPC: 2.86595 (Simulation time: 0 hr 28 min 20 sec) 
Heartbeat CPU 0 instructions: 42000001 cycles: 14643155 heartbeat IPC: 2.91465 cumulative IPC: 2.86823 (Simulation time: 0 hr 29 min 41 sec) 
Heartbeat CPU 0 instructions: 44000001 cycles: 15339873 heartbeat IPC: 2.8706 cumulative IPC: 2.86834 (Simulation time: 0 hr 31 min 7 sec) 
Heartbeat CPU 0 instructions: 46000004 cycles: 16036623 heartbeat IPC: 2.87047 cumulative IPC: 2.86843 (Simulation time: 0 hr 32 min 31 sec) 
Heartbeat CPU 0 instructions: 48000000 cycles: 16734863 heartbeat IPC: 2.86434 cumulative IPC: 2.86826 (Simulation time: 0 hr 33 min 54 sec) 
Heartbeat CPU 0 instructions: 50000002 cycles: 17432412 heartbeat IPC: 2.86718 cumulative IPC: 2.86822 (Simulation time: 0 hr 35 min 17 sec) 

Warmup complete CPU 0 instructions: 50000002 cycles: 17432412 (Simulation time: 0 hr 35 min 17 sec) 

Heartbeat CPU 0 instructions: 52000002 cycles: 34707042 heartbeat IPC: 0.115777 cumulative IPC: 0.115777 (Simulation time: 0 hr 42 min 52 sec) 

Region of Interest Statistics
cpu0_DTLB TOTAL     ACCESS:     267022  HIT:     264189  MISS:       2833
cpu0_DTLB LOAD      ACCESS:     257339  HIT:     254506  MISS:       2833
cpu0_DTLB RFO       ACCESS:       9683  HIT:       9683  MISS:          0
cpu0_DTLB PREFETCH  ACCESS:          0  HIT:          0  MISS:          0
cpu0_DTLB WRITEBACK ACCESS:          0  HIT:          0  MISS:          0
cpu0_ITLB TOTAL     ACCESS:     123734  HIT:     123734  MISS:          0
cpu0_ITLB LOAD      ACCESS:     123734  HIT:     123734  MISS:          0
cpu0_ITLB RFO       ACCESS:          0  HIT:          0  MISS:          0
cpu0_ITLB PREFETCH  ACCESS:          0  HIT:          0  MISS:          0
cpu0_ITLB WRITEBACK ACCESS:          0  HIT:          0  MISS:          0
cpu0_STLB TOTAL     ACCESS:       2833  HIT:        114  MISS:       2719
cpu0_STLB LOAD      ACCESS:       2833  HIT:        114  MISS:       2719
cpu0_STLB RFO       ACCESS:          0  HIT:          0  MISS:          0
cpu0_STLB PREFETCH  ACCESS:          0  HIT:          0  MISS:          0
cpu0_STLB WRITEBACK ACCESS:          0  HIT:          0  MISS:          0
cpu0_L1D TOTAL     ACCESS:     283298  HIT:     142716  MISS:     140582
cpu0_L1D LOAD      ACCESS:     254958  HIT:     114684  MISS:     140274
cpu0_L1D RFO       ACCESS:      25622  HIT:      25570  MISS:         52
cpu0_L1D PREFETCH  ACCESS:          0  HIT:          0  MISS:          0
cpu0_L1D WRITEBACK ACCESS:          0  HIT:          0  MISS:          0
cpu0_L2C TOTAL     ACCESS:     140817  HIT:        473  MISS:     140344
cpu0_L2C LOAD      ACCESS:     140274  HIT:         51  MISS:     140223
cpu0_L2C RFO       ACCESS:         52  HIT:          0  MISS:         52
cpu0_L2C PREFETCH  ACCESS:          0  HIT:          0  MISS:          0
cpu0_L2C WRITEBACK ACCESS:        235  HIT:        233  MISS:          2
LLC TOTAL     ACCESS:     140582  HIT:        286  MISS:     140296
LLC LOAD      ACCESS:     140223  HIT:          5  MISS:     140218
LLC RFO       ACCESS:         52  HIT:          0  MISS:         52
LLC PREFETCH  ACCESS:          0  HIT:          0  MISS:          0
LLC WRITEBACK ACCESS:        240  HIT:        238  MISS:          2
Heartbeat CPU 0 instructions: 54000000 cycles: 51954924 heartbeat IPC: 0.115956 cumulative IPC: 0.115866 (Simulation time: 0 hr 50 min 43 sec) 

Region of Interest Statistics
cpu0_DTLB TOTAL     ACCESS:     534456  HIT:     528903  MISS:       5553
cpu0_DTLB LOAD      ACCESS:     515056  HIT:     509504  MISS:       5552
cpu0_DTLB RFO       ACCESS:      19400  HIT:      19399  MISS:          1
cpu0_DTLB PREFETCH  ACCESS:          0  HIT:          0  MISS:          0
cpu0_DTLB WRITEBACK ACCESS:          0  HIT:          0  MISS:          0
cpu0_ITLB TOTAL     ACCESS:     247662  HIT:     247662  MISS:          0
cpu0_ITLB LOAD      ACCESS:     247662  HIT:     247662  MISS:          0
cpu0_ITLB RFO       ACCESS:          0  HIT:          0  MISS:          0
cpu0_ITLB PREFETCH  ACCESS:          0  HIT:          0  MISS:          0
cpu0_ITLB WRITEBACK ACCESS:          0  HIT:          0  MISS:          0
cpu0_STLB TOTAL     ACCESS:       5553  HIT:        204  MISS:       5349
cpu0_STLB LOAD      ACCESS:       5552  HIT:        204  MISS:       5348
cpu0_STLB RFO       ACCESS:          1  HIT:          0  MISS:          1
cpu0_STLB PREFETCH  ACCESS:          0  HIT:          0  MISS:          0
cpu0_STLB WRITEBACK ACCESS:          0  HIT:          0  MISS:          0
cpu0_L1D TOTAL     ACCESS:     566686  HIT:     285496  MISS:     281190
cpu0_L1D LOAD      ACCESS:     510007  HIT:     229390  MISS:     280617
cpu0_L1D RFO       ACCESS:      51332  HIT:      51235  MISS:         97
cpu0_L1D PREFETCH  ACCESS:          0  HIT:          0  MISS:          0
cpu0_L1D WRITEBACK ACCESS:          0  HIT:          0  MISS:          0
cpu0_L2C TOTAL     ACCESS:     281658  HIT:        933  MISS:     280725
cpu0_L2C LOAD      ACCESS:     280617  HIT:        107  MISS:     280510
cpu0_L2C RFO       ACCESS:         97  HIT:          0  MISS:         97
cpu0_L2C PREFETCH  ACCESS:          0  HIT:          0  MISS:          0
cpu0_L2C WRITEBACK ACCESS:        468  HIT:        466  MISS:          2
LLC TOTAL     ACCESS:     281196  HIT:        565  MISS:     280631
LLC LOAD      ACCESS:     280510  HIT:         16  MISS:     280494
LLC RFO       ACCESS:         97  HIT:          0  MISS:         97
LLC PREFETCH  ACCESS:          0  HIT:          0  MISS:          0
LLC WRITEBACK ACCESS:        473  HIT:        471  MISS:          2
Heartbeat CPU 0 instructions: 56000003 cycles: 69238371 heartbeat IPC: 0.115718 cumulative IPC: 0.115817 (Simulation time: 0 hr 58 min 29 sec) 

Region of Interest Statistics
cpu0_DTLB TOTAL     ACCESS:     801214  HIT:     792716  MISS:       8498
cpu0_DTLB LOAD      ACCESS:     772165  HIT:     763669  MISS:       8496
cpu0_DTLB RFO       ACCESS:      29049  HIT:      29047  MISS:          2
cpu0_DTLB PREFETCH  ACCESS:          0  HIT:          0  MISS:          0
cpu0_DTLB WRITEBACK ACCESS:          0  HIT:          0  MISS:          0
cpu0_ITLB TOTAL     ACCESS:     371476  HIT:     371476  MISS:          0
cpu0_ITLB LOAD      ACCESS:     371476  HIT:     371476  MISS:          0
cpu0_ITLB RFO       ACCESS:          0  HIT:          0  MISS:          0
cpu0_ITLB PREFETCH  ACCESS:          0  HIT:          0  MISS:          0
cpu0_ITLB WRITEBACK ACCESS:          0  HIT:          0  MISS:          0
cpu0_STLB TOTAL     ACCESS:       8498  HIT:        312  MISS:       8186
cpu0_STLB LOAD      ACCESS:       8496  HIT:        312  MISS:       8184
cpu0_STLB RFO       ACCESS:          2  HIT:          0  MISS:          2
cpu0_STLB PREFETCH  ACCESS:          0  HIT:          0  MISS:          0
cpu0_STLB WRITEBACK ACCESS:          0  HIT:          0  MISS:          0
cpu0_L1D TOTAL     ACCESS:     849499  HIT:     427632  MISS:     421867
cpu0_L1D LOAD      ACCESS:     764403  HIT:     343472  MISS:     420931
cpu0_L1D RFO       ACCESS:      76914  HIT:      76759  MISS:        155
cpu0_L1D PREFETCH  ACCESS:          0  HIT:          0  MISS:          0
cpu0_L1D WRITEBACK ACCESS:          0  HIT:          0  MISS:          0
cpu0_L2C TOTAL     ACCESS:     422581  HIT:       1488  MISS:     421093
cpu0_L2C LOAD      ACCESS:     420931  HIT:        178  MISS:     420753
cpu0_L2C RFO       ACCESS:        155  HIT:          0  MISS:        155
cpu0_L2C PREFETCH  ACCESS:          0  HIT:          0  MISS:          0
cpu0_L2C WRITEBACK ACCESS:        714  HIT:        712  MISS:          2
LLC TOTAL     ACCESS:     421803  HIT:        845  MISS:     420958
LLC LOAD      ACCESS:     420753  HIT:         17  MISS:     420736
LLC RFO       ACCESS:        155  HIT:          0  MISS:        155
LLC PREFETCH  ACCESS:          0  HIT:          0  MISS:          0
LLC WRITEBACK ACCESS:        712  HIT:        710  MISS:          2
Heartbeat CPU 0 instructions: 58000000 cycles: 86568787 heartbeat IPC: 0.115404 cumulative IPC: 0.115713 (Simulation time: 1 hr 6 min 12 sec) 

Region of Interest Statistics
cpu0_DTLB TOTAL     ACCESS:    1068570  HIT:    1057354  MISS:      11216
cpu0_DTLB LOAD      ACCESS:    1029814  HIT:    1018600  MISS:      11214
cpu0_DTLB RFO       ACCESS:      38756  HIT:      38754  MISS:          2
cpu0_DTLB PREFETCH  ACCESS:          0  HIT:          0  MISS:          0
cpu0_DTLB WRITEBACK ACCESS:          0  HIT:          0  MISS:          0
cpu0_ITLB TOTAL     ACCESS:     495259  HIT:     495259  MISS:          0
cpu0_ITLB LOAD      ACCESS:     495259  HIT:     495259  MISS:          0
cpu0_ITLB RFO       ACCESS:          0  HIT:          0  MISS:          0
cpu0_ITLB PREFETCH  ACCESS:          0  HIT:          0  MISS:          0
cpu0_ITLB WRITEBACK ACCESS:          0  HIT:          0  MISS:          0
cpu0_STLB TOTAL     ACCESS:      11216  HIT:        379  MISS:      10837
cpu0_STLB LOAD      ACCESS:      11214  HIT:        379  MISS:      10835
cpu0_STLB RFO       ACCESS:          2  HIT:          0  MISS:          2
cpu0_STLB PREFETCH  ACCESS:          0  HIT:          0  MISS:          0
cpu0_STLB WRITEBACK ACCESS:          0  HIT:          0  MISS:          0
cpu0_L1D TOTAL     ACCESS:    1133217  HIT:     570706  MISS:     562511
cpu0_L1D LOAD      ACCESS:    1019784  HIT:     458474  MISS:     561310
cpu0_L1D RFO       ACCESS:     102601  HIT:     102403  MISS:        198
cpu0_L1D PREFETCH  ACCESS:          0  HIT:          0  MISS:          0
cpu0_L1D WRITEBACK ACCESS:          0  HIT:          0  MISS:          0
cpu0_L2C TOTAL     ACCESS:     563461  HIT:       1933  MISS:     561528
cpu0_L2C LOAD      ACCESS:     561310  HIT:        212  MISS:     561098
cpu0_L2C RFO       ACCESS:        198  HIT:          0  MISS:        198
cpu0_L2C PREFETCH  ACCESS:          0  HIT:          0  MISS:          0
cpu0_L2C WRITEBACK ACCESS:        950  HIT:        948  MISS:          2
LLC TOTAL     ACCESS:     562474  HIT:       1123  MISS:     561351
LLC LOAD      ACCESS:     561098  HIT:         25  MISS:     561073
LLC RFO       ACCESS:        198  HIT:          0  MISS:        198
LLC PREFETCH  ACCESS:          0  HIT:          0  MISS:          0
LLC WRITEBACK ACCESS:        948  HIT:        946  MISS:          2
Heartbeat CPU 0 instructions: 60000000 cycles: 103853613 heartbeat IPC: 0.115708 cumulative IPC: 0.115712 (Simulation time: 1 hr 13 min 54 sec) 

Region of Interest Statistics
cpu0_DTLB TOTAL     ACCESS:    1335384  HIT:    1321272  MISS:      14112
cpu0_DTLB LOAD      ACCESS:    1286958  HIT:    1272850  MISS:      14108
cpu0_DTLB RFO       ACCESS:      48426  HIT:      48422  MISS:          4
cpu0_DTLB PREFETCH  ACCESS:          0  HIT:          0  MISS:          0
cpu0_DTLB WRITEBACK ACCESS:          0  HIT:          0  MISS:          0
cpu0_ITLB TOTAL     ACCESS:     619198  HIT:     619198  MISS:          0
cpu0_ITLB LOAD      ACCESS:     619198  HIT:     619198  MISS:          0
cpu0_ITLB RFO       ACCESS:          0  HIT:          0  MISS:          0
cpu0_ITLB PREFETCH  ACCESS:          0  HIT:          0  MISS:          0
cpu0_ITLB WRITEBACK ACCESS:          0  HIT:          0  MISS:          0
cpu0_STLB TOTAL     ACCESS:      14112  HIT:        460  MISS:      13652
cpu0_STLB LOAD      ACCESS:      14108  HIT:        460  MISS:      13648
cpu0_STLB RFO       ACCESS:          4  HIT:          0  MISS:          4
cpu0_STLB PREFETCH  ACCESS:          0  HIT:          0  MISS:          0
cpu0_STLB WRITEBACK ACCESS:          0  HIT:          0  MISS:          0
cpu0_L1D TOTAL     ACCESS:    1416347  HIT:     713280  MISS:     703067
cpu0_L1D LOAD      ACCESS:    1274479  HIT:     572923  MISS:     701556
cpu0_L1D RFO       ACCESS:     128222  HIT:     127956  MISS:        266
cpu0_L1D PREFETCH  ACCESS:          0  HIT:          0  MISS:          0
cpu0_L1D WRITEBACK ACCESS:          0  HIT:          0  MISS:          0
cpu0_L2C TOTAL     ACCESS:     704253  HIT:       2429  MISS:     701824
cpu0_L2C LOAD      ACCESS:     701556  HIT:        285  MISS:     701271
cpu0_L2C RFO       ACCESS:        266  HIT:          0  MISS:        266
cpu0_L2C PREFETCH  ACCESS:          0  HIT:          0  MISS:          0
cpu0_L2C WRITEBACK ACCESS:       1186  HIT:       1184  MISS:          2
LLC TOTAL     ACCESS:     703008  HIT:       1402  MISS:     701606
LLC LOAD      ACCESS:     701271  HIT:         27  MISS:     701244
LLC RFO       ACCESS:        266  HIT:          0  MISS:        266
LLC PREFETCH  ACCESS:          0  HIT:          0  MISS:          0
LLC WRITEBACK ACCESS:       1186  HIT:       1184  MISS:          2
Heartbeat CPU 0 instructions: 62000003 cycles: 121156375 heartbeat IPC: 0.115589 cumulative IPC: 0.115692 (Simulation time: 1 hr 21 min 19 sec) 

Region of Interest Statistics
cpu0_DTLB TOTAL     ACCESS:    1603622  HIT:    1587037  MISS:      16585
cpu0_DTLB LOAD      ACCESS:    1545465  HIT:    1528885  MISS:      16580
cpu0_DTLB RFO       ACCESS:      58157  HIT:      58152  MISS:          5
cpu0_DTLB PREFETCH  ACCESS:          0  HIT:          0  MISS:          0
cpu0_DTLB WRITEBACK ACCESS:          0  HIT:          0  MISS:          0
cpu0_ITLB TOTAL     ACCESS:     742728  HIT:     742728  MISS:          0
cpu0_ITLB LOAD      ACCESS:     742728  HIT:     742728  MISS:          0
cpu0_ITLB RFO       ACCESS:          0  HIT:          0  MISS:          0
cpu0_ITLB PREFETCH  ACCESS:          0  HIT:          0  MISS:          0
cpu0_ITLB WRITEBACK ACCESS:          0  HIT:          0  MISS:          0
cpu0_STLB TOTAL     ACCESS:      16585  HIT:        529  MISS:      16056
cpu0_STLB LOAD      ACCESS:      16580  HIT:        529  MISS:      16051
cpu0_STLB RFO       ACCESS:          5  HIT:          0  MISS:          5
cpu0_STLB PREFETCH  ACCESS:          0  HIT:          0  MISS:          0
cpu0_STLB WRITEBACK ACCESS:          0  HIT:          0  MISS:          0
cpu0_L1D TOTAL     ACCESS:    1700914  HIT:     857069  MISS:     843845
cpu0_L1D LOAD      ACCESS:    1530871  HIT:     688717  MISS:     842154
cpu0_L1D RFO       ACCESS:     153993  HIT:     153686  MISS:        307
cpu0_L1D PREFETCH  ACCESS:          0  HIT:          0  MISS:          0
cpu0_L1D WRITEBACK ACCESS:          0  HIT:          0  MISS:          0
cpu0_L2C TOTAL     ACCESS:     845214  HIT:       2736  MISS:     842478
cpu0_L2C LOAD      ACCESS:     842154  HIT:        297  MISS:     841857
cpu0_L2C RFO       ACCESS:        307  HIT:          0  MISS:        307
cpu0_L2C PREFETCH  ACCESS:          0  HIT:          0  MISS:          0
cpu0_L2C WRITEBACK ACCESS:       1369  HIT:       1367  MISS:          2
LLC TOTAL     ACCESS:     843849  HIT:       1618  MISS:     842231
LLC LOAD      ACCESS:     841857  HIT:         33  MISS:     841824
LLC RFO       ACCESS:        307  HIT:          0  MISS:        307
LLC PREFETCH  ACCESS:          0  HIT:          0  MISS:          0
LLC WRITEBACK ACCESS:       1373  HIT:       1371  MISS:          2
Heartbeat CPU 0 instructions: 64000000 cycles: 138444579 heartbeat IPC: 0.115686 cumulative IPC: 0.115691 (Simulation time: 1 hr 28 min 34 sec) 

Region of Interest Statistics
cpu0_DTLB TOTAL     ACCESS:    1871732  HIT:    1852651  MISS:      19081
cpu0_DTLB LOAD      ACCESS:    1803837  HIT:    1784762  MISS:      19075
cpu0_DTLB RFO       ACCESS:      67895  HIT:      67889  MISS:          6
cpu0_DTLB PREFETCH  ACCESS:          0  HIT:          0  MISS:          0
cpu0_DTLB WRITEBACK ACCESS:          0  HIT:          0  MISS:          0
cpu0_ITLB TOTAL     ACCESS:     866322  HIT:     866322  MISS:          0
cpu0_ITLB LOAD      ACCESS:     866322  HIT:     866322  MISS:          0
cpu0_ITLB RFO       ACCESS:          0  HIT:          0  MISS:          0
cpu0_ITLB PREFETCH  ACCESS:          0  HIT:          0  MISS:          0
cpu0_ITLB WRITEBACK ACCESS:          0  HIT:          0  MISS:          0
cpu0_STLB TOTAL     ACCESS:      19081  HIT:        584  MISS:      18497
cpu0_STLB LOAD      ACCESS:      19075  HIT:        584  MISS:      18491
cpu0_STLB RFO       ACCESS:          6  HIT:          0  MISS:          6
cpu0_STLB PREFETCH  ACCESS:          0  HIT:          0  MISS:          0
cpu0_STLB WRITEBACK ACCESS:          0  HIT:          0  MISS:          0
cpu0_L1D TOTAL     ACCESS:    1985362  HIT:    1000805  MISS:     984557
cpu0_L1D LOAD      ACCESS:    1787091  HIT:     804399  MISS:     982692
cpu0_L1D RFO       ACCESS:     179780  HIT:     179439  MISS:        341
cpu0_L1D PREFETCH  ACCESS:          0  HIT:          0  MISS:          0
cpu0_L1D WRITEBACK ACCESS:          0  HIT:          0  MISS:          0
cpu0_L2C TOTAL     ACCESS:     986106  HIT:       3048  MISS:     983058
cpu0_L2C LOAD      ACCESS:     982692  HIT:        315  MISS:     982377
cpu0_L2C RFO       ACCESS:        341  HIT:          0  MISS:        341
cpu0_L2C PREFETCH  ACCESS:          0  HIT:          0  MISS:          0
cpu0_L2C WRITEBACK ACCESS:       1549  HIT:       1547  MISS:          2
LLC TOTAL     ACCESS:     984609  HIT:       1827  MISS:     982782
LLC LOAD      ACCESS:     982377  HIT:         39  MISS:     982338
LLC RFO       ACCESS:        341  HIT:          0  MISS:        341
LLC PREFETCH  ACCESS:          0  HIT:          0  MISS:          0
LLC WRITEBACK ACCESS:       1553  HIT:       1551  MISS:          2
Heartbeat CPU 0 instructions: 66000000 cycles: 155769612 heartbeat IPC: 0.11544 cumulative IPC: 0.115659 (Simulation time: 1 hr 36 min 13 sec) 

Region of Interest Statistics
cpu0_DTLB TOTAL     ACCESS:    2139750  HIT:    2118094  MISS:      21656
cpu0_DTLB LOAD      ACCESS:    2062140  HIT:    2040491  MISS:      21649
cpu0_DTLB RFO       ACCESS:      77610  HIT:      77603  MISS:          7
cpu0_DTLB PREFETCH  ACCESS:          0  HIT:          0  MISS:          0
cpu0_DTLB WRITEBACK ACCESS:          0  HIT:          0  MISS:          0
cpu0_ITLB TOTAL     ACCESS:     989951  HIT:     989951  MISS:          0
cpu0_ITLB LOAD      ACCESS:     989951  HIT:     989951  MISS:          0
cpu0_ITLB RFO       ACCESS:          0  HIT:          0  MISS:          0
cpu0_ITLB PREFETCH  ACCESS:          0  HIT:          0  MISS:          0
cpu0_ITLB WRITEBACK ACCESS:          0  HIT:          0  MISS:          0
cpu0_STLB TOTAL     ACCESS:      21656  HIT:        657  MISS:      20999
cpu0_STLB LOAD      ACCESS:      21649  HIT:        657  MISS:      20992
cpu0_STLB RFO       ACCESS:          7  HIT:          0  MISS:          7
cpu0_STLB PREFETCH  ACCESS:          0  HIT:          0  MISS:          0
cpu0_STLB WRITEBACK ACCESS:          0  HIT:          0  MISS:          0
cpu0_L1D TOTAL     ACCESS:    2269773  HIT:    1144412  MISS:    1125361
cpu0_L1D LOAD      ACCESS:    2043217  HIT:     919963  MISS:    1123254
cpu0_L1D RFO       ACCESS:     205564  HIT:     205143  MISS:        421
cpu0_L1D PREFETCH  ACCESS:          0  HIT:          0  MISS:          0
cpu0_L1D WRITEBACK ACCESS:          0  HIT:          0  MISS:          0
cpu0_L2C TOTAL     ACCESS:    1127112  HIT:       3389  MISS:    1123723
cpu0_L2C LOAD      ACCESS:    1123254  HIT:        332  MISS:    1122922
cpu0_L2C RFO       ACCESS:        421  HIT:          0  MISS:        421
cpu0_L2C PREFETCH  ACCESS:          0  HIT:          0  MISS:          0
cpu0_L2C WRITEBACK ACCESS:       1751  HIT:       1748  MISS:          3
LLC TOTAL     ACCESS:    1125474  HIT:       2063  MISS:    1123411
LLC LOAD      ACCESS:    1122922  HIT:         46  MISS:    1122876
LLC RFO       ACCESS:        421  HIT:          0  MISS:        421
LLC PREFETCH  ACCESS:          0  HIT:          0  MISS:          0
LLC WRITEBACK ACCESS:       1754  HIT:       1751  MISS:          3
Heartbeat CPU 0 instructions: 68000001 cycles: 173130615 heartbeat IPC: 0.115201 cumulative IPC: 0.115608 (Simulation time: 1 hr 43 min 42 sec) 

Region of Interest Statistics
cpu0_DTLB TOTAL     ACCESS:    2407734  HIT:    2383458  MISS:      24276
cpu0_DTLB LOAD      ACCESS:    2320431  HIT:    2296164  MISS:      24267
cpu0_DTLB RFO       ACCESS:      87303  HIT:      87294  MISS:          9
cpu0_DTLB PREFETCH  ACCESS:          0  HIT:          0  MISS:          0
cpu0_DTLB WRITEBACK ACCESS:          0  HIT:          0  MISS:          0
cpu0_ITLB TOTAL     ACCESS:    1113628  HIT:    1113628  MISS:          0
cpu0_ITLB LOAD      ACCESS:    1113628  HIT:    1113628  MISS:          0
cpu0_ITLB RFO       ACCESS:          0  HIT:          0  MISS:          0
cpu0_ITLB PREFETCH  ACCESS:          0  HIT:          0  MISS:          0
cpu0_ITLB WRITEBACK ACCESS:          0  HIT:          0  MISS:          0
cpu0_STLB TOTAL     ACCESS:      24276  HIT:        698  MISS:      23578
cpu0_STLB LOAD      ACCESS:      24267  HIT:        698  MISS:      23569
cpu0_STLB RFO       ACCESS:          9  HIT:          0  MISS:          9
cpu0_STLB PREFETCH  ACCESS:          0  HIT:          0  MISS:          0
cpu0_STLB WRITEBACK ACCESS:          0  HIT:          0  MISS:          0
cpu0_L1D TOTAL     ACCESS:    2554341  HIT:    1288092  MISS:    1266249
cpu0_L1D LOAD      ACCESS:    2299473  HIT:    1035529  MISS:    1263944
cpu0_L1D RFO       ACCESS:     231298  HIT:     230844  MISS:        454
cpu0_L1D PREFETCH  ACCESS:          0  HIT:          0  MISS:          0
cpu0_L1D WRITEBACK ACCESS:          0  HIT:          0  MISS:          0
cpu0_L2C TOTAL     ACCESS:    1268238  HIT:       3791  MISS:    1264447
cpu0_L2C LOAD      ACCESS:    1263944  HIT:        356  MISS:    1263588
cpu0_L2C RFO       ACCESS:        454  HIT:          0  MISS:        454
cpu0_L2C PREFETCH  ACCESS:          0  HIT:          0  MISS:          0
cpu0_L2C WRITEBACK ACCESS:       1989  HIT:       1986  MISS:          3
LLC TOTAL     ACCESS:    1266435  HIT:       2324  MISS:    1264111
LLC LOAD      ACCESS:    1263588  HIT:         50  MISS:    1263538
LLC RFO       ACCESS:        454  HIT:          0  MISS:        454
LLC PREFETCH  ACCESS:          0  HIT:          0  MISS:          0
LLC WRITEBACK ACCESS:       1991  HIT:       1988  MISS:          3
Heartbeat CPU 0 instructions: 70000000 cycles: 190475581 heartbeat IPC: 0.115307 cumulative IPC: 0.115578 (Simulation time: 1 hr 51 min 8 sec) 

Region of Interest Statistics
cpu0_DTLB TOTAL     ACCESS:    2675797  HIT:    2648943  MISS:      26854
cpu0_DTLB LOAD      ACCESS:    2578775  HIT:    2551931  MISS:      26844
cpu0_DTLB RFO       ACCESS:      97022  HIT:      97012  MISS:         10
cpu0_DTLB PREFETCH  ACCESS:          0  HIT:          0  MISS:          0
cpu0_DTLB WRITEBACK ACCESS:          0  HIT:          0  MISS:          0
cpu0_ITLB TOTAL     ACCESS:    1237300  HIT:    1237300  MISS:          0
cpu0_ITLB LOAD      ACCESS:    1237300  HIT:    1237300  MISS:          0
cpu0_ITLB RFO       ACCESS:          0  HIT:          0  MISS:          0
cpu0_ITLB PREFETCH  ACCESS:          0  HIT:          0  MISS:          0
cpu0_ITLB WRITEBACK ACCESS:          0  HIT:          0  MISS:          0
cpu0_STLB TOTAL     ACCESS:      26854  HIT:        739  MISS:      26115
cpu0_STLB LOAD      ACCESS:      26844  HIT:        739  MISS:      26105
cpu0_STLB RFO       ACCESS:         10  HIT:          0  MISS:         10
cpu0_STLB PREFETCH  ACCESS:          0  HIT:          0  MISS:          0
cpu0_STLB WRITEBACK ACCESS:          0  HIT:          0  MISS:          0
cpu0_L1D TOTAL     ACCESS:    2838973  HIT:    1431837  MISS:    1407136
cpu0_L1D LOAD      ACCESS:    2555793  HIT:    1151192  MISS:    1404601
cpu0_L1D RFO       ACCESS:     257074  HIT:     256542  MISS:        532
cpu0_L1D PREFETCH  ACCESS:          0  HIT:          0  MISS:          0
cpu0_L1D WRITEBACK ACCESS:          0  HIT:          0  MISS:          0
cpu0_L2C TOTAL     ACCESS:    1409346  HIT:       4153  MISS:    1405193
cpu0_L2C LOAD      ACCESS:    1404601  HIT:        376  MISS:    1404225
cpu0_L2C RFO       ACCESS:        532  HIT:          0  MISS:        532
cpu0_L2C PREFETCH  ACCESS:          0  HIT:          0  MISS:          0
cpu0_L2C WRITEBACK ACCESS:       2210  HIT:       2207  MISS:          3
LLC TOTAL     ACCESS:    1407398  HIT:       2572  MISS:    1404826
LLC LOAD      ACCESS:    1404225  HIT:         58  MISS:    1404167
LLC RFO       ACCESS:        532  HIT:          0  MISS:        532
LLC PREFETCH  ACCESS:          0  HIT:          0  MISS:          0
LLC WRITEBACK ACCESS:       2208  HIT:       2205  MISS:          3
Heartbeat CPU 0 instructions: 72000000 cycles: 207783472 heartbeat IPC: 0.115554 cumulative IPC: 0.115576 (Simulation time: 1 hr 58 min 37 sec) 

Region of Interest Statistics
cpu0_DTLB TOTAL     ACCESS:    2944034  HIT:    2914691  MISS:      29343
cpu0_DTLB LOAD      ACCESS:    2837273  HIT:    2807940  MISS:      29333
cpu0_DTLB RFO       ACCESS:     106761  HIT:     106751  MISS:         10
cpu0_DTLB PREFETCH  ACCESS:          0  HIT:          0  MISS:          0
cpu0_DTLB WRITEBACK ACCESS:          0  HIT:          0  MISS:          0
cpu0_ITLB TOTAL     ACCESS:    1360835  HIT:    1360835  MISS:          0
cpu0_ITLB LOAD      ACCESS:    1360835  HIT:    1360835  MISS:          0
cpu0_ITLB RFO       ACCESS:          0  HIT:          0  MISS:          0
cpu0_ITLB PREFETCH  ACCESS:          0  HIT:          0  MISS:          0
cpu0_ITLB WRITEBACK ACCESS:          0  HIT:          0  MISS:          0
cpu0_STLB TOTAL     ACCESS:      29343  HIT:        802  MISS:      28541
cpu0_STLB LOAD      ACCESS:      29333  HIT:        802  MISS:      28531
cpu0_STLB RFO       ACCESS:         10  HIT:          0  MISS:         10
cpu0_STLB PREFETCH  ACCESS:          0  HIT:          0  MISS:          0
cpu0_STLB WRITEBACK ACCESS:          0  HIT:          0  MISS:          0
cpu0_L1D TOTAL     ACCESS:    3123590  HIT:    1575655  MISS:    1547935
cpu0_L1D LOAD      ACCESS:    2812213  HIT:    1267011  MISS:    1545202
cpu0_L1D RFO       ACCESS:     282845  HIT:     282257  MISS:        588
cpu0_L1D PREFETCH  ACCESS:          0  HIT:          0  MISS:          0
cpu0_L1D WRITEBACK ACCESS:          0  HIT:          0  MISS:          0
cpu0_L2C TOTAL     ACCESS:    1550343  HIT:       4477  MISS:    1545866
cpu0_L2C LOAD      ACCESS:    1545202  HIT:        383  MISS:    1544819
cpu0_L2C RFO       ACCESS:        588  HIT:          0  MISS:        588
cpu0_L2C PREFETCH  ACCESS:          0  HIT:          0  MISS:          0
cpu0_L2C WRITEBACK ACCESS:       2408  HIT:       2405  MISS:          3
LLC TOTAL     ACCESS:    1548266  HIT:       2797  MISS:    1545469
LLC LOAD      ACCESS:    1544819  HIT:         67  MISS:    1544752
LLC RFO       ACCESS:        588  HIT:          0  MISS:        588
LLC PREFETCH  ACCESS:          0  HIT:          0  MISS:          0
LLC WRITEBACK ACCESS:       2403  HIT:       2400  MISS:          3
Heartbeat CPU 0 instructions: 74000001 cycles: 225112551 heartbeat IPC: 0.115413 cumulative IPC: 0.115562 (Simulation time: 2 hr 6 min 13 sec) 

Region of Interest Statistics
cpu0_DTLB TOTAL     ACCESS:    3212404  HIT:    3180566  MISS:      31838
cpu0_DTLB LOAD      ACCESS:    3095877  HIT:    3064049  MISS:      31828
cpu0_DTLB RFO       ACCESS:     116527  HIT:     116517  MISS:         10
cpu0_DTLB PREFETCH  ACCESS:          0  HIT:          0  MISS:          0
cpu0_DTLB WRITEBACK ACCESS:          0  HIT:          0  MISS:          0
cpu0_ITLB TOTAL     ACCESS:    1484336  HIT:    1484336  MISS:          0
cpu0_ITLB LOAD      ACCESS:    1484336  HIT:    1484336  MISS:          0
cpu0_ITLB RFO       ACCESS:          0  HIT:          0  MISS:          0
cpu0_ITLB PREFETCH  ACCESS:          0  HIT:          0  MISS:          0
cpu0_ITLB WRITEBACK ACCESS:          0  HIT:          0  MISS:          0
cpu0_STLB TOTAL     ACCESS:      31838  HIT:        845  MISS:      30993
cpu0_STLB LOAD      ACCESS:      31828  HIT:        845  MISS:      30983
cpu0_STLB RFO       ACCESS:         10  HIT:          0  MISS:         10
cpu0_STLB PREFETCH  ACCESS:          0  HIT:          0  MISS:          0
cpu0_STLB WRITEBACK ACCESS:          0  HIT:          0  MISS:          0
cpu0_L1D TOTAL     ACCESS:    3408244  HIT:    1719441  MISS:    1688803
cpu0_L1D LOAD      ACCESS:    3068653  HIT:    1382787  MISS:    1685866
cpu0_L1D RFO       ACCESS:     308608  HIT:     307985  MISS:        623
cpu0_L1D PREFETCH  ACCESS:          0  HIT:          0  MISS:          0
cpu0_L1D WRITEBACK ACCESS:          0  HIT:          0  MISS:          0
cpu0_L2C TOTAL     ACCESS:    1691426  HIT:       4842  MISS:    1686584
cpu0_L2C LOAD      ACCESS:    1685866  HIT:        395  MISS:    1685471
cpu0_L2C RFO       ACCESS:        623  HIT:          0  MISS:        623
cpu0_L2C PREFETCH  ACCESS:          0  HIT:          0  MISS:          0
cpu0_L2C WRITEBACK ACCESS:       2623  HIT:       2620  MISS:          3
LLC TOTAL     ACCESS:    1689206  HIT:       3053  MISS:    1686153
LLC LOAD      ACCESS:    1685471  HIT:         78  MISS:    1685393
LLC RFO       ACCESS:        623  HIT:          0  MISS:        623
LLC PREFETCH  ACCESS:          0  HIT:          0  MISS:          0
LLC WRITEBACK ACCESS:       2625  HIT:       2622  MISS:          3
Heartbeat CPU 0 instructions: 76000002 cycles: 242398301 heartbeat IPC: 0.115702 cumulative IPC: 0.115573 (Simulation time: 2 hr 13 min 45 sec) 

Region of Interest Statistics
cpu0_DTLB TOTAL     ACCESS:    3479292  HIT:    3444572  MISS:      34720
cpu0_DTLB LOAD      ACCESS:    3353083  HIT:    3318374  MISS:      34709
cpu0_DTLB RFO       ACCESS:     126209  HIT:     126198  MISS:         11
cpu0_DTLB PREFETCH  ACCESS:          0  HIT:          0  MISS:          0
cpu0_DTLB WRITEBACK ACCESS:          0  HIT:          0  MISS:          0
cpu0_ITLB TOTAL     ACCESS:    1608295  HIT:    1608295  MISS:          0
cpu0_ITLB LOAD      ACCESS:    1608295  HIT:    1608295  MISS:          0
cpu0_ITLB RFO       ACCESS:          0  HIT:          0  MISS:          0
cpu0_ITLB PREFETCH  ACCESS:          0  HIT:          0  MISS:          0
cpu0_ITLB WRITEBACK ACCESS:          0  HIT:          0  MISS:          0
cpu0_STLB TOTAL     ACCESS:      34720  HIT:        993  MISS:      33727
cpu0_STLB LOAD      ACCESS:      34709  HIT:        993  MISS:      33716
cpu0_STLB RFO       ACCESS:         11  HIT:          0  MISS:         11
cpu0_STLB PREFETCH  ACCESS:          0  HIT:          0  MISS:          0
cpu0_STLB WRITEBACK ACCESS:          0  HIT:          0  MISS:          0
cpu0_L1D TOTAL     ACCESS:    3691415  HIT:    1862097  MISS:    1829318
cpu0_L1D LOAD      ACCESS:    3323445  HIT:    1497367  MISS:    1826078
cpu0_L1D RFO       ACCESS:     334254  HIT:     333561  MISS:        693
cpu0_L1D PREFETCH  ACCESS:          0  HIT:          0  MISS:          0
cpu0_L1D WRITEBACK ACCESS:          0  HIT:          0  MISS:          0
cpu0_L2C TOTAL     ACCESS:    1832179  HIT:       5322  MISS:    1826857
cpu0_L2C LOAD      ACCESS:    1826078  HIT:        447  MISS:    1825631
cpu0_L2C RFO       ACCESS:        693  HIT:          0  MISS:        693
cpu0_L2C PREFETCH  ACCESS:          0  HIT:          0  MISS:          0
cpu0_L2C WRITEBACK ACCESS:       2861  HIT:       2858  MISS:          3
LLC TOTAL     ACCESS:    1829715  HIT:       3323  MISS:    1826392
LLC LOAD      ACCESS:    1825631  HIT:         82  MISS:    1825549
LLC RFO       ACCESS:        693  HIT:          0  MISS:        693
LLC PREFETCH  ACCESS:          0  HIT:          0  MISS:          0
LLC WRITEBACK ACCESS:       2861  HIT:       2858  MISS:          3
Heartbeat CPU 0 instructions: 78000002 cycles: 259631156 heartbeat IPC: 0.116057 cumulative IPC: 0.115608 (Simulation time: 2 hr 21 min 7 sec) 

Region of Interest Statistics
cpu0_DTLB TOTAL     ACCESS:    3745328  HIT:    3707624  MISS:      37704
cpu0_DTLB LOAD      ACCESS:    3609480  HIT:    3571787  MISS:      37693
cpu0_DTLB RFO       ACCESS:     135848  HIT:     135837  MISS:         11
cpu0_DTLB PREFETCH  ACCESS:          0  HIT:          0  MISS:          0
cpu0_DTLB WRITEBACK ACCESS:          0  HIT:          0  MISS:          0
cpu0_ITLB TOTAL     ACCESS:    1732387  HIT:    1732387  MISS:          0
cpu0_ITLB LOAD      ACCESS:    1732387  HIT:    1732387  MISS:          0
cpu0_ITLB RFO       ACCESS:          0  HIT:          0  MISS:          0
cpu0_ITLB PREFETCH  ACCESS:          0  HIT:          0  MISS:          0
cpu0_ITLB WRITEBACK ACCESS:          0  HIT:          0  MISS:          0
cpu0_STLB TOTAL     ACCESS:      37704  HIT:       1090  MISS:      36614
cpu0_STLB LOAD      ACCESS:      37693  HIT:       1090  MISS:      36603
cpu0_STLB RFO       ACCESS:         11  HIT:          0  MISS:         11
cpu0_STLB PREFETCH  ACCESS:          0  HIT:          0  MISS:          0
cpu0_STLB WRITEBACK ACCESS:          0  HIT:          0  MISS:          0
cpu0_L1D TOTAL     ACCESS:    3973646  HIT:    2004196  MISS:    1969450
cpu0_L1D LOAD      ACCESS:    3577256  HIT:    1611365  MISS:    1965891
cpu0_L1D RFO       ACCESS:     359791  HIT:     359029  MISS:        762
cpu0_L1D PREFETCH  ACCESS:          0  HIT:          0  MISS:          0
cpu0_L1D WRITEBACK ACCESS:          0  HIT:          0  MISS:          0
cpu0_L2C TOTAL     ACCESS:    1972552  HIT:       5822  MISS:    1966730
cpu0_L2C LOAD      ACCESS:    1965891  HIT:        511  MISS:    1965380
cpu0_L2C RFO       ACCESS:        762  HIT:          0  MISS:        762
cpu0_L2C PREFETCH  ACCESS:          0  HIT:          0  MISS:          0
cpu0_L2C WRITEBACK ACCESS:       3102  HIT:       3099  MISS:          3
LLC TOTAL     ACCESS:    1969828  HIT:       3595  MISS:    1966233
LLC LOAD      ACCESS:    1965380  HIT:         85  MISS:    1965295
LLC RFO       ACCESS:        762  HIT:          0  MISS:        762
LLC PREFETCH  ACCESS:          0  HIT:          0  MISS:          0
LLC WRITEBACK ACCESS:       3101  HIT:       3098  MISS:          3
Heartbeat CPU 0 instructions: 80000001 cycles: 276207764 heartbeat IPC: 0.120652 cumulative IPC: 0.115931 (Simulation time: 2 hr 28 min 16 sec) 

Region of Interest Statistics
cpu0_DTLB TOTAL     ACCESS:    4020304  HIT:    3979512  MISS:      40792
cpu0_DTLB LOAD      ACCESS:    3865740  HIT:    3824962  MISS:      40778
cpu0_DTLB RFO       ACCESS:     154564  HIT:     154550  MISS:         14
cpu0_DTLB PREFETCH  ACCESS:          0  HIT:          0  MISS:          0
cpu0_DTLB WRITEBACK ACCESS:          0  HIT:          0  MISS:          0
cpu0_ITLB TOTAL     ACCESS:    1853183  HIT:    1853183  MISS:          0
cpu0_ITLB LOAD      ACCESS:    1853183  HIT:    1853183  MISS:          0
cpu0_ITLB RFO       ACCESS:          0  HIT:          0  MISS:          0
cpu0_ITLB PREFETCH  ACCESS:          0  HIT:          0  MISS:          0
cpu0_ITLB WRITEBACK ACCESS:          0  HIT:          0  MISS:          0
cpu0_L1I TOTAL     ACCESS:       8081  HIT:       8081  MISS:          0
cpu0_L1I LOAD      ACCESS:       8081  HIT:       8081  MISS:          0
cpu0_L1I RFO       ACCESS:          0  HIT:          0  MISS:          0
cpu0_L1I PREFETCH  ACCESS:          0  HIT:          0  MISS:          0
cpu0_L1I WRITEBACK ACCESS:          0  HIT:          0  MISS:          0
cpu0_STLB TOTAL     ACCESS:      40792  HIT:       1369  MISS:      39423
cpu0_STLB LOAD      ACCESS:      40778  HIT:       1368  MISS:      39410
cpu0_STLB RFO       ACCESS:         14  HIT:          1  MISS:         13
cpu0_STLB PREFETCH  ACCESS:          0  HIT:          0  MISS:          0
cpu0_STLB WRITEBACK ACCESS:          0  HIT:          0  MISS:          0
cpu0_L1D TOTAL     ACCESS:    4269886  HIT:    2165526  MISS:    2104360
cpu0_L1D LOAD      ACCESS:    3830743  HIT:    1730303  MISS:    2100440
cpu0_L1D RFO       ACCESS:     399739  HIT:     398911  MISS:        828
cpu0_L1D PREFETCH  ACCESS:          0  HIT:          0  MISS:          0
cpu0_L1D WRITEBACK ACCESS:          0  HIT:          0  MISS:          0
cpu0_L2C TOTAL     ACCESS:    2107713  HIT:       6808  MISS:    2100905
cpu0_L2C LOAD      ACCESS:    2100440  HIT:       1038  MISS:    2099402
cpu0_L2C RFO       ACCESS:        828  HIT:          0  MISS:        828
cpu0_L2C PREFETCH  ACCESS:          0  HIT:          0  MISS:          0
cpu0_L2C WRITEBACK ACCESS:       3353  HIT:       3345  MISS:          8
LLC TOTAL     ACCESS:    2104243  HIT:       3875  MISS:    2100368
LLC LOAD      ACCESS:    2099402  HIT:         89  MISS:    2099313
LLC RFO       ACCESS:        828  HIT:          0  MISS:        828
LLC PREFETCH  ACCESS:          0  HIT:          0  MISS:          0
LLC WRITEBACK ACCESS:       3346  HIT:       3334  MISS:         12
Heartbeat CPU 0 instructions: 82000000 cycles: 293452816 heartbeat IPC: 0.115975 cumulative IPC: 0.115933 (Simulation time: 2 hr 35 min 35 sec) 

Region of Interest Statistics
cpu0_DTLB TOTAL     ACCESS:    4286946  HIT:    4243255  MISS:      43691
cpu0_DTLB LOAD      ACCESS:    4122716  HIT:    4079042  MISS:      43674
cpu0_DTLB RFO       ACCESS:     164230  HIT:     164213  MISS:         17
cpu0_DTLB PREFETCH  ACCESS:          0  HIT:          0  MISS:          0
cpu0_DTLB WRITEBACK ACCESS:          0  HIT:          0  MISS:          0
cpu0_ITLB TOTAL     ACCESS:    1977109  HIT:    1977109  MISS:          0
cpu0_ITLB LOAD      ACCESS:    1977109  HIT:    1977109  MISS:          0
cpu0_ITLB RFO       ACCESS:          0  HIT:          0  MISS:          0
cpu0_ITLB PREFETCH  ACCESS:          0  HIT:          0  MISS:          0
cpu0_ITLB WRITEBACK ACCESS:          0  HIT:          0  MISS:          0
cpu0_L1I TOTAL     ACCESS:       8081  HIT:       8081  MISS:          0
cpu0_L1I LOAD      ACCESS:       8081  HIT:       8081  MISS:          0
cpu0_L1I RFO       ACCESS:          0  HIT:          0  MISS:          0
cpu0_L1I PREFETCH  ACCESS:          0  HIT:          0  MISS:          0
cpu0_L1I WRITEBACK ACCESS:          0  HIT:          0  MISS:          0
cpu0_STLB TOTAL     ACCESS:      43691  HIT:       1498  MISS:      42193
cpu0_STLB LOAD      ACCESS:      43674  HIT:       1497  MISS:      42177
cpu0_STLB RFO       ACCESS:         17  HIT:          1  MISS:         16
cpu0_STLB PREFETCH  ACCESS:          0  HIT:          0  MISS:          0
cpu0_STLB WRITEBACK ACCESS:          0  HIT:          0  MISS:          0
cpu0_L1D TOTAL     ACCESS:    4552579  HIT:    2307770  MISS:    2244809
cpu0_L1D LOAD      ACCESS:    4085073  HIT:    1844539  MISS:    2240534
cpu0_L1D RFO       ACCESS:     425333  HIT:     424441  MISS:        892
cpu0_L1D PREFETCH  ACCESS:          0  HIT:          0  MISS:          0
cpu0_L1D WRITEBACK ACCESS:          0  HIT:          0  MISS:          0
cpu0_L2C TOTAL     ACCESS:    2248402  HIT:       7347  MISS:    2241055
cpu0_L2C LOAD      ACCESS:    2240534  HIT:       1114  MISS:    2239420
cpu0_L2C RFO       ACCESS:        892  HIT:          0  MISS:        892
cpu0_L2C PREFETCH  ACCESS:          0  HIT:          0  MISS:          0
cpu0_L2C WRITEBACK ACCESS:       3593  HIT:       3584  MISS:          9
LLC TOTAL     ACCESS:    2244637  HIT:       4167  MISS:    2240470
LLC LOAD      ACCESS:    2239420  HIT:         93  MISS:    2239327
LLC RFO       ACCESS:        892  HIT:          0  MISS:        892
LLC PREFETCH  ACCESS:          0  HIT:          0  MISS:          0
LLC WRITEBACK ACCESS:       3591  HIT:       3578  MISS:         13
Heartbeat CPU 0 instructions: 84000001 cycles: 310736589 heartbeat IPC: 0.115716 cumulative IPC: 0.115921 (Simulation time: 2 hr 43 min 0 sec) 

Region of Interest Statistics
cpu0_DTLB TOTAL     ACCESS:    4554303  HIT:    4507850  MISS:      46453
cpu0_DTLB LOAD      ACCESS:    4380339  HIT:    4333903  MISS:      46436
cpu0_DTLB RFO       ACCESS:     173964  HIT:     173947  MISS:         17
cpu0_DTLB PREFETCH  ACCESS:          0  HIT:          0  MISS:          0
cpu0_DTLB WRITEBACK ACCESS:          0  HIT:          0  MISS:          0
cpu0_ITLB TOTAL     ACCESS:    2101003  HIT:    2101003  MISS:          0
cpu0_ITLB LOAD      ACCESS:    2101003  HIT:    2101003  MISS:          0
cpu0_ITLB RFO       ACCESS:          0  HIT:          0  MISS:          0
cpu0_ITLB PREFETCH  ACCESS:          0  HIT:          0  MISS:          0
cpu0_ITLB WRITEBACK ACCESS:          0  HIT:          0  MISS:          0
cpu0_L1I TOTAL     ACCESS:       8081  HIT:       8081  MISS:          0
cpu0_L1I LOAD      ACCESS:       8081  HIT:       8081  MISS:          0
cpu0_L1I RFO       ACCESS:          0  HIT:          0  MISS:          0
cpu0_L1I PREFETCH  ACCESS:          0  HIT:          0  MISS:          0
cpu0_L1I WRITEBACK ACCESS:          0  HIT:          0  MISS:          0
cpu0_STLB TOTAL     ACCESS:      46453  HIT:       1609  MISS:      44844
cpu0_STLB LOAD      ACCESS:      46436  HIT:       1608  MISS:      44828
cpu0_STLB RFO       ACCESS:         17  HIT:          1  MISS:         16
cpu0_STLB PREFETCH  ACCESS:          0  HIT:          0  MISS:          0
cpu0_STLB WRITEBACK ACCESS:          0  HIT:          0  MISS:          0
cpu0_L1D TOTAL     ACCESS:    4836169  HIT:    2450789  MISS:    2385380
cpu0_L1D LOAD      ACCESS:    4340316  HIT:    1959497  MISS:    2380819
cpu0_L1D RFO       ACCESS:     451029  HIT:     450087  MISS:        942
cpu0_L1D PREFETCH  ACCESS:          0  HIT:          0  MISS:          0
cpu0_L1D WRITEBACK ACCESS:          0  HIT:          0  MISS:          0
cpu0_L2C TOTAL     ACCESS:    2389180  HIT:       7792  MISS:    2381388
cpu0_L2C LOAD      ACCESS:    2380819  HIT:       1164  MISS:    2379655
cpu0_L2C RFO       ACCESS:        942  HIT:          0  MISS:        942
cpu0_L2C PREFETCH  ACCESS:          0  HIT:          0  MISS:          0
cpu0_L2C WRITEBACK ACCESS:       3800  HIT:       3791  MISS:          9
LLC TOTAL     ACCESS:    2385179  HIT:       4420  MISS:    2380759
LLC LOAD      ACCESS:    2379655  HIT:        100  MISS:    2379555
LLC RFO       ACCESS:        942  HIT:          0  MISS:        942
LLC PREFETCH  ACCESS:          0  HIT:          0  MISS:          0
LLC WRITEBACK ACCESS:       3800  HIT:       3787  MISS:         13
Heartbeat CPU 0 instructions: 86000003 cycles: 328001848 heartbeat IPC: 0.11584 cumulative IPC: 0.115916 (Simulation time: 2 hr 50 min 16 sec) 

Region of Interest Statistics
cpu0_DTLB TOTAL     ACCESS:    4821705  HIT:    4772470  MISS:      49235
cpu0_DTLB LOAD      ACCESS:    4638044  HIT:    4588826  MISS:      49218
cpu0_DTLB RFO       ACCESS:     183661  HIT:     183644  MISS:         17
cpu0_DTLB PREFETCH  ACCESS:          0  HIT:          0  MISS:          0
cpu0_DTLB WRITEBACK ACCESS:          0  HIT:          0  MISS:          0
cpu0_ITLB TOTAL     ACCESS:    2224748  HIT:    2224748  MISS:          0
cpu0_ITLB LOAD      ACCESS:    2224748  HIT:    2224748  MISS:          0
cpu0_ITLB RFO       ACCESS:          0  HIT:          0  MISS:          0
cpu0_ITLB PREFETCH  ACCESS:          0  HIT:          0  MISS:          0
cpu0_ITLB WRITEBACK ACCESS:          0  HIT:          0  MISS:          0
cpu0_L1I TOTAL     ACCESS:       8081  HIT:       8081  MISS:          0
cpu0_L1I LOAD      ACCESS:       8081  HIT:       8081  MISS:          0
cpu0_L1I RFO       ACCESS:          0  HIT:          0  MISS:          0
cpu0_L1I PREFETCH  ACCESS:          0  HIT:          0  MISS:          0
cpu0_L1I WRITEBACK ACCESS:          0  HIT:          0  MISS:          0
cpu0_STLB TOTAL     ACCESS:      49235  HIT:       1767  MISS:      47468
cpu0_STLB LOAD      ACCESS:      49218  HIT:       1766  MISS:      47452
cpu0_STLB RFO       ACCESS:         17  HIT:          1  MISS:         16
cpu0_STLB PREFETCH  ACCESS:          0  HIT:          0  MISS:          0
cpu0_STLB WRITEBACK ACCESS:          0  HIT:          0  MISS:          0
cpu0_L1D TOTAL     ACCESS:    5119641  HIT:    2593557  MISS:    2526084
cpu0_L1D LOAD      ACCESS:    4595495  HIT:    2074252  MISS:    2521243
cpu0_L1D RFO       ACCESS:     476699  HIT:     475698  MISS:       1001
cpu0_L1D PREFETCH  ACCESS:          0  HIT:          0  MISS:          0
cpu0_L1D WRITEBACK ACCESS:          0  HIT:          0  MISS:          0
cpu0_L2C TOTAL     ACCESS:    2530120  HIT:       8267  MISS:    2521853
cpu0_L2C LOAD      ACCESS:    2521243  HIT:       1228  MISS:    2520015
cpu0_L2C RFO       ACCESS:       1001  HIT:          0  MISS:       1001
cpu0_L2C PREFETCH  ACCESS:          0  HIT:          0  MISS:          0
cpu0_L2C WRITEBACK ACCESS:       4036  HIT:       4027  MISS:          9
LLC TOTAL     ACCESS:    2525874  HIT:       4688  MISS:    2521186
LLC LOAD      ACCESS:    2520015  HIT:        104  MISS:    2519911
LLC RFO       ACCESS:       1001  HIT:          0  MISS:       1001
LLC PREFETCH  ACCESS:          0  HIT:          0  MISS:          0
LLC WRITEBACK ACCESS:       4030  HIT:       4017  MISS:         13
Heartbeat CPU 0 instructions: 88000000 cycles: 345246552 heartbeat IPC: 0.115977 cumulative IPC: 0.115919 (Simulation time: 2 hr 57 min 36 sec) 

Region of Interest Statistics
cpu0_DTLB TOTAL     ACCESS:    5088516  HIT:    5036419  MISS:      52097
cpu0_DTLB LOAD      ACCESS:    4895182  HIT:    4843102  MISS:      52080
cpu0_DTLB RFO       ACCESS:     193334  HIT:     193317  MISS:         17
cpu0_DTLB PREFETCH  ACCESS:          0  HIT:          0  MISS:          0
cpu0_DTLB WRITEBACK ACCESS:          0  HIT:          0  MISS:          0
cpu0_ITLB TOTAL     ACCESS:    2348613  HIT:    2348613  MISS:          0
cpu0_ITLB LOAD      ACCESS:    2348613  HIT:    2348613  MISS:          0
cpu0_ITLB RFO       ACCESS:          0  HIT:          0  MISS:          0
cpu0_ITLB PREFETCH  ACCESS:          0  HIT:          0  MISS:          0
cpu0_ITLB WRITEBACK ACCESS:          0  HIT:          0  MISS:          0
cpu0_L1I TOTAL     ACCESS:       8081  HIT:       8081  MISS:          0
cpu0_L1I LOAD      ACCESS:       8081  HIT:       8081  MISS:          0
cpu0_L1I RFO       ACCESS:          0  HIT:          0  MISS:          0
cpu0_L1I PREFETCH  ACCESS:          0  HIT:          0  MISS:          0
cpu0_L1I WRITEBACK ACCESS:          0  HIT:          0  MISS:          0
cpu0_STLB TOTAL     ACCESS:      52097  HIT:       1878  MISS:      50219
cpu0_STLB LOAD      ACCESS:      52080  HIT:       1877  MISS:      50203
cpu0_STLB RFO       ACCESS:         17  HIT:          1  MISS:         16
cpu0_STLB PREFETCH  ACCESS:          0  HIT:          0  MISS:          0
cpu0_STLB WRITEBACK ACCESS:          0  HIT:          0  MISS:          0
cpu0_L1D TOTAL     ACCESS:    5402509  HIT:    2735995  MISS:    2666514
cpu0_L1D LOAD      ACCESS:    4849997  HIT:    2188609  MISS:    2661388
cpu0_L1D RFO       ACCESS:     502316  HIT:     501281  MISS:       1035
cpu0_L1D PREFETCH  ACCESS:          0  HIT:          0  MISS:          0
cpu0_L1D WRITEBACK ACCESS:          0  HIT:          0  MISS:          0
cpu0_L2C TOTAL     ACCESS:    2670788  HIT:       8768  MISS:    2662020
cpu0_L2C LOAD      ACCESS:    2661388  HIT:       1304  MISS:    2660084
cpu0_L2C RFO       ACCESS:       1035  HIT:          0  MISS:       1035
cpu0_L2C PREFETCH  ACCESS:          0  HIT:          0  MISS:          0
cpu0_L2C WRITEBACK ACCESS:       4274  HIT:       4264  MISS:         10
LLC TOTAL     ACCESS:    2666286  HIT:       4979  MISS:    2661307
LLC LOAD      ACCESS:    2660084  HIT:        110  MISS:    2659974
LLC RFO       ACCESS:       1035  HIT:          0  MISS:       1035
LLC PREFETCH  ACCESS:          0  HIT:          0  MISS:          0
LLC WRITEBACK ACCESS:       4276  HIT:       4262  MISS:         14
Heartbeat CPU 0 instructions: 90000002 cycles: 362475268 heartbeat IPC: 0.116085 cumulative IPC: 0.115928 (Simulation time: 3 hr 4 min 57 sec) 

Region of Interest Statistics
cpu0_DTLB TOTAL     ACCESS:    5355596  HIT:    5300726  MISS:      54870
cpu0_DTLB LOAD      ACCESS:    5152587  HIT:    5097735  MISS:      54852
cpu0_DTLB RFO       ACCESS:     203009  HIT:     202991  MISS:         18
cpu0_DTLB PREFETCH  ACCESS:          0  HIT:          0  MISS:          0
cpu0_DTLB WRITEBACK ACCESS:          0  HIT:          0  MISS:          0
cpu0_ITLB TOTAL     ACCESS:    2472459  HIT:    2472459  MISS:          0
cpu0_ITLB LOAD      ACCESS:    2472459  HIT:    2472459  MISS:          0
cpu0_ITLB RFO       ACCESS:          0  HIT:          0  MISS:          0
cpu0_ITLB PREFETCH  ACCESS:          0  HIT:          0  MISS:          0
cpu0_ITLB WRITEBACK ACCESS:          0  HIT:          0  MISS:          0
cpu0_L1I TOTAL     ACCESS:       8081  HIT:       8081  MISS:          0
cpu0_L1I LOAD      ACCESS:       8081  HIT:       8081  MISS:          0
cpu0_L1I RFO       ACCESS:          0  HIT:          0  MISS:          0
cpu0_L1I PREFETCH  ACCESS:          0  HIT:          0  MISS:          0
cpu0_L1I WRITEBACK ACCESS:          0  HIT:          0  MISS:          0
cpu0_STLB TOTAL     ACCESS:      54870  HIT:       1988  MISS:      52882
cpu0_STLB LOAD      ACCESS:      54852  HIT:       1987  MISS:      52865
cpu0_STLB RFO       ACCESS:         18  HIT:          1  MISS:         17
cpu0_STLB PREFETCH  ACCESS:          0  HIT:          0  MISS:          0
cpu0_STLB WRITEBACK ACCESS:          0  HIT:          0  MISS:          0
cpu0_L1D TOTAL     ACCESS:    5685538  HIT:    2878480  MISS:    2807058
cpu0_L1D LOAD      ACCESS:    5104750  HIT:    2303119  MISS:    2801631
cpu0_L1D RFO       ACCESS:     527930  HIT:     526829  MISS:       1101
cpu0_L1D PREFETCH  ACCESS:          0  HIT:          0  MISS:          0
cpu0_L1D WRITEBACK ACCESS:          0  HIT:          0  MISS:          0
cpu0_L2C TOTAL     ACCESS:    2811567  HIT:       9251  MISS:    2802316
cpu0_L2C LOAD      ACCESS:    2801631  HIT:       1368  MISS:    2800263
cpu0_L2C RFO       ACCESS:       1101  HIT:          0  MISS:       1101
cpu0_L2C PREFETCH  ACCESS:          0  HIT:          0  MISS:          0
cpu0_L2C WRITEBACK ACCESS:       4509  HIT:       4498  MISS:         11
LLC TOTAL     ACCESS:    2806815  HIT:       5252  MISS:    2801563
LLC LOAD      ACCESS:    2800263  HIT:        117  MISS:    2800146
LLC RFO       ACCESS:       1101  HIT:          0  MISS:       1101
LLC PREFETCH  ACCESS:          0  HIT:          0  MISS:          0
LLC WRITEBACK ACCESS:       4510  HIT:       4495  MISS:         15
Heartbeat CPU 0 instructions: 92000003 cycles: 379781628 heartbeat IPC: 0.115565 cumulative IPC: 0.11591 (Simulation time: 3 hr 12 min 13 sec) 

Region of Interest Statistics
cpu0_DTLB TOTAL     ACCESS:    5622794  HIT:    5565044  MISS:      57750
cpu0_DTLB LOAD      ACCESS:    5410090  HIT:    5352359  MISS:      57731
cpu0_DTLB RFO       ACCESS:     212704  HIT:     212685  MISS:         19
cpu0_DTLB PREFETCH  ACCESS:          0  HIT:          0  MISS:          0
cpu0_DTLB WRITEBACK ACCESS:          0  HIT:          0  MISS:          0
cpu0_ITLB TOTAL     ACCESS:    2596351  HIT:    2596351  MISS:          0
cpu0_ITLB LOAD      ACCESS:    2596351  HIT:    2596351  MISS:          0
cpu0_ITLB RFO       ACCESS:          0  HIT:          0  MISS:          0
cpu0_ITLB PREFETCH  ACCESS:          0  HIT:          0  MISS:          0
cpu0_ITLB WRITEBACK ACCESS:          0  HIT:          0  MISS:          0
cpu0_L1I TOTAL     ACCESS:       8081  HIT:       8081  MISS:          0
cpu0_L1I LOAD      ACCESS:       8081  HIT:       8081  MISS:          0
cpu0_L1I RFO       ACCESS:          0  HIT:          0  MISS:          0
cpu0_L1I PREFETCH  ACCESS:          0  HIT:          0  MISS:          0
cpu0_L1I WRITEBACK ACCESS:          0  HIT:          0  MISS:          0
cpu0_STLB TOTAL     ACCESS:      57750  HIT:       2098  MISS:      55652
cpu0_STLB LOAD      ACCESS:      57731  HIT:       2097  MISS:      55634
cpu0_STLB RFO       ACCESS:         19  HIT:          1  MISS:         18
cpu0_STLB PREFETCH  ACCESS:          0  HIT:          0  MISS:          0
cpu0_STLB WRITEBACK ACCESS:          0  HIT:          0  MISS:          0
cpu0_L1D TOTAL     ACCESS:    5968880  HIT:    3021075  MISS:    2947805
cpu0_L1D LOAD      ACCESS:    5359636  HIT:    2417590  MISS:    2942046
cpu0_L1D RFO       ACCESS:     553616  HIT:     552464  MISS:       1152
cpu0_L1D PREFETCH  ACCESS:          0  HIT:          0  MISS:          0
cpu0_L1D WRITEBACK ACCESS:          0  HIT:          0  MISS:          0
cpu0_L2C TOTAL     ACCESS:    2952556  HIT:       9756  MISS:    2942800
cpu0_L2C LOAD      ACCESS:    2942046  HIT:       1416  MISS:    2940630
cpu0_L2C RFO       ACCESS:       1152  HIT:          0  MISS:       1152
cpu0_L2C PREFETCH  ACCESS:          0  HIT:          0  MISS:          0
cpu0_L2C WRITEBACK ACCESS:       4751  HIT:       4740  MISS:         11
LLC TOTAL     ACCESS:    2947542  HIT:       5540  MISS:    2942002
LLC LOAD      ACCESS:    2940630  HIT:        122  MISS:    2940508
LLC RFO       ACCESS:       1152  HIT:          0  MISS:       1152
LLC PREFETCH  ACCESS:          0  HIT:          0  MISS:          0
LLC WRITEBACK ACCESS:       4753  HIT:       4738  MISS:         15
Heartbeat CPU 0 instructions: 94000002 cycles: 397090587 heartbeat IPC: 0.115547 cumulative IPC: 0.115894 (Simulation time: 3 hr 19 min 36 sec) 

Region of Interest Statistics
cpu0_DTLB TOTAL     ACCESS:    5890015  HIT:    5829510  MISS:      60505
cpu0_DTLB LOAD      ACCESS:    5667609  HIT:    5607123  MISS:      60486
cpu0_DTLB RFO       ACCESS:     222406  HIT:     222387  MISS:         19
cpu0_DTLB PREFETCH  ACCESS:          0  HIT:          0  MISS:          0
cpu0_DTLB WRITEBACK ACCESS:          0  HIT:          0  MISS:          0
cpu0_ITLB TOTAL     ACCESS:    2720148  HIT:    2720148  MISS:          0
cpu0_ITLB LOAD      ACCESS:    2720148  HIT:    2720148  MISS:          0
cpu0_ITLB RFO       ACCESS:          0  HIT:          0  MISS:          0
cpu0_ITLB PREFETCH  ACCESS:          0  HIT:          0  MISS:          0
cpu0_ITLB WRITEBACK ACCESS:          0  HIT:          0  MISS:          0
cpu0_L1I TOTAL     ACCESS:       8081  HIT:       8081  MISS:          0
cpu0_L1I LOAD      ACCESS:       8081  HIT:       8081  MISS:          0
cpu0_L1I RFO       ACCESS:          0  HIT:          0  MISS:          0
cpu0_L1I PREFETCH  ACCESS:          0  HIT:          0  MISS:          0
cpu0_L1I WRITEBACK ACCESS:          0  HIT:          0  MISS:          0
cpu0_STLB TOTAL     ACCESS:      60505  HIT:       2171  MISS:      58334
cpu0_STLB LOAD      ACCESS:      60486  HIT:       2170  MISS:      58316
cpu0_STLB RFO       ACCESS:         19  HIT:          1  MISS:         18
cpu0_STLB PREFETCH  ACCESS:          0  HIT:          0  MISS:          0
cpu0_STLB WRITEBACK ACCESS:          0  HIT:          0  MISS:          0
cpu0_L1D TOTAL     ACCESS:    6252378  HIT:    3163940  MISS:    3088438
cpu0_L1D LOAD      ACCESS:    5614785  HIT:    2532390  MISS:    3082395
cpu0_L1D RFO       ACCESS:     579286  HIT:     578093  MISS:       1193
cpu0_L1D PREFETCH  ACCESS:          0  HIT:          0  MISS:          0
cpu0_L1D WRITEBACK ACCESS:          0  HIT:          0  MISS:          0
cpu0_L2C TOTAL     ACCESS:    3093426  HIT:      10234  MISS:    3083192
cpu0_L2C LOAD      ACCESS:    3082395  HIT:       1466  MISS:    3080929
cpu0_L2C RFO       ACCESS:       1193  HIT:          0  MISS:       1193
cpu0_L2C PREFETCH  ACCESS:          0  HIT:          0  MISS:          0
cpu0_L2C WRITEBACK ACCESS:       4988  HIT:       4977  MISS:         11
LLC TOTAL     ACCESS:    3088168  HIT:       5816  MISS:    3082352
LLC LOAD      ACCESS:    3080929  HIT:        126  MISS:    3080803
LLC RFO       ACCESS:       1193  HIT:          0  MISS:       1193
LLC PREFETCH  ACCESS:          0  HIT:          0  MISS:          0
LLC WRITEBACK ACCESS:       4987  HIT:       4972  MISS:         15
Heartbeat CPU 0 instructions: 96000000 cycles: 414389044 heartbeat IPC: 0.115617 cumulative IPC: 0.115882 (Simulation time: 3 hr 26 min 58 sec) 

Region of Interest Statistics
cpu0_DTLB TOTAL     ACCESS:    6156804  HIT:    6093422  MISS:      63382
cpu0_DTLB LOAD      ACCESS:    5924739  HIT:    5861378  MISS:      63361
cpu0_DTLB RFO       ACCESS:     232065  HIT:     232044  MISS:         21
cpu0_DTLB PREFETCH  ACCESS:          0  HIT:          0  MISS:          0
cpu0_DTLB WRITEBACK ACCESS:          0  HIT:          0  MISS:          0
cpu0_ITLB TOTAL     ACCESS:    2843964  HIT:    2843964  MISS:          0
cpu0_ITLB LOAD      ACCESS:    2843964  HIT:    2843964  MISS:          0
cpu0_ITLB RFO       ACCESS:          0  HIT:          0  MISS:          0
cpu0_ITLB PREFETCH  ACCESS:          0  HIT:          0  MISS:          0
cpu0_ITLB WRITEBACK ACCESS:          0  HIT:          0  MISS:          0
cpu0_L1I TOTAL     ACCESS:       8081  HIT:       8081  MISS:          0
cpu0_L1I LOAD      ACCESS:       8081  HIT:       8081  MISS:          0
cpu0_L1I RFO       ACCESS:          0  HIT:          0  MISS:          0
cpu0_L1I PREFETCH  ACCESS:          0  HIT:          0  MISS:          0
cpu0_L1I WRITEBACK ACCESS:          0  HIT:          0  MISS:          0
cpu0_STLB TOTAL     ACCESS:      63382  HIT:       2251  MISS:      61131
cpu0_STLB LOAD      ACCESS:      63361  HIT:       2250  MISS:      61111
cpu0_STLB RFO       ACCESS:         21  HIT:          1  MISS:         20
cpu0_STLB PREFETCH  ACCESS:          0  HIT:          0  MISS:          0
cpu0_STLB WRITEBACK ACCESS:          0  HIT:          0  MISS:          0
cpu0_L1D TOTAL     ACCESS:    6535497  HIT:    3306496  MISS:    3229001
cpu0_L1D LOAD      ACCESS:    5869511  HIT:    2646845  MISS:    3222666
cpu0_L1D RFO       ACCESS:     604882  HIT:     603627  MISS:       1255
cpu0_L1D PREFETCH  ACCESS:          0  HIT:          0  MISS:          0
cpu0_L1D WRITEBACK ACCESS:          0  HIT:          0  MISS:          0
cpu0_L2C TOTAL     ACCESS:    3234229  HIT:      10719  MISS:    3223510
cpu0_L2C LOAD      ACCESS:    3222666  HIT:       1532  MISS:    3221134
cpu0_L2C RFO       ACCESS:       1255  HIT:          0  MISS:       1255
cpu0_L2C PREFETCH  ACCESS:          0  HIT:          0  MISS:          0
cpu0_L2C WRITEBACK ACCESS:       5228  HIT:       5217  MISS:         11
LLC TOTAL     ACCESS:    3228721  HIT:       6094  MISS:    3222627
LLC LOAD      ACCESS:    3221134  HIT:        128  MISS:    3221006
LLC RFO       ACCESS:       1255  HIT:          0  MISS:       1255
LLC PREFETCH  ACCESS:          0  HIT:          0  MISS:          0
LLC WRITEBACK ACCESS:       5222  HIT:       5207  MISS:         15
Heartbeat CPU 0 instructions: 98000004 cycles: 431695643 heartbeat IPC: 0.115563 cumulative IPC: 0.115868 (Simulation time: 3 hr 34 min 17 sec) 

Region of Interest Statistics
cpu0_DTLB TOTAL     ACCESS:    6424767  HIT:    6358812  MISS:      65955
cpu0_DTLB LOAD      ACCESS:    6182984  HIT:    6117051  MISS:      65933
cpu0_DTLB RFO       ACCESS:     241783  HIT:     241761  MISS:         22
cpu0_DTLB PREFETCH  ACCESS:          0  HIT:          0  MISS:          0
cpu0_DTLB WRITEBACK ACCESS:          0  HIT:          0  MISS:          0
cpu0_ITLB TOTAL     ACCESS:    2967620  HIT:    2967620  MISS:          0
cpu0_ITLB LOAD      ACCESS:    2967620  HIT:    2967620  MISS:          0
cpu0_ITLB RFO       ACCESS:          0  HIT:          0  MISS:          0
cpu0_ITLB PREFETCH  ACCESS:          0  HIT:          0  MISS:          0
cpu0_ITLB WRITEBACK ACCESS:          0  HIT:          0  MISS:          0
cpu0_L1I TOTAL     ACCESS:       8081  HIT:       8081  MISS:          0
cpu0_L1I LOAD      ACCESS:       8081  HIT:       8081  MISS:          0
cpu0_L1I RFO       ACCESS:          0  HIT:          0  MISS:          0
cpu0_L1I PREFETCH  ACCESS:          0  HIT:          0  MISS:          0
cpu0_L1I WRITEBACK ACCESS:          0  HIT:          0  MISS:          0
cpu0_STLB TOTAL     ACCESS:      65955  HIT:       2324  MISS:      63631
cpu0_STLB LOAD      ACCESS:      65933  HIT:       2323  MISS:      63610
cpu0_STLB RFO       ACCESS:         22  HIT:          1  MISS:         21
cpu0_STLB PREFETCH  ACCESS:          0  HIT:          0  MISS:          0
cpu0_STLB WRITEBACK ACCESS:          0  HIT:          0  MISS:          0
cpu0_L1D TOTAL     ACCESS:    6819790  HIT:    3450043  MISS:    3369747
cpu0_L1D LOAD      ACCESS:    6125556  HIT:    2762359  MISS:    3363197
cpu0_L1D RFO       ACCESS:     630631  HIT:     629332  MISS:       1299
cpu0_L1D PREFETCH  ACCESS:          0  HIT:          0  MISS:          0
cpu0_L1D WRITEBACK ACCESS:          0  HIT:          0  MISS:          0
cpu0_L2C TOTAL     ACCESS:    3375172  HIT:      11077  MISS:    3364095
cpu0_L2C LOAD      ACCESS:    3363197  HIT:       1559  MISS:    3361638
cpu0_L2C RFO       ACCESS:       1299  HIT:          0  MISS:       1299
cpu0_L2C PREFETCH  ACCESS:          0  HIT:          0  MISS:          0
cpu0_L2C WRITEBACK ACCESS:       5425  HIT:       5414  MISS:         11
LLC TOTAL     ACCESS:    3369512  HIT:       6330  MISS:    3363182
LLC LOAD      ACCESS:    3361638  HIT:        131  MISS:    3361507
LLC RFO       ACCESS:       1299  HIT:          0  MISS:       1299
LLC PREFETCH  ACCESS:          0  HIT:          0  MISS:          0
LLC WRITEBACK ACCESS:       5428  HIT:       5413  MISS:         15
Heartbeat CPU 0 instructions: 100000000 cycles: 448988914 heartbeat IPC: 0.115652 cumulative IPC: 0.11586 (Simulation time: 3 hr 41 min 38 sec) 

Region of Interest Statistics
cpu0_DTLB TOTAL     ACCESS:    6692907  HIT:    6624454  MISS:      68453
cpu0_DTLB LOAD      ACCESS:    6441381  HIT:    6372951  MISS:      68430
cpu0_DTLB RFO       ACCESS:     251526  HIT:     251503  MISS:         23
cpu0_DTLB PREFETCH  ACCESS:          0  HIT:          0  MISS:          0
cpu0_DTLB WRITEBACK ACCESS:          0  HIT:          0  MISS:          0
cpu0_ITLB TOTAL     ACCESS:    3091210  HIT:    3091210  MISS:          0
cpu0_ITLB LOAD      ACCESS:    3091210  HIT:    3091210  MISS:          0
cpu0_ITLB RFO       ACCESS:          0  HIT:          0  MISS:          0
cpu0_ITLB PREFETCH  ACCESS:          0  HIT:          0  MISS:          0
cpu0_ITLB WRITEBACK ACCESS:          0  HIT:          0  MISS:          0
cpu0_L1I TOTAL     ACCESS:       8081  HIT:       8081  MISS:          0
cpu0_L1I LOAD      ACCESS:       8081  HIT:       8081  MISS:          0
cpu0_L1I RFO       ACCESS:          0  HIT:          0  MISS:          0
cpu0_L1I PREFETCH  ACCESS:          0  HIT:          0  MISS:          0
cpu0_L1I WRITEBACK ACCESS:          0  HIT:          0  MISS:          0
cpu0_STLB TOTAL     ACCESS:      68453  HIT:       2362  MISS:      66091
cpu0_STLB LOAD      ACCESS:      68430  HIT:       2361  MISS:      66069
cpu0_STLB RFO       ACCESS:         23  HIT:          1  MISS:         22
cpu0_STLB PREFETCH  ACCESS:          0  HIT:          0  MISS:          0
cpu0_STLB WRITEBACK ACCESS:          0  HIT:          0  MISS:          0
cpu0_L1D TOTAL     ACCESS:    7104255  HIT:    3593760  MISS:    3510495
cpu0_L1D LOAD      ACCESS:    6381798  HIT:    2878045  MISS:    3503753
cpu0_L1D RFO       ACCESS:     656394  HIT:     655047  MISS:       1347
cpu0_L1D PREFETCH  ACCESS:          0  HIT:          0  MISS:          0
cpu0_L1D WRITEBACK ACCESS:          0  HIT:          0  MISS:          0
cpu0_L2C TOTAL     ACCESS:    3516105  HIT:      11395  MISS:    3504710
cpu0_L2C LOAD      ACCESS:    3503753  HIT:       1574  MISS:    3502179
cpu0_L2C RFO       ACCESS:       1347  HIT:          0  MISS:       1347
cpu0_L2C PREFETCH  ACCESS:          0  HIT:          0  MISS:          0
cpu0_L2C WRITEBACK ACCESS:       5610  HIT:       5599  MISS:         11
LLC TOTAL     ACCESS:    3510300  HIT:       6534  MISS:    3503766
LLC LOAD      ACCESS:    3502179  HIT:        140  MISS:    3502039
LLC RFO       ACCESS:       1347  HIT:          0  MISS:       1347
LLC PREFETCH  ACCESS:          0  HIT:          0  MISS:          0
LLC WRITEBACK ACCESS:       5601  HIT:       5586  MISS:         15
Heartbeat CPU 0 instructions: 102000003 cycles: 466292744 heartbeat IPC: 0.115582 cumulative IPC: 0.115849 (Simulation time: 3 hr 48 min 51 sec) 

Region of Interest Statistics
cpu0_DTLB TOTAL     ACCESS:    6961110  HIT:    6890161  MISS:      70949
cpu0_DTLB LOAD      ACCESS:    6699856  HIT:    6628931  MISS:      70925
cpu0_DTLB RFO       ACCESS:     261254  HIT:     261230  MISS:         24
cpu0_DTLB PREFETCH  ACCESS:          0  HIT:          0  MISS:          0
cpu0_DTLB WRITEBACK ACCESS:          0  HIT:          0  MISS:          0
cpu0_ITLB TOTAL     ACCESS:    3214812  HIT:    3214812  MISS:          0
cpu0_ITLB LOAD      ACCESS:    3214812  HIT:    3214812  MISS:          0
cpu0_ITLB RFO       ACCESS:          0  HIT:          0  MISS:          0
cpu0_ITLB PREFETCH  ACCESS:          0  HIT:          0  MISS:          0
cpu0_ITLB WRITEBACK ACCESS:          0  HIT:          0  MISS:          0
cpu0_L1I TOTAL     ACCESS:       8081  HIT:       8081  MISS:          0
cpu0_L1I LOAD      ACCESS:       8081  HIT:       8081  MISS:          0
cpu0_L1I RFO       ACCESS:          0  HIT:          0  MISS:          0
cpu0_L1I PREFETCH  ACCESS:          0  HIT:          0  MISS:          0
cpu0_L1I WRITEBACK ACCESS:          0  HIT:          0  MISS:          0
cpu0_STLB TOTAL     ACCESS:      70949  HIT:       2443  MISS:      68506
cpu0_STLB LOAD      ACCESS:      70925  HIT:       2442  MISS:      68483
cpu0_STLB RFO       ACCESS:         24  HIT:          1  MISS:         23
cpu0_STLB PREFETCH  ACCESS:          0  HIT:          0  MISS:          0
cpu0_STLB WRITEBACK ACCESS:          0  HIT:          0  MISS:          0
cpu0_L1D TOTAL     ACCESS:    7388839  HIT:    3737572  MISS:    3651267
cpu0_L1D LOAD      ACCESS:    6638144  HIT:    2993829  MISS:    3644315
cpu0_L1D RFO       ACCESS:     682218  HIT:     680799  MISS:       1419
cpu0_L1D PREFETCH  ACCESS:          0  HIT:          0  MISS:          0
cpu0_L1D WRITEBACK ACCESS:          0  HIT:          0  MISS:          0
cpu0_L2C TOTAL     ACCESS:    3657057  HIT:      11695  MISS:    3645362
cpu0_L2C LOAD      ACCESS:    3644315  HIT:       1587  MISS:    3642728
cpu0_L2C RFO       ACCESS:       1419  HIT:          0  MISS:       1419
cpu0_L2C PREFETCH  ACCESS:          0  HIT:          0  MISS:          0
cpu0_L2C WRITEBACK ACCESS:       5790  HIT:       5779  MISS:         11
LLC TOTAL     ACCESS:    3651140  HIT:       6754  MISS:    3644386
LLC LOAD      ACCESS:    3642728  HIT:        146  MISS:    3642582
LLC RFO       ACCESS:       1419  HIT:          0  MISS:       1419
LLC PREFETCH  ACCESS:          0  HIT:          0  MISS:          0
LLC WRITEBACK ACCESS:       5789  HIT:       5774  MISS:         15
Heartbeat CPU 0 instructions: 104000001 cycles: 483666099 heartbeat IPC: 0.115119 cumulative IPC: 0.115822 (Simulation time: 3 hr 56 min 15 sec) 

Region of Interest Statistics
cpu0_DTLB TOTAL     ACCESS:    7228911  HIT:    7155283  MISS:      73628
cpu0_DTLB LOAD      ACCESS:    6957985  HIT:    6884383  MISS:      73602
cpu0_DTLB RFO       ACCESS:     270926  HIT:     270900  MISS:         26
cpu0_DTLB PREFETCH  ACCESS:          0  HIT:          0  MISS:          0
cpu0_DTLB WRITEBACK ACCESS:          0  HIT:          0  MISS:          0
cpu0_ITLB TOTAL     ACCESS:    3338486  HIT:    3338486  MISS:          0
cpu0_ITLB LOAD      ACCESS:    3338486  HIT:    3338486  MISS:          0
cpu0_ITLB RFO       ACCESS:          0  HIT:          0  MISS:          0
cpu0_ITLB PREFETCH  ACCESS:          0  HIT:          0  MISS:          0
cpu0_ITLB WRITEBACK ACCESS:          0  HIT:          0  MISS:          0
cpu0_L1I TOTAL     ACCESS:       8081  HIT:       8081  MISS:          0
cpu0_L1I LOAD      ACCESS:       8081  HIT:       8081  MISS:          0
cpu0_L1I RFO       ACCESS:          0  HIT:          0  MISS:          0
cpu0_L1I PREFETCH  ACCESS:          0  HIT:          0  MISS:          0
cpu0_L1I WRITEBACK ACCESS:          0  HIT:          0  MISS:          0
cpu0_STLB TOTAL     ACCESS:      73628  HIT:       2496  MISS:      71132
cpu0_STLB LOAD      ACCESS:      73602  HIT:       2495  MISS:      71107
cpu0_STLB RFO       ACCESS:         26  HIT:          1  MISS:         25
cpu0_STLB PREFETCH  ACCESS:          0  HIT:          0  MISS:          0
cpu0_STLB WRITEBACK ACCESS:          0  HIT:          0  MISS:          0
cpu0_L1D TOTAL     ACCESS:    7673211  HIT:    3881046  MISS:    3792165
cpu0_L1D LOAD      ACCESS:    6894197  HIT:    3109209  MISS:    3784988
cpu0_L1D RFO       ACCESS:     707912  HIT:     706450  MISS:       1462
cpu0_L1D PREFETCH  ACCESS:          0  HIT:          0  MISS:          0
cpu0_L1D WRITEBACK ACCESS:          0  HIT:          0  MISS:          0
cpu0_L2C TOTAL     ACCESS:    3798202  HIT:      12117  MISS:    3786085
cpu0_L2C LOAD      ACCESS:    3784988  HIT:       1613  MISS:    3783375
cpu0_L2C RFO       ACCESS:       1462  HIT:          0  MISS:       1462
cpu0_L2C PREFETCH  ACCESS:          0  HIT:          0  MISS:          0
cpu0_L2C WRITEBACK ACCESS:       6037  HIT:       6026  MISS:         11
LLC TOTAL     ACCESS:    3792109  HIT:       7030  MISS:    3785079
LLC LOAD      ACCESS:    3783375  HIT:        152  MISS:    3783223
LLC RFO       ACCESS:       1462  HIT:          0  MISS:       1462
LLC PREFETCH  ACCESS:          0  HIT:          0  MISS:          0
LLC WRITEBACK ACCESS:       6035  HIT:       6020  MISS:         15
Heartbeat CPU 0 instructions: 106000001 cycles: 500998666 heartbeat IPC: 0.11539 cumulative IPC: 0.115806 (Simulation time: 4 hr 3 min 32 sec) 

Region of Interest Statistics
cpu0_DTLB TOTAL     ACCESS:    7496965  HIT:    7420780  MISS:      76185
cpu0_DTLB LOAD      ACCESS:    7216325  HIT:    7140167  MISS:      76158
cpu0_DTLB RFO       ACCESS:     280640  HIT:     280613  MISS:         27
cpu0_DTLB PREFETCH  ACCESS:          0  HIT:          0  MISS:          0
cpu0_DTLB WRITEBACK ACCESS:          0  HIT:          0  MISS:          0
cpu0_ITLB TOTAL     ACCESS:    3462102  HIT:    3462102  MISS:          0
cpu0_ITLB LOAD      ACCESS:    3462102  HIT:    3462102  MISS:          0
cpu0_ITLB RFO       ACCESS:          0  HIT:          0  MISS:          0
cpu0_ITLB PREFETCH  ACCESS:          0  HIT:          0  MISS:          0
cpu0_ITLB WRITEBACK ACCESS:          0  HIT:          0  MISS:          0
cpu0_L1I TOTAL     ACCESS:       8081  HIT:       8081  MISS:          0
cpu0_L1I LOAD      ACCESS:       8081  HIT:       8081  MISS:          0
cpu0_L1I RFO       ACCESS:          0  HIT:          0  MISS:          0
cpu0_L1I PREFETCH  ACCESS:          0  HIT:          0  MISS:          0
cpu0_L1I WRITEBACK ACCESS:          0  HIT:          0  MISS:          0
cpu0_STLB TOTAL     ACCESS:      76185  HIT:       2528  MISS:      73657
cpu0_STLB LOAD      ACCESS:      76158  HIT:       2527  MISS:      73631
cpu0_STLB RFO       ACCESS:         27  HIT:          1  MISS:         26
cpu0_STLB PREFETCH  ACCESS:          0  HIT:          0  MISS:          0
cpu0_STLB WRITEBACK ACCESS:          0  HIT:          0  MISS:          0
cpu0_L1D TOTAL     ACCESS:    7957804  HIT:    4024767  MISS:    3933037
cpu0_L1D LOAD      ACCESS:    7150503  HIT:    3224854  MISS:    3925649
cpu0_L1D RFO       ACCESS:     733675  HIT:     732146  MISS:       1529
cpu0_L1D PREFETCH  ACCESS:          0  HIT:          0  MISS:          0
cpu0_L1D WRITEBACK ACCESS:          0  HIT:          0  MISS:          0
cpu0_L2C TOTAL     ACCESS:    3939291  HIT:      12467  MISS:    3926824
cpu0_L2C LOAD      ACCESS:    3925649  HIT:       1629  MISS:    3924020
cpu0_L2C RFO       ACCESS:       1529  HIT:          0  MISS:       1529
cpu0_L2C PREFETCH  ACCESS:          0  HIT:          0  MISS:          0
cpu0_L2C WRITEBACK ACCESS:       6254  HIT:       6243  MISS:         11
LLC TOTAL     ACCESS:    3933060  HIT:       7274  MISS:    3925786
LLC LOAD      ACCESS:    3924020  HIT:        163  MISS:    3923857
LLC RFO       ACCESS:       1529  HIT:          0  MISS:       1529
LLC PREFETCH  ACCESS:          0  HIT:          0  MISS:          0
LLC WRITEBACK ACCESS:       6247  HIT:       6232  MISS:         15
Heartbeat CPU 0 instructions: 108000002 cycles: 518308438 heartbeat IPC: 0.115542 cumulative IPC: 0.115797 (Simulation time: 4 hr 10 min 58 sec) 

Region of Interest Statistics
cpu0_DTLB TOTAL     ACCESS:    7765247  HIT:    7686567  MISS:      78680
cpu0_DTLB LOAD      ACCESS:    7474850  HIT:    7396197  MISS:      78653
cpu0_DTLB RFO       ACCESS:     290397  HIT:     290370  MISS:         27
cpu0_DTLB PREFETCH  ACCESS:          0  HIT:          0  MISS:          0
cpu0_DTLB WRITEBACK ACCESS:          0  HIT:          0  MISS:          0
cpu0_ITLB TOTAL     ACCESS:    3585721  HIT:    3585721  MISS:          0
cpu0_ITLB LOAD      ACCESS:    3585721  HIT:    3585721  MISS:          0
cpu0_ITLB RFO       ACCESS:          0  HIT:          0  MISS:          0
cpu0_ITLB PREFETCH  ACCESS:          0  HIT:          0  MISS:          0
cpu0_ITLB WRITEBACK ACCESS:          0  HIT:          0  MISS:          0
cpu0_L1I TOTAL     ACCESS:       8081  HIT:       8081  MISS:          0
cpu0_L1I LOAD      ACCESS:       8081  HIT:       8081  MISS:          0
cpu0_L1I RFO       ACCESS:          0  HIT:          0  MISS:          0
cpu0_L1I PREFETCH  ACCESS:          0  HIT:          0  MISS:          0
cpu0_L1I WRITEBACK ACCESS:          0  HIT:          0  MISS:          0
cpu0_STLB TOTAL     ACCESS:      78680  HIT:       2600  MISS:      76080
cpu0_STLB LOAD      ACCESS:      78653  HIT:       2599  MISS:      76054
cpu0_STLB RFO       ACCESS:         27  HIT:          1  MISS:         26
cpu0_STLB PREFETCH  ACCESS:          0  HIT:          0  MISS:          0
cpu0_STLB WRITEBACK ACCESS:          0  HIT:          0  MISS:          0
cpu0_L1D TOTAL     ACCESS:    8242500  HIT:    4168689  MISS:    4073811
cpu0_L1D LOAD      ACCESS:    7406960  HIT:    3340738  MISS:    4066222
cpu0_L1D RFO       ACCESS:     759491  HIT:     757908  MISS:       1583
cpu0_L1D PREFETCH  ACCESS:          0  HIT:          0  MISS:          0
cpu0_L1D WRITEBACK ACCESS:          0  HIT:          0  MISS:          0
cpu0_L2C TOTAL     ACCESS:    4080259  HIT:      12784  MISS:    4067475
cpu0_L2C LOAD      ACCESS:    4066222  HIT:       1634  MISS:    4064588
cpu0_L2C RFO       ACCESS:       1583  HIT:          0  MISS:       1583
cpu0_L2C PREFETCH  ACCESS:          0  HIT:          0  MISS:          0
cpu0_L2C WRITEBACK ACCESS:       6448  HIT:       6436  MISS:         12
LLC TOTAL     ACCESS:    4073913  HIT:       7511  MISS:    4066402
LLC LOAD      ACCESS:    4064588  HIT:        173  MISS:    4064415
LLC RFO       ACCESS:       1583  HIT:          0  MISS:       1583
LLC PREFETCH  ACCESS:          0  HIT:          0  MISS:          0
LLC WRITEBACK ACCESS:       6450  HIT:       6434  MISS:         16
Heartbeat CPU 0 instructions: 110000003 cycles: 535639837 heartbeat IPC: 0.115398 cumulative IPC: 0.115784 (Simulation time: 4 hr 18 min 22 sec) 

Region of Interest Statistics
cpu0_DTLB TOTAL     ACCESS:    8033692  HIT:    7952569  MISS:      81123
cpu0_DTLB LOAD      ACCESS:    7733533  HIT:    7652437  MISS:      81096
cpu0_DTLB RFO       ACCESS:     300159  HIT:     300132  MISS:         27
cpu0_DTLB PREFETCH  ACCESS:          0  HIT:          0  MISS:          0
cpu0_DTLB WRITEBACK ACCESS:          0  HIT:          0  MISS:          0
cpu0_ITLB TOTAL     ACCESS:    3709223  HIT:    3709223  MISS:          0
cpu0_ITLB LOAD      ACCESS:    3709223  HIT:    3709223  MISS:          0
cpu0_ITLB RFO       ACCESS:          0  HIT:          0  MISS:          0
cpu0_ITLB PREFETCH  ACCESS:          0  HIT:          0  MISS:          0
cpu0_ITLB WRITEBACK ACCESS:          0  HIT:          0  MISS:          0
cpu0_L1I TOTAL     ACCESS:       8081  HIT:       8081  MISS:          0
cpu0_L1I LOAD      ACCESS:       8081  HIT:       8081  MISS:          0
cpu0_L1I RFO       ACCESS:          0  HIT:          0  MISS:          0
cpu0_L1I PREFETCH  ACCESS:          0  HIT:          0  MISS:          0
cpu0_L1I WRITEBACK ACCESS:          0  HIT:          0  MISS:          0
cpu0_STLB TOTAL     ACCESS:      81123  HIT:       2625  MISS:      78498
cpu0_STLB LOAD      ACCESS:      81096  HIT:       2624  MISS:      78472
cpu0_STLB RFO       ACCESS:         27  HIT:          1  MISS:         26
cpu0_STLB PREFETCH  ACCESS:          0  HIT:          0  MISS:          0
cpu0_STLB WRITEBACK ACCESS:          0  HIT:          0  MISS:          0
cpu0_L1D TOTAL     ACCESS:    8527253  HIT:    4312557  MISS:    4214696
cpu0_L1D LOAD      ACCESS:    7663525  HIT:    3456590  MISS:    4206935
cpu0_L1D RFO       ACCESS:     785262  HIT:     783657  MISS:       1605
cpu0_L1D PREFETCH  ACCESS:          0  HIT:          0  MISS:          0
[...]

Region of Interest Statistics
cpu0_DTLB TOTAL     ACCESS:  201066340  HIT:  198997061  MISS:    2069279
cpu0_DTLB LOAD      ACCESS:  192924307  HIT:  190856321  MISS:    2067986
cpu0_DTLB RFO       ACCESS:    8142033  HIT:    8140740  MISS:       1293
cpu0_DTLB PREFETCH  ACCESS:          0  HIT:          0  MISS:          0
cpu0_DTLB WRITEBACK ACCESS:          0  HIT:          0  MISS:          0
cpu0_ITLB TOTAL     ACCESS:   93095808  HIT:   93095802  MISS:          6
cpu0_ITLB LOAD      ACCESS:   93095808  HIT:   93095802  MISS:          6
cpu0_ITLB RFO       ACCESS:          0  HIT:          0  MISS:          0
cpu0_ITLB PREFETCH  ACCESS:          0  HIT:          0  MISS:          0
cpu0_ITLB WRITEBACK ACCESS:          0  HIT:          0  MISS:          0
cpu0_L1I TOTAL     ACCESS:     713786  HIT:     713697  MISS:         89
cpu0_L1I LOAD      ACCESS:     713786  HIT:     713697  MISS:         89
cpu0_L1I RFO       ACCESS:          0  HIT:          0  MISS:          0
cpu0_L1I PREFETCH  ACCESS:          0  HIT:          0  MISS:          0
cpu0_L1I WRITEBACK ACCESS:          0  HIT:          0  MISS:          0
cpu0_STLB TOTAL     ACCESS:    2069285  HIT:      77236  MISS:    1992049
cpu0_STLB LOAD      ACCESS:    2067992  HIT:      76852  MISS:    1991140
cpu0_STLB RFO       ACCESS:       1293  HIT:        384  MISS:        909
cpu0_STLB PREFETCH  ACCESS:          0  HIT:          0  MISS:          0
cpu0_STLB WRITEBACK ACCESS:          0  HIT:          0  MISS:          0
cpu0_L1D TOTAL     ACCESS:  214009798  HIT:  109480358  MISS:  104529440
cpu0_L1D LOAD      ACCESS:  191099793  HIT:   86792457  MISS:  104307336
cpu0_L1D RFO       ACCESS:   20918916  HIT:   20856587  MISS:      62329
cpu0_L1D PREFETCH  ACCESS:          0  HIT:          0  MISS:          0
cpu0_L1D WRITEBACK ACCESS:          0  HIT:          0  MISS:          0
cpu0_L2C TOTAL     ACCESS:  104718928  HIT:     417202  MISS:  104301726
cpu0_L2C LOAD      ACCESS:  104307425  HIT:      91556  MISS:  104215869
cpu0_L2C RFO       ACCESS:      62329  HIT:      11598  MISS:      50731
cpu0_L2C PREFETCH  ACCESS:          0  HIT:          0  MISS:          0
cpu0_L2C WRITEBACK ACCESS:     189399  HIT:     188974  MISS:        425
LLC TOTAL     ACCESS:  104480662  HIT:     269865  MISS:  104210797
LLC LOAD      ACCESS:  104215869  HIT:      65267  MISS:  104150602
LLC RFO       ACCESS:      50731  HIT:       3068  MISS:      47663
LLC PREFETCH  ACCESS:          0  HIT:          0  MISS:          0
LLC WRITEBACK ACCESS:     179361  HIT:     178865  MISS:        496
Finished CPU 0 instructions: 1500000000 cycles: 12857494252 cumulative IPC: 0.116663 (Simulation time: 27 hr 39 min 56 sec) 

ChampSim completed all CPUs

Region of Interest Statistics

CPU 0 cumulative IPC: 0.116663 instructions: 1500000000 cycles: 12857494252
cpu0_DTLB TOTAL     ACCESS:  201066341  HIT:  198997062  MISS:    2069279
cpu0_DTLB LOAD      ACCESS:  192924308  HIT:  190856322  MISS:    2067986
cpu0_DTLB RFO       ACCESS:    8142033  HIT:    8140740  MISS:       1293
cpu0_DTLB PREFETCH  ACCESS:          0  HIT:          0  MISS:          0
cpu0_DTLB WRITEBACK ACCESS:          0  HIT:          0  MISS:          0
cpu0_DTLB TRANSLATION ACCESS:          0  HIT:          0  MISS:          0
cpu0_DTLB PREFETCH  REQUESTED:          0  ISSUED:          0  USEFUL:          0  USELESS:          0
cpu0_DTLB AVERAGE MISS LATENCY: 19.7208 cycles
cpu0_ITLB TOTAL     ACCESS:   93095808  HIT:   93095802  MISS:          6
cpu0_ITLB LOAD      ACCESS:   93095808  HIT:   93095802  MISS:          6
cpu0_ITLB RFO       ACCESS:          0  HIT:          0  MISS:          0
cpu0_ITLB PREFETCH  ACCESS:          0  HIT:          0  MISS:          0
cpu0_ITLB WRITEBACK ACCESS:          0  HIT:          0  MISS:          0
cpu0_ITLB TRANSLATION ACCESS:          0  HIT:          0  MISS:          0
cpu0_ITLB PREFETCH  REQUESTED:          0  ISSUED:          0  USEFUL:          0  USELESS:          0
cpu0_ITLB AVERAGE MISS LATENCY: 283.167 cycles
cpu0_L1I TOTAL     ACCESS:     713786  HIT:     713697  MISS:         89
cpu0_L1I LOAD      ACCESS:     713786  HIT:     713697  MISS:         89
cpu0_L1I RFO       ACCESS:          0  HIT:          0  MISS:          0
cpu0_L1I PREFETCH  ACCESS:          0  HIT:          0  MISS:          0
cpu0_L1I WRITEBACK ACCESS:          0  HIT:          0  MISS:          0
cpu0_L1I TRANSLATION ACCESS:          0  HIT:          0  MISS:          0
cpu0_L1I PREFETCH  REQUESTED:          0  ISSUED:          0  USEFUL:          0  USELESS:          0
cpu0_L1I AVERAGE MISS LATENCY: 190.326 cycles
cpu0_STLB TOTAL     ACCESS:    2069285  HIT:      77236  MISS:    1992049
cpu0_STLB LOAD      ACCESS:    2067992  HIT:      76852  MISS:    1991140
cpu0_STLB RFO       ACCESS:       1293  HIT:        384  MISS:        909
cpu0_STLB PREFETCH  ACCESS:          0  HIT:          0  MISS:          0
cpu0_STLB WRITEBACK ACCESS:          0  HIT:          0  MISS:          0
cpu0_STLB TRANSLATION ACCESS:          0  HIT:          0  MISS:          0
cpu0_STLB PREFETCH  REQUESTED:          0  ISSUED:          0  USEFUL:          0  USELESS:          0
cpu0_STLB AVERAGE MISS LATENCY: 11.1367 cycles
cpu0_L1D TOTAL     ACCESS:  214009799  HIT:  109480358  MISS:  104529441
cpu0_L1D LOAD      ACCESS:  191099794  HIT:   86792457  MISS:  104307337
cpu0_L1D RFO       ACCESS:   20918916  HIT:   20856587  MISS:      62329
cpu0_L1D PREFETCH  ACCESS:          0  HIT:          0  MISS:          0
cpu0_L1D WRITEBACK ACCESS:          0  HIT:          0  MISS:          0
cpu0_L1D TRANSLATION ACCESS:    1991089  HIT:    1831314  MISS:     159775
cpu0_L1D PREFETCH  REQUESTED:          0  ISSUED:          0  USEFUL:          0  USELESS:          0
cpu0_L1D AVERAGE MISS LATENCY: 113.35 cycles
cpu0_L2C TOTAL     ACCESS:  104718929  HIT:     417202  MISS:  104301727
cpu0_L2C LOAD      ACCESS:  104307426  HIT:      91556  MISS:  104215870
cpu0_L2C RFO       ACCESS:      62329  HIT:      11598  MISS:      50731
cpu0_L2C PREFETCH  ACCESS:          0  HIT:          0  MISS:          0
cpu0_L2C WRITEBACK ACCESS:     189399  HIT:     188974  MISS:        425
cpu0_L2C TRANSLATION ACCESS:     159775  HIT:     125074  MISS:      34701
cpu0_L2C PREFETCH  REQUESTED:          0  ISSUED:          0  USEFUL:          0  USELESS:          0
cpu0_L2C AVERAGE MISS LATENCY: 102.569 cycles
LLC TOTAL     ACCESS:  104480663  HIT:     269865  MISS:  104210798
LLC LOAD      ACCESS:  104215870  HIT:      65267  MISS:  104150603
LLC RFO       ACCESS:      50731  HIT:       3068  MISS:      47663
LLC PREFETCH  ACCESS:          0  HIT:          0  MISS:          0
LLC WRITEBACK ACCESS:     179361  HIT:     178865  MISS:        496
LLC TRANSLATION ACCESS:      34701  HIT:      22665  MISS:      12036
LLC PREFETCH  REQUESTED:          0  ISSUED:          0  USEFUL:          0  USELESS:          0
LLC AVERAGE MISS LATENCY: 81.6405 cycles
~~~~~~~~~~Reuse Distance Profiler output~~~~~~~~~~
0	83908960	66096944
1	4483344	4272512
2	1603936	1465440
3	2461136	2226768
4	1812112	1689440
5	1558960	1518368
6	610592	375152
7	532848	234464
8	374320	111216
9	229200	94272
10	2228736	2141216
11	562720	500896
12	247104	187248
13	387600	349200
14	260400	231520
15	256096	223632
16	1087584	1057968
17	520944	504544
18	229328	212128
19	90672	73040
20	42848	24064
21	21712	13152
22	84192	75696
23	34176	24736
24	57344	52320
25	36368	34432
26	98672	96016
27	53920	49664
28	98272	84608
29	37424	26256
30	36336	31168
31	79904	79376
32	32128	32016
33	164704	164400
34	96928	49824
35	102304	37936
36	74944	19248
37	81072	63040
38	65504	63456
39	70656	70112
40	59536	59056
41	23776	23392
42	7664	7280
43	7696	7216
44	10528	10096
45	9488	9104
46	4784	4304
47	5248	4864
48	5120	4800
49	55104	54560
50	26800	26512
51	20112	19952
52	12048	11856
53	74016	73824
54	62320	62272
55	62896	62832
56	144496	34896
57	89248	19744
58	20368	10656
59	3360	3344
60	111664	111632
61	70592	70512
62	11616	11552
63	2176	2080
64	150256	3248
66	42048	10480
68	68368	59472
70	82016	80272
72	3344	1808
74	2752	1296
76	90064	33472
78	142720	11808
80	60688	55024
82	139056	137936
84	30352	29664
86	29520	28672
88	10688	10000
90	2416	1536
92	2544	1472
94	8144	7248
96	32112	31088
98	70976	70224
100	29360	28864
102	14464	14192
104	6944	6784
106	22752	22704
108	62160	62128
110	12816	12800
112	400	400
114	112	112
116	272	256
118	384	368
120	184640	2128
122	18000	11136
124	200272	200272
126	15632	15616
128	2832	2832
132	182160	2016
136	192272	182640
140	11456	11408
144	1856	1616
148	2144	1600
152	3008	2016
156	3040	1584
160	3360	1840
164	2624	1216
168	2784	1568
172	3088	1840
176	3872	2640
180	69456	68240
184	34144	33392
188	608	208
192	336	192
196	288	208
200	272	240
204	176	176
208	272	272
212	512	512
216	158368	688
220	188576	158288
224	30352	30352
228	800	784
232	50912	784
236	155632	18512
240	169376	168736
244	3104	3040
248	368	368
252	128	128
256	272	208
264	784	672
272	1664	1248
280	2912	1904
288	3968	2160
296	3712	1776
304	4160	1952
312	4672	2448
320	3376	1424
328	1952	768
336	592	160
344	256	176
352	160	160
360	144	144
368	144	144
376	144	144
384	160	160
392	112	112
400	96	96
408	96	96
416	240	224
424	112	96
432	176	176
440	64	64
448	80	80
456	32	32
464	112	112
472	32	32
480	64	64
488	80	80
496	144	144
504	80	80
512	96	96
528	96	96
544	192	192
560	176	176
576	96	96
592	16	16
608	80	80
624	128	128
640	128	128
656	96	96
672	32	32
688	64	64
704	64	64
720	32	32
736	64	64
752	64	64
768	32	32
784	48	48
800	80	80
816	32	32
832	416	416
848	187040	187040
864	175552	175552
880	15840	15824
896	64	64
912	176	176
928	32	32
944	83952	83952
960	251984	251984
976	44288	44288
992	576	576
1008	162320	162320
1024	445664	445664
1056	1103360	1103360
1088	1591056	1591056
1120	2688	2688
1152	7120	7104
1184	10720	10720
1216	8048	8048
1248	10144	10144
1280	19744	19744
1312	27840	27840
1344	35696	35696
1376	18224	18224
1408	1184	1184
1440	112	112
1472	96	96
1504	96	96
1536	144	144
1568	160	160
1600	128	112
1632	160	144
1664	128	128
1696	112	112
1728	144	144
1760	48	48
1792	80	80
1824	160	160
1856	128	128
1888	96	96
1920	176	160
1952	144	144
1984	48	48
2016	176	176
2048	208	208
2112	1424	1408
2176	7440	7440
2240	352	352
2304	112	112
2368	64	64
2432	96	96
2496	128	128
2560	160	160
2624	160	160
2688	224	224
2752	144	144
2816	96	96
2880	112	112
2944	96	80
3008	80	80
3072	64	64
3136	112	112
3200	992	992
3264	4672	4672
3328	272	272
3392	80	80
3456	64	64
3520	32	32
3584	32	32
3648	32	32
3712	144	144
3776	96	96
3840	64	64
3904	64	64
3968	112	112
4032	64	64
4096	288	288
4224	624	624
4352	4080	4064
4480	96	96
4608	80	80
4736	160	160
4864	64	64
4992	80	80
5120	192	192
5248	144	144
5376	544	544
5504	1904	1904
5632	16	16
5760	208	208
5888	128	128
6016	176	176
6144	176	176
6272	96	96
6400	208	208
6528	2256	2256
6656	192	192
6784	144	144
6912	96	96
7040	64	64
7168	80	80
7296	112	112
7424	128	128
7552	144	144
7680	1808	1808
7808	192	192
7936	160	160
8064	144	144
8192	352	352
8448	256	256
8704	1136	1136
8960	304	304
9216	304	304
9472	432	432
9728	1632	1632
9984	336	336
10240	528	528
10496	432	432
10752	400	400
11008	1040	1040
11264	272	272
11520	256	256
11776	384	384
12032	896	896
12288	960	960
12544	848	800
12800	1536	1168
13056	2160	1776
13312	1056	816
13568	1184	864
13824	1424	1120
14080	1552	1312
14336	2240	1936
14592	1088	896
14848	944	944
15104	3248	3232
15360	4032	4000
15616	544	480
15872	336	288
16128	464	448
16384	1520	1488
16896	576	560
17408	1104	1072
17920	704	704
18432	1136	1008
18944	688	624
19456	912	896
19968	720	672
20480	688	688
20992	672	672
21504	880	880
22016	704	704
22528	576	576
23040	752	752
23552	640	640
24064	768	768
24576	752	752
25088	416	400
25600	112	112
26112	384	384
26624	208	96
27136	272	224
27648	256	208
28160	32	32
28672	912	832
29184	208	112
29696	208	112
30208	128	128
30720	128	64
31232	96	80
31744	96	64
32256	112	48
32768	368	224
33792	336	192
34816	448	240
35840	144	80
36864	144	80
37888	432	272
38912	288	224
39936	256	176
40960	432	320
41984	304	160
43008	544	384
44032	608	400
45056	304	192
46080	368	224
47104	384	304
48128	480	272
49152	240	144
50176	656	272
51200	528	192
52224	576	160
53248	880	400
54272	224	176
55296	304	176
56320	512	224
57344	192	144
58368	464	320
59392	448	368
60416	448	224
61440	560	352
62464	336	208
63488	432	352
64512	224	192
65536	480	320
67584	560	448
69632	640	480
71680	784	560
73728	1360	1088
75776	384	272
77824	672	352
79872	880	560
81920	688	496
83968	624	464
86016	384	224
88064	496	368
90112	336	240
92160	320	240
94208	336	208
96256	320	112
98304	160	48
100352	384	144
102400	192	96
104448	176	128
106496	416	288
108544	240	96
110592	336	160
112640	208	80
114688	464	352
116736	768	640
118784	48	32
120832	64	0
122880	128	16
124928	80	0
126976	64	16
129024	96	0
131072	256	32
135168	144	0
139264	80	0
143360	96	16
147456	24464	24416
151552	22576	22512
155648	144	32
159744	80	16
163840	48	16
167936	32	16
172032	112	16
176128	16	0
180224	0	0
184320	160	160
188416	20640	20640
192512	16	16
196608	128	128
200704	112	112
204800	176	176
208896	64	64
212992	96	96
217088	32	32
221184	0	0
225280	16	16
229376	0	0
233472	0	0
237568	0	0
241664	0	0
245760	0	0
249856	0	0
253952	16	16
258048	16	16
262144	32	32
270336	592	592
278528	32	32
286720	0	0
294912	64	64
303104	64	64
311296	48	48
319488	16	16
327680	48	48
335872	0	0
344064	0	0
352256	0	0
360448	16	16
368640	32	32
376832	0	0
385024	16	16
393216	0	0
401408	0	0
409600	0	0
417792	16	16
425984	16	16
434176	16	16
442368	0	0
450560	0	0
458752	16	16
466944	0	0
475136	16	16
483328	0	0
491520	0	0
499712	16	16
507904	16	16
516096	0	0
524288	0	0
540672	0	0
557056	16	16
573440	0	0
589824	48	48
606208	560	560
622592	672	672
638976	32	32
655360	0	0
671744	0	0
688128	48	48
704512	0	0
720896	0	0
737280	0	0
753664	0	0
770048	0	0
786432	0	0
802816	0	0
819200	0	0
835584	32	32
851968	0	0
868352	0	0
884736	0	0
901120	0	0
917504	16	16
933888	16	16
950272	0	0
966656	0	0
983040	0	0
999424	0	0
1015808	0	0
1032192	0	0
1048576	0	0
1081344	0	0
1114112	0	0
1146880	0	0
1179648	0	0
1212416	0	0
1245184	16	16
1277952	48	48
1310720	0	0
1343488	32	32
1376256	0	0
1409024	0	0
1441792	0	0
1474560	32	32
1507328	0	0
1540096	0	0
1572864	0	0
1605632	0	0
1638400	16	16
1671168	16	16
1703936	16	16
1736704	16	16
1769472	0	0
1802240	0	0
1835008	0	0
1867776	16	16
1900544	0	0
1933312	0	0
1966080	16	16
1998848	16	16
2031616	16	16
2064384	0	0
2097152	0	0
2162688	0	0
2228224	32	32
2293760	32	32
2359296	48	48
2424832	0	0
2490368	16	16
2555904	16	16
2621440	32	32
2686976	0	0
2752512	32	32
2818048	32	32
2883584	0	0
2949120	0	0
3014656	32	32
3080192	0	0
3145728	16	16
3211264	16	16
3276800	0	0
3342336	0	0
3407872	16	16
3473408	0	0
3538944	0	0
3604480	32	32
3670016	64	64
3735552	0	0
3801088	16	16
3866624	0	0
3932160	32	32
3997696	16	16
4063232	560	560
4128768	320	320
4194304	240	240
4325376	0	0
4456448	640	640
4587520	96	96
4718592	48	48
4849664	1280	1280
4980736	2512	2512
5111808	74172608	74142032
5242880	7079536	7075760
5373952	9372128	9368672
5505024	3774160	3772608
5636096	7048320	7045792
5767168	857776	857344
5898240	263824	263728
6029312	282160	282048
6160384	284864	284688
6291456	1048048	1047648
6422528	0	0
6553600	544	544
6684672	16	16
6815744	32	32
6946816	16	16
7077888	16	16
7208960	0	0
7340032	0	0
7471104	0	0
7602176	0	0
7733248	0	0
7864320	32	32
7995392	0	0
8126464	0	0
8257536	0	0
8388608	0	0
8650752	0	0
8912896	0	0
9175040	0	0
9437184	0	0
9699328	0	0
9961472	1520	1520
10223616	11760	10656
10485760	368	368
10747904	1664	1664
11010048	496	496
11272192	368	368
11534336	576	576
11796480	0	0
12058624	624	624
12320768	496	496
12582912	0	0
12845056	0	0
13107200	32	32
13369344	0	0
13631488	0	0
13893632	0	0
14155776	512	512
14417920	32	32
14680064	0	0
14942208	528	528
15204352	16	16
15466496	848	848
15728640	176	80
15990784	9216	8272
16252928	132944	132848
16515072	51184	51152
16777216	0	0
17301504	0	0
17825792	0	0
18350080	0	0
18874368	0	0
19398656	480	480
19922944	544	544
20447232	0	0
20971520	336	336
21495808	0	0
22020096	0	0
22544384	0	0
23068672	0	0
23592960	0	0
24117248	0	0
24641536	0	0
25165824	16	16
25690112	187200	187136
26214400	96	96
26738688	0	0
27262976	0	0
27787264	0	0
28311552	0	0
28835840	16	16
29360128	0	0
29884416	0	0
30408704	0	0
30932992	0	0
31457280	160	160
31981568	0	0
32505856	16	16
33030144	0	0
33554432	0	0
34603008	0	0
35651584	368	368
36700160	9472	8592
37748736	230400	230256
38797312	0	0
39845888	0	0
40894464	32	32
41943040	40784	40784
42991616	0	0
44040192	0	0
45088768	0	0
46137344	0	0
47185920	0	0
48234496	0	0
49283072	0	0
50331648	0	0
51380224	0	0
52428800	0	0
53477376	0	0
54525952	0	0
55574528	0	0
56623104	0	0
57671680	0	0
58720256	0	0
59768832	0	0
60817408	0	0
61865984	0	0
62914560	0	0
63963136	0	0
65011712	0	0
66060288	0	0
67108864	0	0
69206016	0	0
71303168	0	0
73400320	0	0
75497472	0	0
77594624	0	0
79691776	0	0
81788928	0	0
83886080	0	0
85983232	0	0
88080384	0	0
90177536	0	0
92274688	0	0
94371840	0	0
96468992	0	0
98566144	0	0
100663296	0	0
102760448	0	0
104857600	0	0
106954752	0	0
109051904	0	0
111149056	0	0
113246208	0	0
115343360	0	0
117440512	0	0
119537664	0	0
121634816	0	0
123731968	0	0
125829120	0	0
127926272	0	0
130023424	0	0
132120576	0	0
134217728	0	0
138412032	0	0
142606336	0	0
146800640	0	0
150994944	0	0
155189248	0	0
159383552	0	0
163577856	0	0
167772160	0	0
171966464	0	0
176160768	0	0
180355072	0	0
184549376	0	0
188743680	0	0
192937984	0	0
197132288	0	0
201326592	0	0
205520896	0	0
209715200	0	0
213909504	0	0
218103808	0	0
222298112	0	0
226492416	0	0
230686720	0	0
234881024	0	0
239075328	0	0
243269632	0	0
247463936	0	0
251658240	0	0
255852544	0	0
260046848	0	0
264241152	0	0
268435456	0	0
276824064	0	0
285212672	0	0
293601280	0	0
301989888	0	0
310378496	0	0
318767104	0	0
327155712	0	0
335544320	0	0
343932928	0	0
352321536	0	0
360710144	0	0
369098752	0	0
377487360	0	0
385875968	0	0
394264576	0	0
402653184	0	0
411041792	0	0
419430400	0	0
427819008	0	0
436207616	0	0
444596224	0	0
452984832	0	0
461373440	0	0
469762048	0	0
478150656	0	0
486539264	0	0
494927872	0	0
503316480	0	0
511705088	0	0
520093696	0	0
528482304	0	0
536870912	0	0
553648128	0	0
570425344	0	0
587202560	0	0
603979776	0	0
620756992	0	0
637534208	0	0
654311424	0	0
671088640	0	0
687865856	0	0
704643072	0	0
721420288	0	0
738197504	0	0
754974720	0	0
771751936	0	0
788529152	0	0
805306368	0	0
822083584	0	0
838860800	0	0
855638016	0	0
872415232	0	0
889192448	0	0
905969664	0	0
922746880	0	0
939524096	0	0
956301312	0	0
973078528	0	0
989855744	0	0
1006632960	0	0
1023410176	0	0
1040187392	0	0
1056964608	0	0
1073741824	0	0
1107296256	0	0
1140850688	0	0
1174405120	0	0
1207959552	0	0
1241513984	0	0
1275068416	0	0
1308622848	0	0
1342177280	0	0
1375731712	0	0
1409286144	0	0
1442840576	0	0
1476395008	0	0
1509949440	0	0
1543503872	0	0
1577058304	0	0
1610612736	0	0
1644167168	0	0
1677721600	0	0
1711276032	0	0
1744830464	0	0
1778384896	0	0
1811939328	0	0
1845493760	0	0
1879048192	0	0
1912602624	0	0
1946157056	0	0
1979711488	0	0
2013265920	0	0
2046820352	0	0
2080374784	0	0
2113929216	0	0
2147483648	0	0
2214592512	0	0
2281701376	0	0
2348810240	0	0
2415919104	0	0
2483027968	0	0
2550136832	0	0
2617245696	0	0
2684354560	0	0
2751463424	0	0
2818572288	0	0
2885681152	0	0
2952790016	0	0
3019898880	0	0
3087007744	0	0
3154116608	0	0
3221225472	0	0
3288334336	0	0
3355443200	0	0
3422552064	0	0
3489660928	0	0
3556769792	0	0
3623878656	0	0
3690987520	0	0
3758096384	0	0
3825205248	0	0
3892314112	0	0
3959422976	0	0
4026531840	0	0
4093640704	0	0
4160749568	0	0
4227858432	0	0
~~~~~~~~~~Reuse Distance Profiler output end~~~~~~~~~~

Sampler size:180485

DRAM Statistics
 CHANNEL 0
 RQ ROW_BUFFER_HIT:   84237790  ROW_BUFFER_MISS:   19972512
 DBUS AVG_CONGESTED_CYCLE:    3.44741
 WQ ROW_BUFFER_HIT:     171059  ROW_BUFFER_MISS:       2987  FULL:          0


CPU 0 Branch Prediction Accuracy: 99.0717% MPKI: 3.29907 Average ROB Occupancy at Mispredict: 120.862
Branch type MPKI
BRANCH_DIRECT_JUMP: 2.46667e-05
BRANCH_INDIRECT: 0
BRANCH_CONDITIONAL: 3.29901
BRANCH_DIRECT_CALL: 1.8e-05
BRANCH_INDIRECT_CALL: 6.66667e-07
BRANCH_RETURN: 1.86667e-05

