
*** ChampSim Multicore Out-of-Order Simulator ***

Warmup Instructions: 50000000
Simulation Instructions: 1500000000
Number of CPUs: 1
Off-chip DRAM Size: 4 GiB Channels: 1 Width: 64-bit Data Rate: 3200 MT/s

VirtualMemory physical capacity: 8588881920 num_ppages: 2096895
VirtualMemory page size: 4096 log2_page_size: 12

CPU 0 runs /s/traces/champsim_traces/603.bwaves_s-891B.champsimtrace.xz
CPU 0 Bimodal branch predictor
Basic BTB sets: 1024 ways: 8 indirect buffer size: 4096 RAS size: 64
Initializing LRU.
Initializing LRU.
Initializing LRU.
Initializing LRU.
Initializing rdLRU.
Initializing LRU.
Heartbeat CPU 0 instructions: 2000003 cycles: 500075 heartbeat IPC: 3.99941 cumulative IPC: 3.99941 (Simulation time: 0 hr 0 min 55 sec) 
Heartbeat CPU 0 instructions: 4000003 cycles: 1000075 heartbeat IPC: 4 cumulative IPC: 3.9997 (Simulation time: 0 hr 1 min 50 sec) 
Heartbeat CPU 0 instructions: 6000003 cycles: 1500075 heartbeat IPC: 4 cumulative IPC: 3.9998 (Simulation time: 0 hr 2 min 44 sec) 
Heartbeat CPU 0 instructions: 8000003 cycles: 2000075 heartbeat IPC: 4 cumulative IPC: 3.99985 (Simulation time: 0 hr 3 min 37 sec) 
Heartbeat CPU 0 instructions: 10000003 cycles: 2500075 heartbeat IPC: 4 cumulative IPC: 3.99988 (Simulation time: 0 hr 4 min 32 sec) 
Heartbeat CPU 0 instructions: 12000003 cycles: 3000075 heartbeat IPC: 4 cumulative IPC: 3.9999 (Simulation time: 0 hr 5 min 26 sec) 
Heartbeat CPU 0 instructions: 14000003 cycles: 3500075 heartbeat IPC: 4 cumulative IPC: 3.99992 (Simulation time: 0 hr 6 min 16 sec) 
Heartbeat CPU 0 instructions: 16000003 cycles: 4000075 heartbeat IPC: 4 cumulative IPC: 3.99993 (Simulation time: 0 hr 7 min 8 sec) 
Heartbeat CPU 0 instructions: 18000003 cycles: 4500075 heartbeat IPC: 4 cumulative IPC: 3.99993 (Simulation time: 0 hr 8 min 1 sec) 
Heartbeat CPU 0 instructions: 20000003 cycles: 5000075 heartbeat IPC: 4 cumulative IPC: 3.99994 (Simulation time: 0 hr 8 min 55 sec) 
Heartbeat CPU 0 instructions: 22000003 cycles: 5500075 heartbeat IPC: 4 cumulative IPC: 3.99995 (Simulation time: 0 hr 9 min 44 sec) 
Heartbeat CPU 0 instructions: 24000003 cycles: 6000075 heartbeat IPC: 4 cumulative IPC: 3.99995 (Simulation time: 0 hr 10 min 35 sec) 
Heartbeat CPU 0 instructions: 26000003 cycles: 6500075 heartbeat IPC: 4 cumulative IPC: 3.99995 (Simulation time: 0 hr 11 min 27 sec) 
Heartbeat CPU 0 instructions: 28000003 cycles: 7000075 heartbeat IPC: 4 cumulative IPC: 3.99996 (Simulation time: 0 hr 12 min 21 sec) 
Heartbeat CPU 0 instructions: 30000003 cycles: 7500075 heartbeat IPC: 4 cumulative IPC: 3.99996 (Simulation time: 0 hr 13 min 14 sec) 
Heartbeat CPU 0 instructions: 32000003 cycles: 8000075 heartbeat IPC: 4 cumulative IPC: 3.99996 (Simulation time: 0 hr 14 min 8 sec) 
Heartbeat CPU 0 instructions: 34000003 cycles: 8500075 heartbeat IPC: 4 cumulative IPC: 3.99996 (Simulation time: 0 hr 14 min 58 sec) 
Heartbeat CPU 0 instructions: 36000003 cycles: 9000075 heartbeat IPC: 4 cumulative IPC: 3.99997 (Simulation time: 0 hr 15 min 51 sec) 
Heartbeat CPU 0 instructions: 38000003 cycles: 9500075 heartbeat IPC: 4 cumulative IPC: 3.99997 (Simulation time: 0 hr 16 min 37 sec) 
Heartbeat CPU 0 instructions: 40000003 cycles: 10000075 heartbeat IPC: 4 cumulative IPC: 3.99997 (Simulation time: 0 hr 17 min 25 sec) 
Heartbeat CPU 0 instructions: 42000003 cycles: 10500075 heartbeat IPC: 4 cumulative IPC: 3.99997 (Simulation time: 0 hr 18 min 16 sec) 
Heartbeat CPU 0 instructions: 44000003 cycles: 11000075 heartbeat IPC: 4 cumulative IPC: 3.99997 (Simulation time: 0 hr 19 min 4 sec) 
Heartbeat CPU 0 instructions: 46000003 cycles: 11500075 heartbeat IPC: 4 cumulative IPC: 3.99997 (Simulation time: 0 hr 19 min 51 sec) 
Heartbeat CPU 0 instructions: 48000003 cycles: 12000075 heartbeat IPC: 4 cumulative IPC: 3.99998 (Simulation time: 0 hr 20 min 39 sec) 
Heartbeat CPU 0 instructions: 50000003 cycles: 12500075 heartbeat IPC: 4 cumulative IPC: 3.99998 (Simulation time: 0 hr 21 min 27 sec) 

Warmup complete CPU 0 instructions: 50000003 cycles: 12500075 (Simulation time: 0 hr 21 min 27 sec) 

Heartbeat CPU 0 instructions: 52000003 cycles: 13857855 heartbeat IPC: 1.47299 cumulative IPC: 1.47299 (Simulation time: 0 hr 22 min 44 sec) 

Region of Interest Statistics
cpu0_DTLB TOTAL     ACCESS:     245006  HIT:     244516  MISS:        490
cpu0_DTLB LOAD      ACCESS:     197146  HIT:     196656  MISS:        490
cpu0_DTLB RFO       ACCESS:      47860  HIT:      47860  MISS:          0
cpu0_DTLB PREFETCH  ACCESS:          0  HIT:          0  MISS:          0
cpu0_DTLB WRITEBACK ACCESS:          0  HIT:          0  MISS:          0
cpu0_ITLB TOTAL     ACCESS:     199925  HIT:     199925  MISS:          0
cpu0_ITLB LOAD      ACCESS:     199925  HIT:     199925  MISS:          0
cpu0_ITLB RFO       ACCESS:          0  HIT:          0  MISS:          0
cpu0_ITLB PREFETCH  ACCESS:          0  HIT:          0  MISS:          0
cpu0_ITLB WRITEBACK ACCESS:          0  HIT:          0  MISS:          0
cpu0_STLB TOTAL     ACCESS:        490  HIT:          3  MISS:        487
cpu0_STLB LOAD      ACCESS:        490  HIT:          3  MISS:        487
cpu0_STLB RFO       ACCESS:          0  HIT:          0  MISS:          0
cpu0_STLB PREFETCH  ACCESS:          0  HIT:          0  MISS:          0
cpu0_STLB WRITEBACK ACCESS:          0  HIT:          0  MISS:          0
cpu0_L1D TOTAL     ACCESS:     132941  HIT:     101770  MISS:      31171
cpu0_L1D LOAD      ACCESS:      82583  HIT:      51412  MISS:      31171
cpu0_L1D RFO       ACCESS:      49871  HIT:      49871  MISS:          0
cpu0_L1D PREFETCH  ACCESS:          0  HIT:          0  MISS:          0
cpu0_L1D WRITEBACK ACCESS:          0  HIT:          0  MISS:          0
cpu0_L2C TOTAL     ACCESS:      31171  HIT:          2  MISS:      31169
cpu0_L2C LOAD      ACCESS:      31171  HIT:          2  MISS:      31169
cpu0_L2C RFO       ACCESS:          0  HIT:          0  MISS:          0
cpu0_L2C PREFETCH  ACCESS:          0  HIT:          0  MISS:          0
cpu0_L2C WRITEBACK ACCESS:          0  HIT:          0  MISS:          0
LLC TOTAL     ACCESS:      31169  HIT:          4  MISS:      31165
LLC LOAD      ACCESS:      31169  HIT:          4  MISS:      31165
LLC RFO       ACCESS:          0  HIT:          0  MISS:          0
LLC PREFETCH  ACCESS:          0  HIT:          0  MISS:          0
LLC WRITEBACK ACCESS:          0  HIT:          0  MISS:          0
Heartbeat CPU 0 instructions: 54000000 cycles: 15215307 heartbeat IPC: 1.47335 cumulative IPC: 1.47317 (Simulation time: 0 hr 23 min 57 sec) 

Region of Interest Statistics
cpu0_DTLB TOTAL     ACCESS:     490144  HIT:     489163  MISS:        981
cpu0_DTLB LOAD      ACCESS:     394437  HIT:     393456  MISS:        981
cpu0_DTLB RFO       ACCESS:      95707  HIT:      95707  MISS:          0
cpu0_DTLB PREFETCH  ACCESS:          0  HIT:          0  MISS:          0
cpu0_DTLB WRITEBACK ACCESS:          0  HIT:          0  MISS:          0
cpu0_ITLB TOTAL     ACCESS:     399886  HIT:     399886  MISS:          0
cpu0_ITLB LOAD      ACCESS:     399886  HIT:     399886  MISS:          0
cpu0_ITLB RFO       ACCESS:          0  HIT:          0  MISS:          0
cpu0_ITLB PREFETCH  ACCESS:          0  HIT:          0  MISS:          0
cpu0_ITLB WRITEBACK ACCESS:          0  HIT:          0  MISS:          0
cpu0_STLB TOTAL     ACCESS:        981  HIT:          7  MISS:        974
cpu0_STLB LOAD      ACCESS:        981  HIT:          7  MISS:        974
cpu0_STLB RFO       ACCESS:          0  HIT:          0  MISS:          0
cpu0_STLB PREFETCH  ACCESS:          0  HIT:          0  MISS:          0
cpu0_STLB WRITEBACK ACCESS:          0  HIT:          0  MISS:          0
cpu0_L1D TOTAL     ACCESS:     265905  HIT:     203555  MISS:      62350
cpu0_L1D LOAD      ACCESS:     165187  HIT:     102837  MISS:      62350
cpu0_L1D RFO       ACCESS:      99744  HIT:      99744  MISS:          0
cpu0_L1D PREFETCH  ACCESS:          0  HIT:          0  MISS:          0
cpu0_L1D WRITEBACK ACCESS:          0  HIT:          0  MISS:          0
cpu0_L2C TOTAL     ACCESS:      62350  HIT:          5  MISS:      62345
cpu0_L2C LOAD      ACCESS:      62350  HIT:          5  MISS:      62345
cpu0_L2C RFO       ACCESS:          0  HIT:          0  MISS:          0
cpu0_L2C PREFETCH  ACCESS:          0  HIT:          0  MISS:          0
cpu0_L2C WRITEBACK ACCESS:          0  HIT:          0  MISS:          0
LLC TOTAL     ACCESS:      62345  HIT:          9  MISS:      62336
LLC LOAD      ACCESS:      62345  HIT:          9  MISS:      62336
LLC RFO       ACCESS:          0  HIT:          0  MISS:          0
LLC PREFETCH  ACCESS:          0  HIT:          0  MISS:          0
LLC WRITEBACK ACCESS:          0  HIT:          0  MISS:          0
Heartbeat CPU 0 instructions: 56000000 cycles: 16573168 heartbeat IPC: 1.4729 cumulative IPC: 1.47308 (Simulation time: 0 hr 25 min 11 sec) 

Region of Interest Statistics
cpu0_DTLB TOTAL     ACCESS:     735255  HIT:     733784  MISS:       1471
cpu0_DTLB LOAD      ACCESS:     591691  HIT:     590220  MISS:       1471
cpu0_DTLB RFO       ACCESS:     143564  HIT:     143564  MISS:          0
cpu0_DTLB PREFETCH  ACCESS:          0  HIT:          0  MISS:          0
cpu0_DTLB WRITEBACK ACCESS:          0  HIT:          0  MISS:          0
cpu0_ITLB TOTAL     ACCESS:     599850  HIT:     599850  MISS:          0
cpu0_ITLB LOAD      ACCESS:     599850  HIT:     599850  MISS:          0
cpu0_ITLB RFO       ACCESS:          0  HIT:          0  MISS:          0
cpu0_ITLB PREFETCH  ACCESS:          0  HIT:          0  MISS:          0
cpu0_ITLB WRITEBACK ACCESS:          0  HIT:          0  MISS:          0
cpu0_STLB TOTAL     ACCESS:       1471  HIT:         10  MISS:       1461
cpu0_STLB LOAD      ACCESS:       1471  HIT:         10  MISS:       1461
cpu0_STLB RFO       ACCESS:          0  HIT:          0  MISS:          0
cpu0_STLB PREFETCH  ACCESS:          0  HIT:          0  MISS:          0
cpu0_STLB WRITEBACK ACCESS:          0  HIT:          0  MISS:          0
cpu0_L1D TOTAL     ACCESS:     398860  HIT:     305333  MISS:      93527
cpu0_L1D LOAD      ACCESS:     247783  HIT:     154257  MISS:      93526
cpu0_L1D RFO       ACCESS:     149616  HIT:     149616  MISS:          0
cpu0_L1D PREFETCH  ACCESS:          0  HIT:          0  MISS:          0
cpu0_L1D WRITEBACK ACCESS:          0  HIT:          0  MISS:          0
cpu0_L2C TOTAL     ACCESS:      93527  HIT:          8  MISS:      93519
cpu0_L2C LOAD      ACCESS:      93526  HIT:          8  MISS:      93518
cpu0_L2C RFO       ACCESS:          0  HIT:          0  MISS:          0
cpu0_L2C PREFETCH  ACCESS:          0  HIT:          0  MISS:          0
cpu0_L2C WRITEBACK ACCESS:          0  HIT:          0  MISS:          0
LLC TOTAL     ACCESS:      93519  HIT:         12  MISS:      93507
LLC LOAD      ACCESS:      93518  HIT:         12  MISS:      93506
LLC RFO       ACCESS:          0  HIT:          0  MISS:          0
LLC PREFETCH  ACCESS:          0  HIT:          0  MISS:          0
LLC WRITEBACK ACCESS:          0  HIT:          0  MISS:          0
Heartbeat CPU 0 instructions: 58000000 cycles: 17930430 heartbeat IPC: 1.47355 cumulative IPC: 1.4732 (Simulation time: 0 hr 26 min 25 sec) 

Region of Interest Statistics
cpu0_DTLB TOTAL     ACCESS:     980393  HIT:     978431  MISS:       1962
cpu0_DTLB LOAD      ACCESS:     788979  HIT:     787017  MISS:       1962
cpu0_DTLB RFO       ACCESS:     191414  HIT:     191414  MISS:          0
cpu0_DTLB PREFETCH  ACCESS:          0  HIT:          0  MISS:          0
cpu0_DTLB WRITEBACK ACCESS:          0  HIT:          0  MISS:          0
cpu0_ITLB TOTAL     ACCESS:     799811  HIT:     799811  MISS:          0
cpu0_ITLB LOAD      ACCESS:     799811  HIT:     799811  MISS:          0
cpu0_ITLB RFO       ACCESS:          0  HIT:          0  MISS:          0
cpu0_ITLB PREFETCH  ACCESS:          0  HIT:          0  MISS:          0
cpu0_ITLB WRITEBACK ACCESS:          0  HIT:          0  MISS:          0
cpu0_STLB TOTAL     ACCESS:       1962  HIT:         14  MISS:       1948
cpu0_STLB LOAD      ACCESS:       1962  HIT:         14  MISS:       1948
cpu0_STLB RFO       ACCESS:          0  HIT:          0  MISS:          0
cpu0_STLB PREFETCH  ACCESS:          0  HIT:          0  MISS:          0
cpu0_STLB WRITEBACK ACCESS:          0  HIT:          0  MISS:          0
cpu0_L1D TOTAL     ACCESS:     531814  HIT:     407109  MISS:     124705
cpu0_L1D LOAD      ACCESS:     330378  HIT:     205674  MISS:     124704
cpu0_L1D RFO       ACCESS:     199488  HIT:     199488  MISS:          0
cpu0_L1D PREFETCH  ACCESS:          0  HIT:          0  MISS:          0
cpu0_L1D WRITEBACK ACCESS:          0  HIT:          0  MISS:          0
cpu0_L2C TOTAL     ACCESS:     124705  HIT:         11  MISS:     124694
cpu0_L2C LOAD      ACCESS:     124704  HIT:         11  MISS:     124693
cpu0_L2C RFO       ACCESS:          0  HIT:          0  MISS:          0
cpu0_L2C PREFETCH  ACCESS:          0  HIT:          0  MISS:          0
cpu0_L2C WRITEBACK ACCESS:          0  HIT:          0  MISS:          0
LLC TOTAL     ACCESS:     124694  HIT:         17  MISS:     124677
LLC LOAD      ACCESS:     124693  HIT:         17  MISS:     124676
LLC RFO       ACCESS:          0  HIT:          0  MISS:          0
LLC PREFETCH  ACCESS:          0  HIT:          0  MISS:          0
LLC WRITEBACK ACCESS:          0  HIT:          0  MISS:          0
Heartbeat CPU 0 instructions: 60000000 cycles: 19289901 heartbeat IPC: 1.47116 cumulative IPC: 1.47279 (Simulation time: 0 hr 27 min 41 sec) 

Region of Interest Statistics
cpu0_DTLB TOTAL     ACCESS:    1225267  HIT:    1222814  MISS:       2453
cpu0_DTLB LOAD      ACCESS:     985932  HIT:     983479  MISS:       2453
cpu0_DTLB RFO       ACCESS:     239335  HIT:     239335  MISS:          0
cpu0_DTLB PREFETCH  ACCESS:          0  HIT:          0  MISS:          0
cpu0_DTLB WRITEBACK ACCESS:          0  HIT:          0  MISS:          0
cpu0_ITLB TOTAL     ACCESS:     999769  HIT:     999769  MISS:          0
cpu0_ITLB LOAD      ACCESS:     999769  HIT:     999769  MISS:          0
cpu0_ITLB RFO       ACCESS:          0  HIT:          0  MISS:          0
cpu0_ITLB PREFETCH  ACCESS:          0  HIT:          0  MISS:          0
cpu0_ITLB WRITEBACK ACCESS:          0  HIT:          0  MISS:          0
cpu0_STLB TOTAL     ACCESS:       2453  HIT:         18  MISS:       2435
cpu0_STLB LOAD      ACCESS:       2453  HIT:         18  MISS:       2435
cpu0_STLB RFO       ACCESS:          0  HIT:          0  MISS:          0
cpu0_STLB PREFETCH  ACCESS:          0  HIT:          0  MISS:          0
cpu0_STLB WRITEBACK ACCESS:          0  HIT:          0  MISS:          0
cpu0_L1D TOTAL     ACCESS:     664770  HIT:     508888  MISS:     155882
cpu0_L1D LOAD      ACCESS:     412976  HIT:     257095  MISS:     155881
cpu0_L1D RFO       ACCESS:     249359  HIT:     249359  MISS:          0
cpu0_L1D PREFETCH  ACCESS:          0  HIT:          0  MISS:          0
cpu0_L1D WRITEBACK ACCESS:          0  HIT:          0  MISS:          0
cpu0_L2C TOTAL     ACCESS:     155882  HIT:         15  MISS:     155867
cpu0_L2C LOAD      ACCESS:     155881  HIT:         15  MISS:     155866
cpu0_L2C RFO       ACCESS:          0  HIT:          0  MISS:          0
cpu0_L2C PREFETCH  ACCESS:          0  HIT:          0  MISS:          0
cpu0_L2C WRITEBACK ACCESS:          0  HIT:          0  MISS:          0
LLC TOTAL     ACCESS:     155867  HIT:         21  MISS:     155846
LLC LOAD      ACCESS:     155866  HIT:         21  MISS:     155845
LLC RFO       ACCESS:          0  HIT:          0  MISS:          0
LLC PREFETCH  ACCESS:          0  HIT:          0  MISS:          0
LLC WRITEBACK ACCESS:          0  HIT:          0  MISS:          0
Heartbeat CPU 0 instructions: 62000000 cycles: 20647600 heartbeat IPC: 1.47308 cumulative IPC: 1.47284 (Simulation time: 0 hr 28 min 55 sec) 

Region of Interest Statistics
cpu0_DTLB TOTAL     ACCESS:    1470345  HIT:    1467402  MISS:       2943
cpu0_DTLB LOAD      ACCESS:    1183155  HIT:    1180212  MISS:       2943
cpu0_DTLB RFO       ACCESS:     287190  HIT:     287190  MISS:          0
cpu0_DTLB PREFETCH  ACCESS:          0  HIT:          0  MISS:          0
cpu0_DTLB WRITEBACK ACCESS:          0  HIT:          0  MISS:          0
cpu0_ITLB TOTAL     ACCESS:    1199726  HIT:    1199726  MISS:          0
cpu0_ITLB LOAD      ACCESS:    1199726  HIT:    1199726  MISS:          0
cpu0_ITLB RFO       ACCESS:          0  HIT:          0  MISS:          0
cpu0_ITLB PREFETCH  ACCESS:          0  HIT:          0  MISS:          0
cpu0_ITLB WRITEBACK ACCESS:          0  HIT:          0  MISS:          0
cpu0_STLB TOTAL     ACCESS:       2943  HIT:         21  MISS:       2922
cpu0_STLB LOAD      ACCESS:       2943  HIT:         21  MISS:       2922
cpu0_STLB RFO       ACCESS:          0  HIT:          0  MISS:          0
cpu0_STLB PREFETCH  ACCESS:          0  HIT:          0  MISS:          0
cpu0_STLB WRITEBACK ACCESS:          0  HIT:          0  MISS:          0
cpu0_L1D TOTAL     ACCESS:     797726  HIT:     610668  MISS:     187058
cpu0_L1D LOAD      ACCESS:     495573  HIT:     308516  MISS:     187057
cpu0_L1D RFO       ACCESS:     299231  HIT:     299231  MISS:          0
cpu0_L1D PREFETCH  ACCESS:          0  HIT:          0  MISS:          0
cpu0_L1D WRITEBACK ACCESS:          0  HIT:          0  MISS:          0
cpu0_L2C TOTAL     ACCESS:     187058  HIT:         16  MISS:     187042
cpu0_L2C LOAD      ACCESS:     187057  HIT:         16  MISS:     187041
cpu0_L2C RFO       ACCESS:          0  HIT:          0  MISS:          0
cpu0_L2C PREFETCH  ACCESS:          0  HIT:          0  MISS:          0
cpu0_L2C WRITEBACK ACCESS:          0  HIT:          0  MISS:          0
LLC TOTAL     ACCESS:     187042  HIT:         26  MISS:     187016
LLC LOAD      ACCESS:     187041  HIT:         26  MISS:     187015
LLC RFO       ACCESS:          0  HIT:          0  MISS:          0
LLC PREFETCH  ACCESS:          0  HIT:          0  MISS:          0
LLC WRITEBACK ACCESS:          0  HIT:          0  MISS:          0
Heartbeat CPU 0 instructions: 64000002 cycles: 22005470 heartbeat IPC: 1.4729 cumulative IPC: 1.47285 (Simulation time: 0 hr 30 min 9 sec) 

Region of Interest Statistics
cpu0_DTLB TOTAL     ACCESS:    1715418  HIT:    1711984  MISS:       3434
cpu0_DTLB LOAD      ACCESS:    1380353  HIT:    1376919  MISS:       3434
cpu0_DTLB RFO       ACCESS:     335065  HIT:     335065  MISS:          0
cpu0_DTLB PREFETCH  ACCESS:          0  HIT:          0  MISS:          0
cpu0_DTLB WRITEBACK ACCESS:          0  HIT:          0  MISS:          0
cpu0_ITLB TOTAL     ACCESS:    1399693  HIT:    1399693  MISS:          0
cpu0_ITLB LOAD      ACCESS:    1399693  HIT:    1399693  MISS:          0
cpu0_ITLB RFO       ACCESS:          0  HIT:          0  MISS:          0
cpu0_ITLB PREFETCH  ACCESS:          0  HIT:          0  MISS:          0
cpu0_ITLB WRITEBACK ACCESS:          0  HIT:          0  MISS:          0
cpu0_STLB TOTAL     ACCESS:       3434  HIT:         25  MISS:       3409
cpu0_STLB LOAD      ACCESS:       3434  HIT:         25  MISS:       3409
cpu0_STLB RFO       ACCESS:          0  HIT:          0  MISS:          0
cpu0_STLB PREFETCH  ACCESS:          0  HIT:          0  MISS:          0
cpu0_STLB WRITEBACK ACCESS:          0  HIT:          0  MISS:          0
cpu0_L1D TOTAL     ACCESS:     930687  HIT:     712450  MISS:     218237
cpu0_L1D LOAD      ACCESS:     578174  HIT:     359938  MISS:     218236
cpu0_L1D RFO       ACCESS:     349104  HIT:     349104  MISS:          0
cpu0_L1D PREFETCH  ACCESS:          0  HIT:          0  MISS:          0
cpu0_L1D WRITEBACK ACCESS:          0  HIT:          0  MISS:          0
cpu0_L2C TOTAL     ACCESS:     218237  HIT:         19  MISS:     218218
cpu0_L2C LOAD      ACCESS:     218236  HIT:         19  MISS:     218217
cpu0_L2C RFO       ACCESS:          0  HIT:          0  MISS:          0
cpu0_L2C PREFETCH  ACCESS:          0  HIT:          0  MISS:          0
cpu0_L2C WRITEBACK ACCESS:          0  HIT:          0  MISS:          0
LLC TOTAL     ACCESS:     218218  HIT:         31  MISS:     218187
LLC LOAD      ACCESS:     218217  HIT:         31  MISS:     218186
LLC RFO       ACCESS:          0  HIT:          0  MISS:          0
LLC PREFETCH  ACCESS:          0  HIT:          0  MISS:          0
LLC WRITEBACK ACCESS:          0  HIT:          0  MISS:          0
Heartbeat CPU 0 instructions: 66000002 cycles: 23363846 heartbeat IPC: 1.47235 cumulative IPC: 1.47278 (Simulation time: 0 hr 31 min 26 sec) 

Region of Interest Statistics
cpu0_DTLB TOTAL     ACCESS:    1960431  HIT:    1956507  MISS:       3924
cpu0_DTLB LOAD      ACCESS:    1577488  HIT:    1573564  MISS:       3924
cpu0_DTLB RFO       ACCESS:     382943  HIT:     382943  MISS:          0
cpu0_DTLB PREFETCH  ACCESS:          0  HIT:          0  MISS:          0
cpu0_DTLB WRITEBACK ACCESS:          0  HIT:          0  MISS:          0
cpu0_ITLB TOTAL     ACCESS:    1599652  HIT:    1599652  MISS:          0
cpu0_ITLB LOAD      ACCESS:    1599652  HIT:    1599652  MISS:          0
cpu0_ITLB RFO       ACCESS:          0  HIT:          0  MISS:          0
cpu0_ITLB PREFETCH  ACCESS:          0  HIT:          0  MISS:          0
cpu0_ITLB WRITEBACK ACCESS:          0  HIT:          0  MISS:          0
cpu0_STLB TOTAL     ACCESS:       3924  HIT:         28  MISS:       3896
cpu0_STLB LOAD      ACCESS:       3924  HIT:         28  MISS:       3896
cpu0_STLB RFO       ACCESS:          0  HIT:          0  MISS:          0
cpu0_STLB PREFETCH  ACCESS:          0  HIT:          0  MISS:          0
cpu0_STLB WRITEBACK ACCESS:          0  HIT:          0  MISS:          0
cpu0_L1D TOTAL     ACCESS:    1063645  HIT:     814232  MISS:     249413
cpu0_L1D LOAD      ACCESS:     660773  HIT:     411361  MISS:     249412
cpu0_L1D RFO       ACCESS:     398976  HIT:     398976  MISS:          0
cpu0_L1D PREFETCH  ACCESS:          0  HIT:          0  MISS:          0
cpu0_L1D WRITEBACK ACCESS:          0  HIT:          0  MISS:          0
cpu0_L2C TOTAL     ACCESS:     249413  HIT:         22  MISS:     249391
cpu0_L2C LOAD      ACCESS:     249412  HIT:         22  MISS:     249390
cpu0_L2C RFO       ACCESS:          0  HIT:          0  MISS:          0
cpu0_L2C PREFETCH  ACCESS:          0  HIT:          0  MISS:          0
cpu0_L2C WRITEBACK ACCESS:          0  HIT:          0  MISS:          0
LLC TOTAL     ACCESS:     249391  HIT:         34  MISS:     249357
LLC LOAD      ACCESS:     249390  HIT:         34  MISS:     249356
LLC RFO       ACCESS:          0  HIT:          0  MISS:          0
LLC PREFETCH  ACCESS:          0  HIT:          0  MISS:          0
LLC WRITEBACK ACCESS:          0  HIT:          0  MISS:          0
Heartbeat CPU 0 instructions: 68000003 cycles: 24721368 heartbeat IPC: 1.47327 cumulative IPC: 1.47284 (Simulation time: 0 hr 32 min 40 sec) 

Region of Interest Statistics
cpu0_DTLB TOTAL     ACCESS:    2205534  HIT:    2201119  MISS:       4415
cpu0_DTLB LOAD      ACCESS:    1774736  HIT:    1770321  MISS:       4415
cpu0_DTLB RFO       ACCESS:     430798  HIT:     430798  MISS:          0
cpu0_DTLB PREFETCH  ACCESS:          0  HIT:          0  MISS:          0
cpu0_DTLB WRITEBACK ACCESS:          0  HIT:          0  MISS:          0
cpu0_ITLB TOTAL     ACCESS:    1799614  HIT:    1799614  MISS:          0
cpu0_ITLB LOAD      ACCESS:    1799614  HIT:    1799614  MISS:          0
cpu0_ITLB RFO       ACCESS:          0  HIT:          0  MISS:          0
cpu0_ITLB PREFETCH  ACCESS:          0  HIT:          0  MISS:          0
cpu0_ITLB WRITEBACK ACCESS:          0  HIT:          0  MISS:          0
cpu0_STLB TOTAL     ACCESS:       4415  HIT:         32  MISS:       4383
cpu0_STLB LOAD      ACCESS:       4415  HIT:         32  MISS:       4383
cpu0_STLB RFO       ACCESS:          0  HIT:          0  MISS:          0
cpu0_STLB PREFETCH  ACCESS:          0  HIT:          0  MISS:          0
cpu0_STLB WRITEBACK ACCESS:          0  HIT:          0  MISS:          0
cpu0_L1D TOTAL     ACCESS:    1196603  HIT:     916012  MISS:     280591
cpu0_L1D LOAD      ACCESS:     743372  HIT:     462782  MISS:     280590
cpu0_L1D RFO       ACCESS:     448848  HIT:     448848  MISS:          0
cpu0_L1D PREFETCH  ACCESS:          0  HIT:          0  MISS:          0
cpu0_L1D WRITEBACK ACCESS:          0  HIT:          0  MISS:          0
cpu0_L2C TOTAL     ACCESS:     280591  HIT:         26  MISS:     280565
cpu0_L2C LOAD      ACCESS:     280590  HIT:         26  MISS:     280564
cpu0_L2C RFO       ACCESS:          0  HIT:          0  MISS:          0
cpu0_L2C PREFETCH  ACCESS:          0  HIT:          0  MISS:          0
cpu0_L2C WRITEBACK ACCESS:          0  HIT:          0  MISS:          0
LLC TOTAL     ACCESS:     280565  HIT:         38  MISS:     280527
LLC LOAD      ACCESS:     280564  HIT:         38  MISS:     280526
LLC RFO       ACCESS:          0  HIT:          0  MISS:          0
LLC PREFETCH  ACCESS:          0  HIT:          0  MISS:          0
LLC WRITEBACK ACCESS:          0  HIT:          0  MISS:          0
Heartbeat CPU 0 instructions: 70000003 cycles: 26079439 heartbeat IPC: 1.47268 cumulative IPC: 1.47282 (Simulation time: 0 hr 33 min 55 sec) 

Region of Interest Statistics
cpu0_DTLB TOTAL     ACCESS:    2450582  HIT:    2445677  MISS:       4905
cpu0_DTLB LOAD      ACCESS:    1971911  HIT:    1967006  MISS:       4905
cpu0_DTLB RFO       ACCESS:     478671  HIT:     478671  MISS:          0
cpu0_DTLB PREFETCH  ACCESS:          0  HIT:          0  MISS:          0
cpu0_DTLB WRITEBACK ACCESS:          0  HIT:          0  MISS:          0
cpu0_ITLB TOTAL     ACCESS:    1999575  HIT:    1999575  MISS:          0
cpu0_ITLB LOAD      ACCESS:    1999575  HIT:    1999575  MISS:          0
cpu0_ITLB RFO       ACCESS:          0  HIT:          0  MISS:          0
cpu0_ITLB PREFETCH  ACCESS:          0  HIT:          0  MISS:          0
cpu0_ITLB WRITEBACK ACCESS:          0  HIT:          0  MISS:          0
cpu0_STLB TOTAL     ACCESS:       4905  HIT:         35  MISS:       4870
cpu0_STLB LOAD      ACCESS:       4905  HIT:         35  MISS:       4870
cpu0_STLB RFO       ACCESS:          0  HIT:          0  MISS:          0
cpu0_STLB PREFETCH  ACCESS:          0  HIT:          0  MISS:          0
cpu0_STLB WRITEBACK ACCESS:          0  HIT:          0  MISS:          0
cpu0_L1D TOTAL     ACCESS:    1329560  HIT:    1017793  MISS:     311767
cpu0_L1D LOAD      ACCESS:     825970  HIT:     514204  MISS:     311766
cpu0_L1D RFO       ACCESS:     498720  HIT:     498720  MISS:          0
cpu0_L1D PREFETCH  ACCESS:          0  HIT:          0  MISS:          0
cpu0_L1D WRITEBACK ACCESS:          0  HIT:          0  MISS:          0
cpu0_L2C TOTAL     ACCESS:     311767  HIT:         29  MISS:     311738
cpu0_L2C LOAD      ACCESS:     311766  HIT:         29  MISS:     311737
cpu0_L2C RFO       ACCESS:          0  HIT:          0  MISS:          0
cpu0_L2C PREFETCH  ACCESS:          0  HIT:          0  MISS:          0
cpu0_L2C WRITEBACK ACCESS:          0  HIT:          0  MISS:          0
LLC TOTAL     ACCESS:     311738  HIT:         41  MISS:     311697
LLC LOAD      ACCESS:     311737  HIT:         41  MISS:     311696
LLC RFO       ACCESS:          0  HIT:          0  MISS:          0
LLC PREFETCH  ACCESS:          0  HIT:          0  MISS:          0
LLC WRITEBACK ACCESS:          0  HIT:          0  MISS:          0
Heartbeat CPU 0 instructions: 72000003 cycles: 27436872 heartbeat IPC: 1.47337 cumulative IPC: 1.47287 (Simulation time: 0 hr 35 min 7 sec) 

Region of Interest Statistics
cpu0_DTLB TOTAL     ACCESS:    2695687  HIT:    2690291  MISS:       5396
cpu0_DTLB LOAD      ACCESS:    2169151  HIT:    2163755  MISS:       5396
cpu0_DTLB RFO       ACCESS:     526536  HIT:     526536  MISS:          0
cpu0_DTLB PREFETCH  ACCESS:          0  HIT:          0  MISS:          0
cpu0_DTLB WRITEBACK ACCESS:          0  HIT:          0  MISS:          0
cpu0_ITLB TOTAL     ACCESS:    2199531  HIT:    2199531  MISS:          0
cpu0_ITLB LOAD      ACCESS:    2199531  HIT:    2199531  MISS:          0
cpu0_ITLB RFO       ACCESS:          0  HIT:          0  MISS:          0
cpu0_ITLB PREFETCH  ACCESS:          0  HIT:          0  MISS:          0
cpu0_ITLB WRITEBACK ACCESS:          0  HIT:          0  MISS:          0
cpu0_STLB TOTAL     ACCESS:       5396  HIT:         39  MISS:       5357
cpu0_STLB LOAD      ACCESS:       5396  HIT:         39  MISS:       5357
cpu0_STLB RFO       ACCESS:          0  HIT:          0  MISS:          0
cpu0_STLB PREFETCH  ACCESS:          0  HIT:          0  MISS:          0
cpu0_STLB WRITEBACK ACCESS:          0  HIT:          0  MISS:          0
cpu0_L1D TOTAL     ACCESS:    1462514  HIT:    1119569  MISS:     342945
cpu0_L1D LOAD      ACCESS:     908565  HIT:     565621  MISS:     342944
cpu0_L1D RFO       ACCESS:     548592  HIT:     548592  MISS:          0
cpu0_L1D PREFETCH  ACCESS:          0  HIT:          0  MISS:          0
cpu0_L1D WRITEBACK ACCESS:          0  HIT:          0  MISS:          0
cpu0_L2C TOTAL     ACCESS:     342945  HIT:         29  MISS:     342916
cpu0_L2C LOAD      ACCESS:     342944  HIT:         29  MISS:     342915
cpu0_L2C RFO       ACCESS:          0  HIT:          0  MISS:          0
cpu0_L2C PREFETCH  ACCESS:          0  HIT:          0  MISS:          0
cpu0_L2C WRITEBACK ACCESS:          0  HIT:          0  MISS:          0
LLC TOTAL     ACCESS:     342916  HIT:         49  MISS:     342867
LLC LOAD      ACCESS:     342915  HIT:         49  MISS:     342866
LLC RFO       ACCESS:          0  HIT:          0  MISS:          0
LLC PREFETCH  ACCESS:          0  HIT:          0  MISS:          0
LLC WRITEBACK ACCESS:          0  HIT:          0  MISS:          0
Heartbeat CPU 0 instructions: 74000003 cycles: 28795361 heartbeat IPC: 1.47222 cumulative IPC: 1.47282 (Simulation time: 0 hr 36 min 22 sec) 

Region of Interest Statistics
cpu0_DTLB TOTAL     ACCESS:    2940715  HIT:    2934829  MISS:       5886
cpu0_DTLB LOAD      ACCESS:    2366285  HIT:    2360399  MISS:       5886
cpu0_DTLB RFO       ACCESS:     574430  HIT:     574430  MISS:          0
cpu0_DTLB PREFETCH  ACCESS:          0  HIT:          0  MISS:          0
cpu0_DTLB WRITEBACK ACCESS:          0  HIT:          0  MISS:          0
cpu0_ITLB TOTAL     ACCESS:    2399493  HIT:    2399493  MISS:          0
cpu0_ITLB LOAD      ACCESS:    2399493  HIT:    2399493  MISS:          0
cpu0_ITLB RFO       ACCESS:          0  HIT:          0  MISS:          0
cpu0_ITLB PREFETCH  ACCESS:          0  HIT:          0  MISS:          0
cpu0_ITLB WRITEBACK ACCESS:          0  HIT:          0  MISS:          0
cpu0_STLB TOTAL     ACCESS:       5886  HIT:         42  MISS:       5844
cpu0_STLB LOAD      ACCESS:       5886  HIT:         42  MISS:       5844
cpu0_STLB RFO       ACCESS:          0  HIT:          0  MISS:          0
cpu0_STLB PREFETCH  ACCESS:          0  HIT:          0  MISS:          0
cpu0_STLB WRITEBACK ACCESS:          0  HIT:          0  MISS:          0
cpu0_L1D TOTAL     ACCESS:    1595468  HIT:    1221346  MISS:     374122
cpu0_L1D LOAD      ACCESS:     991160  HIT:     617040  MISS:     374120
cpu0_L1D RFO       ACCESS:     598464  HIT:     598464  MISS:          0
cpu0_L1D PREFETCH  ACCESS:          0  HIT:          0  MISS:          0
cpu0_L1D WRITEBACK ACCESS:          0  HIT:          0  MISS:          0
cpu0_L2C TOTAL     ACCESS:     374122  HIT:         32  MISS:     374090
cpu0_L2C LOAD      ACCESS:     374120  HIT:         32  MISS:     374088
cpu0_L2C RFO       ACCESS:          0  HIT:          0  MISS:          0
cpu0_L2C PREFETCH  ACCESS:          0  HIT:          0  MISS:          0
cpu0_L2C WRITEBACK ACCESS:          0  HIT:          0  MISS:          0
LLC TOTAL     ACCESS:     374090  HIT:         52  MISS:     374038
LLC LOAD      ACCESS:     374088  HIT:         52  MISS:     374036
LLC RFO       ACCESS:          0  HIT:          0  MISS:          0
LLC PREFETCH  ACCESS:          0  HIT:          0  MISS:          0
LLC WRITEBACK ACCESS:          0  HIT:          0  MISS:          0
Heartbeat CPU 0 instructions: 76000004 cycles: 30153962 heartbeat IPC: 1.4721 cumulative IPC: 1.47276 (Simulation time: 0 hr 37 min 34 sec) 

Region of Interest Statistics
cpu0_DTLB TOTAL     ACCESS:    3185707  HIT:    3179330  MISS:       6377
cpu0_DTLB LOAD      ACCESS:    2563382  HIT:    2557005  MISS:       6377
cpu0_DTLB RFO       ACCESS:     622325  HIT:     622325  MISS:          0
cpu0_DTLB PREFETCH  ACCESS:          0  HIT:          0  MISS:          0
cpu0_DTLB WRITEBACK ACCESS:          0  HIT:          0  MISS:          0
cpu0_ITLB TOTAL     ACCESS:    2599455  HIT:    2599455  MISS:          0
cpu0_ITLB LOAD      ACCESS:    2599455  HIT:    2599455  MISS:          0
cpu0_ITLB RFO       ACCESS:          0  HIT:          0  MISS:          0
cpu0_ITLB PREFETCH  ACCESS:          0  HIT:          0  MISS:          0
cpu0_ITLB WRITEBACK ACCESS:          0  HIT:          0  MISS:          0
cpu0_STLB TOTAL     ACCESS:       6377  HIT:         46  MISS:       6331
cpu0_STLB LOAD      ACCESS:       6377  HIT:         46  MISS:       6331
cpu0_STLB RFO       ACCESS:          0  HIT:          0  MISS:          0
cpu0_STLB PREFETCH  ACCESS:          0  HIT:          0  MISS:          0
cpu0_STLB WRITEBACK ACCESS:          0  HIT:          0  MISS:          0
cpu0_L1D TOTAL     ACCESS:    1728432  HIT:    1323132  MISS:     405300
cpu0_L1D LOAD      ACCESS:    1073765  HIT:     668467  MISS:     405298
cpu0_L1D RFO       ACCESS:     648336  HIT:     648336  MISS:          0
cpu0_L1D PREFETCH  ACCESS:          0  HIT:          0  MISS:          0
cpu0_L1D WRITEBACK ACCESS:          0  HIT:          0  MISS:          0
cpu0_L2C TOTAL     ACCESS:     405300  HIT:         35  MISS:     405265
cpu0_L2C LOAD      ACCESS:     405298  HIT:         35  MISS:     405263
cpu0_L2C RFO       ACCESS:          0  HIT:          0  MISS:          0
cpu0_L2C PREFETCH  ACCESS:          0  HIT:          0  MISS:          0
cpu0_L2C WRITEBACK ACCESS:          0  HIT:          0  MISS:          0
LLC TOTAL     ACCESS:     405265  HIT:         57  MISS:     405208
LLC LOAD      ACCESS:     405263  HIT:         57  MISS:     405206
LLC RFO       ACCESS:          0  HIT:          0  MISS:          0
LLC PREFETCH  ACCESS:          0  HIT:          0  MISS:          0
LLC WRITEBACK ACCESS:          0  HIT:          0  MISS:          0
Heartbeat CPU 0 instructions: 78000004 cycles: 31510808 heartbeat IPC: 1.47401 cumulative IPC: 1.47285 (Simulation time: 0 hr 38 min 47 sec) 

Region of Interest Statistics
cpu0_DTLB TOTAL     ACCESS:    3430881  HIT:    3424014  MISS:       6867
cpu0_DTLB LOAD      ACCESS:    2760718  HIT:    2753851  MISS:       6867
cpu0_DTLB RFO       ACCESS:     670163  HIT:     670163  MISS:          0
cpu0_DTLB PREFETCH  ACCESS:          0  HIT:          0  MISS:          0
cpu0_DTLB WRITEBACK ACCESS:          0  HIT:          0  MISS:          0
cpu0_ITLB TOTAL     ACCESS:    2799414  HIT:    2799414  MISS:          0
cpu0_ITLB LOAD      ACCESS:    2799414  HIT:    2799414  MISS:          0
cpu0_ITLB RFO       ACCESS:          0  HIT:          0  MISS:          0
cpu0_ITLB PREFETCH  ACCESS:          0  HIT:          0  MISS:          0
cpu0_ITLB WRITEBACK ACCESS:          0  HIT:          0  MISS:          0
cpu0_STLB TOTAL     ACCESS:       6867  HIT:         49  MISS:       6818
cpu0_STLB LOAD      ACCESS:       6867  HIT:         49  MISS:       6818
cpu0_STLB RFO       ACCESS:          0  HIT:          0  MISS:          0
cpu0_STLB PREFETCH  ACCESS:          0  HIT:          0  MISS:          0
cpu0_STLB WRITEBACK ACCESS:          0  HIT:          0  MISS:          0
cpu0_L1D TOTAL     ACCESS:    1861383  HIT:    1424907  MISS:     436476
cpu0_L1D LOAD      ACCESS:    1156357  HIT:     719883  MISS:     436474
cpu0_L1D RFO       ACCESS:     698208  HIT:     698208  MISS:          0
cpu0_L1D PREFETCH  ACCESS:          0  HIT:          0  MISS:          0
cpu0_L1D WRITEBACK ACCESS:          0  HIT:          0  MISS:          0
cpu0_L2C TOTAL     ACCESS:     436476  HIT:         36  MISS:     436440
cpu0_L2C LOAD      ACCESS:     436474  HIT:         36  MISS:     436438
cpu0_L2C RFO       ACCESS:          0  HIT:          0  MISS:          0
cpu0_L2C PREFETCH  ACCESS:          0  HIT:          0  MISS:          0
cpu0_L2C WRITEBACK ACCESS:          0  HIT:          0  MISS:          0
LLC TOTAL     ACCESS:     436440  HIT:         62  MISS:     436378
LLC LOAD      ACCESS:     436438  HIT:         62  MISS:     436376
LLC RFO       ACCESS:          0  HIT:          0  MISS:          0
LLC PREFETCH  ACCESS:          0  HIT:          0  MISS:          0
LLC WRITEBACK ACCESS:          0  HIT:          0  MISS:          0
Heartbeat CPU 0 instructions: 80000000 cycles: 32868188 heartbeat IPC: 1.47342 cumulative IPC: 1.47289 (Simulation time: 0 hr 40 min 0 sec) 

Region of Interest Statistics
cpu0_DTLB TOTAL     ACCESS:    3676031  HIT:    3668673  MISS:       7358
cpu0_DTLB LOAD      ACCESS:    2958023  HIT:    2950665  MISS:       7358
cpu0_DTLB RFO       ACCESS:     718008  HIT:     718008  MISS:          0
cpu0_DTLB PREFETCH  ACCESS:          0  HIT:          0  MISS:          0
cpu0_DTLB WRITEBACK ACCESS:          0  HIT:          0  MISS:          0
cpu0_ITLB TOTAL     ACCESS:    2999376  HIT:    2999376  MISS:          0
cpu0_ITLB LOAD      ACCESS:    2999376  HIT:    2999376  MISS:          0
cpu0_ITLB RFO       ACCESS:          0  HIT:          0  MISS:          0
cpu0_ITLB PREFETCH  ACCESS:          0  HIT:          0  MISS:          0
cpu0_ITLB WRITEBACK ACCESS:          0  HIT:          0  MISS:          0
cpu0_STLB TOTAL     ACCESS:       7358  HIT:         53  MISS:       7305
cpu0_STLB LOAD      ACCESS:       7358  HIT:         53  MISS:       7305
cpu0_STLB RFO       ACCESS:          0  HIT:          0  MISS:          0
cpu0_STLB PREFETCH  ACCESS:          0  HIT:          0  MISS:          0
cpu0_STLB WRITEBACK ACCESS:          0  HIT:          0  MISS:          0
cpu0_L1D TOTAL     ACCESS:    1994343  HIT:    1526689  MISS:     467654
cpu0_L1D LOAD      ACCESS:    1238958  HIT:     771306  MISS:     467652
cpu0_L1D RFO       ACCESS:     748080  HIT:     748080  MISS:          0
cpu0_L1D PREFETCH  ACCESS:          0  HIT:          0  MISS:          0
cpu0_L1D WRITEBACK ACCESS:          0  HIT:          0  MISS:          0
cpu0_L2C TOTAL     ACCESS:     467654  HIT:         39  MISS:     467615
cpu0_L2C LOAD      ACCESS:     467652  HIT:         39  MISS:     467613
cpu0_L2C RFO       ACCESS:          0  HIT:          0  MISS:          0
cpu0_L2C PREFETCH  ACCESS:          0  HIT:          0  MISS:          0
cpu0_L2C WRITEBACK ACCESS:          0  HIT:          0  MISS:          0
LLC TOTAL     ACCESS:     467615  HIT:         67  MISS:     467548
LLC LOAD      ACCESS:     467613  HIT:         67  MISS:     467546
LLC RFO       ACCESS:          0  HIT:          0  MISS:          0
LLC PREFETCH  ACCESS:          0  HIT:          0  MISS:          0
LLC WRITEBACK ACCESS:          0  HIT:          0  MISS:          0
Heartbeat CPU 0 instructions: 82000002 cycles: 34225998 heartbeat IPC: 1.47296 cumulative IPC: 1.47289 (Simulation time: 0 hr 41 min 12 sec) 

Region of Interest Statistics
cpu0_DTLB TOTAL     ACCESS:    3921092  HIT:    3913244  MISS:       7848
cpu0_DTLB LOAD      ACCESS:    3155223  HIT:    3147375  MISS:       7848
cpu0_DTLB RFO       ACCESS:     765869  HIT:     765869  MISS:          0
cpu0_DTLB PREFETCH  ACCESS:          0  HIT:          0  MISS:          0
cpu0_DTLB WRITEBACK ACCESS:          0  HIT:          0  MISS:          0
cpu0_ITLB TOTAL     ACCESS:    3199336  HIT:    3199336  MISS:          0
cpu0_ITLB LOAD      ACCESS:    3199336  HIT:    3199336  MISS:          0
cpu0_ITLB RFO       ACCESS:          0  HIT:          0  MISS:          0
cpu0_ITLB PREFETCH  ACCESS:          0  HIT:          0  MISS:          0
cpu0_ITLB WRITEBACK ACCESS:          0  HIT:          0  MISS:          0
cpu0_STLB TOTAL     ACCESS:       7848  HIT:         56  MISS:       7792
cpu0_STLB LOAD      ACCESS:       7848  HIT:         56  MISS:       7792
cpu0_STLB RFO       ACCESS:          0  HIT:          0  MISS:          0
cpu0_STLB PREFETCH  ACCESS:          0  HIT:          0  MISS:          0
cpu0_STLB WRITEBACK ACCESS:          0  HIT:          0  MISS:          0
cpu0_L1D TOTAL     ACCESS:    2127296  HIT:    1628466  MISS:     498830
cpu0_L1D LOAD      ACCESS:    1321552  HIT:     822724  MISS:     498828
cpu0_L1D RFO       ACCESS:     797952  HIT:     797952  MISS:          0
cpu0_L1D PREFETCH  ACCESS:          0  HIT:          0  MISS:          0
cpu0_L1D WRITEBACK ACCESS:          0  HIT:          0  MISS:          0
cpu0_L2C TOTAL     ACCESS:     498830  HIT:         39  MISS:     498791
cpu0_L2C LOAD      ACCESS:     498828  HIT:         39  MISS:     498789
cpu0_L2C RFO       ACCESS:          0  HIT:          0  MISS:          0
cpu0_L2C PREFETCH  ACCESS:          0  HIT:          0  MISS:          0
cpu0_L2C WRITEBACK ACCESS:          0  HIT:          0  MISS:          0
LLC TOTAL     ACCESS:     498791  HIT:         73  MISS:     498718
LLC LOAD      ACCESS:     498789  HIT:         73  MISS:     498716
LLC RFO       ACCESS:          0  HIT:          0  MISS:          0
LLC PREFETCH  ACCESS:          0  HIT:          0  MISS:          0
LLC WRITEBACK ACCESS:          0  HIT:          0  MISS:          0
Heartbeat CPU 0 instructions: 84000000 cycles: 35583723 heartbeat IPC: 1.47305 cumulative IPC: 1.4729 (Simulation time: 0 hr 42 min 24 sec) 

Region of Interest Statistics
cpu0_DTLB TOTAL     ACCESS:    4166165  HIT:    4157826  MISS:       8339
cpu0_DTLB LOAD      ACCESS:    3352438  HIT:    3344099  MISS:       8339
cpu0_DTLB RFO       ACCESS:     813727  HIT:     813727  MISS:          0
cpu0_DTLB PREFETCH  ACCESS:          0  HIT:          0  MISS:          0
cpu0_DTLB WRITEBACK ACCESS:          0  HIT:          0  MISS:          0
cpu0_ITLB TOTAL     ACCESS:    3399296  HIT:    3399296  MISS:          0
cpu0_ITLB LOAD      ACCESS:    3399296  HIT:    3399296  MISS:          0
cpu0_ITLB RFO       ACCESS:          0  HIT:          0  MISS:          0
cpu0_ITLB PREFETCH  ACCESS:          0  HIT:          0  MISS:          0
cpu0_ITLB WRITEBACK ACCESS:          0  HIT:          0  MISS:          0
cpu0_STLB TOTAL     ACCESS:       8339  HIT:         60  MISS:       8279
cpu0_STLB LOAD      ACCESS:       8339  HIT:         60  MISS:       8279
cpu0_STLB RFO       ACCESS:          0  HIT:          0  MISS:          0
cpu0_STLB PREFETCH  ACCESS:          0  HIT:          0  MISS:          0
cpu0_STLB WRITEBACK ACCESS:          0  HIT:          0  MISS:          0
cpu0_L1D TOTAL     ACCESS:    2260251  HIT:    1730243  MISS:     530008
cpu0_L1D LOAD      ACCESS:    1404148  HIT:     874142  MISS:     530006
cpu0_L1D RFO       ACCESS:     847824  HIT:     847824  MISS:          0
cpu0_L1D PREFETCH  ACCESS:          0  HIT:          0  MISS:          0
cpu0_L1D WRITEBACK ACCESS:          0  HIT:          0  MISS:          0
cpu0_L2C TOTAL     ACCESS:     530008  HIT:         44  MISS:     529964
cpu0_L2C LOAD      ACCESS:     530006  HIT:         44  MISS:     529962
cpu0_L2C RFO       ACCESS:          0  HIT:          0  MISS:          0
cpu0_L2C PREFETCH  ACCESS:          0  HIT:          0  MISS:          0
cpu0_L2C WRITEBACK ACCESS:          0  HIT:          0  MISS:          0
LLC TOTAL     ACCESS:     529964  HIT:         76  MISS:     529888
LLC LOAD      ACCESS:     529962  HIT:         76  MISS:     529886
LLC RFO       ACCESS:          0  HIT:          0  MISS:          0
LLC PREFETCH  ACCESS:          0  HIT:          0  MISS:          0
LLC WRITEBACK ACCESS:          0  HIT:          0  MISS:          0
Heartbeat CPU 0 instructions: 86000000 cycles: 36942699 heartbeat IPC: 1.4717 cumulative IPC: 1.47284 (Simulation time: 0 hr 43 min 37 sec) 

Region of Interest Statistics
cpu0_DTLB TOTAL     ACCESS:    4411099  HIT:    4402270  MISS:       8829
cpu0_DTLB LOAD      ACCESS:    3549474  HIT:    3540645  MISS:       8829
cpu0_DTLB RFO       ACCESS:     861625  HIT:     861625  MISS:          0
cpu0_DTLB PREFETCH  ACCESS:          0  HIT:          0  MISS:          0
cpu0_DTLB WRITEBACK ACCESS:          0  HIT:          0  MISS:          0
cpu0_ITLB TOTAL     ACCESS:    3599256  HIT:    3599256  MISS:          0
cpu0_ITLB LOAD      ACCESS:    3599256  HIT:    3599256  MISS:          0
cpu0_ITLB RFO       ACCESS:          0  HIT:          0  MISS:          0
cpu0_ITLB PREFETCH  ACCESS:          0  HIT:          0  MISS:          0
cpu0_ITLB WRITEBACK ACCESS:          0  HIT:          0  MISS:          0
cpu0_STLB TOTAL     ACCESS:       8829  HIT:         63  MISS:       8766
cpu0_STLB LOAD      ACCESS:       8829  HIT:         63  MISS:       8766
cpu0_STLB RFO       ACCESS:          0  HIT:          0  MISS:          0
cpu0_STLB PREFETCH  ACCESS:          0  HIT:          0  MISS:          0
cpu0_STLB WRITEBACK ACCESS:          0  HIT:          0  MISS:          0
cpu0_L1D TOTAL     ACCESS:    2393211  HIT:    1832027  MISS:     561184
cpu0_L1D LOAD      ACCESS:    1486749  HIT:     925567  MISS:     561182
cpu0_L1D RFO       ACCESS:     897696  HIT:     897696  MISS:          0
cpu0_L1D PREFETCH  ACCESS:          0  HIT:          0  MISS:          0
cpu0_L1D WRITEBACK ACCESS:          0  HIT:          0  MISS:          0
cpu0_L2C TOTAL     ACCESS:     561184  HIT:         45  MISS:     561139
cpu0_L2C LOAD      ACCESS:     561182  HIT:         45  MISS:     561137
cpu0_L2C RFO       ACCESS:          0  HIT:          0  MISS:          0
cpu0_L2C PREFETCH  ACCESS:          0  HIT:          0  MISS:          0
cpu0_L2C WRITEBACK ACCESS:          0  HIT:          0  MISS:          0
LLC TOTAL     ACCESS:     561139  HIT:         81  MISS:     561058
LLC LOAD      ACCESS:     561137  HIT:         81  MISS:     561056
LLC RFO       ACCESS:          0  HIT:          0  MISS:          0
LLC PREFETCH  ACCESS:          0  HIT:          0  MISS:          0
LLC WRITEBACK ACCESS:          0  HIT:          0  MISS:          0
Heartbeat CPU 0 instructions: 88000001 cycles: 38299863 heartbeat IPC: 1.47366 cumulative IPC: 1.47288 (Simulation time: 0 hr 44 min 51 sec) 

Region of Interest Statistics
cpu0_DTLB TOTAL     ACCESS:    4656237  HIT:    4646917  MISS:       9320
cpu0_DTLB LOAD      ACCESS:    3746764  HIT:    3737444  MISS:       9320
cpu0_DTLB RFO       ACCESS:     909473  HIT:     909473  MISS:          0
cpu0_DTLB PREFETCH  ACCESS:          0  HIT:          0  MISS:          0
cpu0_DTLB WRITEBACK ACCESS:          0  HIT:          0  MISS:          0
cpu0_ITLB TOTAL     ACCESS:    3799217  HIT:    3799217  MISS:          0
cpu0_ITLB LOAD      ACCESS:    3799217  HIT:    3799217  MISS:          0
cpu0_ITLB RFO       ACCESS:          0  HIT:          0  MISS:          0
cpu0_ITLB PREFETCH  ACCESS:          0  HIT:          0  MISS:          0
cpu0_ITLB WRITEBACK ACCESS:          0  HIT:          0  MISS:          0
cpu0_STLB TOTAL     ACCESS:       9320  HIT:         67  MISS:       9253
cpu0_STLB LOAD      ACCESS:       9320  HIT:         67  MISS:       9253
cpu0_STLB RFO       ACCESS:          0  HIT:          0  MISS:          0
cpu0_STLB PREFETCH  ACCESS:          0  HIT:          0  MISS:          0
cpu0_STLB WRITEBACK ACCESS:          0  HIT:          0  MISS:          0
cpu0_L1D TOTAL     ACCESS:    2526172  HIT:    1933810  MISS:     592362
cpu0_L1D LOAD      ACCESS:    1569350  HIT:     976990  MISS:     592360
cpu0_L1D RFO       ACCESS:     947568  HIT:     947568  MISS:          0
cpu0_L1D PREFETCH  ACCESS:          0  HIT:          0  MISS:          0
cpu0_L1D WRITEBACK ACCESS:          0  HIT:          0  MISS:          0
cpu0_L2C TOTAL     ACCESS:     592362  HIT:         46  MISS:     592316
cpu0_L2C LOAD      ACCESS:     592360  HIT:         46  MISS:     592314
cpu0_L2C RFO       ACCESS:          0  HIT:          0  MISS:          0
cpu0_L2C PREFETCH  ACCESS:          0  HIT:          0  MISS:          0
cpu0_L2C WRITEBACK ACCESS:          0  HIT:          0  MISS:          0
LLC TOTAL     ACCESS:     592316  HIT:         88  MISS:     592228
LLC LOAD      ACCESS:     592314  HIT:         88  MISS:     592226
LLC RFO       ACCESS:          0  HIT:          0  MISS:          0
LLC PREFETCH  ACCESS:          0  HIT:          0  MISS:          0
LLC WRITEBACK ACCESS:          0  HIT:          0  MISS:          0
Heartbeat CPU 0 instructions: 90000003 cycles: 39658625 heartbeat IPC: 1.47193 cumulative IPC: 1.47283 (Simulation time: 0 hr 46 min 3 sec) 

Region of Interest Statistics
cpu0_DTLB TOTAL     ACCESS:    4901242  HIT:    4891431  MISS:       9811
cpu0_DTLB LOAD      ACCESS:    3943890  HIT:    3934079  MISS:       9811
cpu0_DTLB RFO       ACCESS:     957352  HIT:     957352  MISS:          0
cpu0_DTLB PREFETCH  ACCESS:          0  HIT:          0  MISS:          0
cpu0_DTLB WRITEBACK ACCESS:          0  HIT:          0  MISS:          0
cpu0_ITLB TOTAL     ACCESS:    3999193  HIT:    3999193  MISS:          0
cpu0_ITLB LOAD      ACCESS:    3999193  HIT:    3999193  MISS:          0
cpu0_ITLB RFO       ACCESS:          0  HIT:          0  MISS:          0
cpu0_ITLB PREFETCH  ACCESS:          0  HIT:          0  MISS:          0
cpu0_ITLB WRITEBACK ACCESS:          0  HIT:          0  MISS:          0
cpu0_STLB TOTAL     ACCESS:       9811  HIT:         70  MISS:       9741
cpu0_STLB LOAD      ACCESS:       9811  HIT:         70  MISS:       9741
cpu0_STLB RFO       ACCESS:          0  HIT:          0  MISS:          0
cpu0_STLB PREFETCH  ACCESS:          0  HIT:          0  MISS:          0
cpu0_STLB WRITEBACK ACCESS:          0  HIT:          0  MISS:          0
cpu0_L1D TOTAL     ACCESS:    2659132  HIT:    2035592  MISS:     623540
cpu0_L1D LOAD      ACCESS:    1651951  HIT:    1028414  MISS:     623537
cpu0_L1D RFO       ACCESS:     997440  HIT:     997440  MISS:          0
cpu0_L1D PREFETCH  ACCESS:          0  HIT:          0  MISS:          0
cpu0_L1D WRITEBACK ACCESS:          0  HIT:          0  MISS:          0
cpu0_L2C TOTAL     ACCESS:     623540  HIT:         49  MISS:     623491
cpu0_L2C LOAD      ACCESS:     623537  HIT:         49  MISS:     623488
cpu0_L2C RFO       ACCESS:          0  HIT:          0  MISS:          0
cpu0_L2C PREFETCH  ACCESS:          0  HIT:          0  MISS:          0
cpu0_L2C WRITEBACK ACCESS:          0  HIT:          0  MISS:          0
LLC TOTAL     ACCESS:     623491  HIT:         91  MISS:     623400
LLC LOAD      ACCESS:     623488  HIT:         91  MISS:     623397
LLC RFO       ACCESS:          0  HIT:          0  MISS:          0
LLC PREFETCH  ACCESS:          0  HIT:          0  MISS:          0
LLC WRITEBACK ACCESS:          0  HIT:          0  MISS:          0
Heartbeat CPU 0 instructions: 92000004 cycles: 41016451 heartbeat IPC: 1.47294 cumulative IPC: 1.47284 (Simulation time: 0 hr 47 min 15 sec) 

Region of Interest Statistics
cpu0_DTLB TOTAL     ACCESS:    5146315  HIT:    5136013  MISS:      10302
cpu0_DTLB LOAD      ACCESS:    4141101  HIT:    4130799  MISS:      10302
cpu0_DTLB RFO       ACCESS:    1005214  HIT:    1005214  MISS:          0
cpu0_DTLB PREFETCH  ACCESS:          0  HIT:          0  MISS:          0
cpu0_DTLB WRITEBACK ACCESS:          0  HIT:          0  MISS:          0
cpu0_ITLB TOTAL     ACCESS:    4199144  HIT:    4199144  MISS:          0
cpu0_ITLB LOAD      ACCESS:    4199144  HIT:    4199144  MISS:          0
cpu0_ITLB RFO       ACCESS:          0  HIT:          0  MISS:          0
cpu0_ITLB PREFETCH  ACCESS:          0  HIT:          0  MISS:          0
cpu0_ITLB WRITEBACK ACCESS:          0  HIT:          0  MISS:          0
cpu0_STLB TOTAL     ACCESS:      10302  HIT:         74  MISS:      10228
cpu0_STLB LOAD      ACCESS:      10302  HIT:         74  MISS:      10228
cpu0_STLB RFO       ACCESS:          0  HIT:          0  MISS:          0
cpu0_STLB PREFETCH  ACCESS:          0  HIT:          0  MISS:          0
cpu0_STLB WRITEBACK ACCESS:          0  HIT:          0  MISS:          0
cpu0_L1D TOTAL     ACCESS:    2792086  HIT:    2137366  MISS:     654720
cpu0_L1D LOAD      ACCESS:    1734546  HIT:    1079829  MISS:     654717
cpu0_L1D RFO       ACCESS:    1047312  HIT:    1047312  MISS:          0
cpu0_L1D PREFETCH  ACCESS:          0  HIT:          0  MISS:          0
cpu0_L1D WRITEBACK ACCESS:          0  HIT:          0  MISS:          0
cpu0_L2C TOTAL     ACCESS:     654720  HIT:         51  MISS:     654669
cpu0_L2C LOAD      ACCESS:     654717  HIT:         51  MISS:     654666
cpu0_L2C RFO       ACCESS:          0  HIT:          0  MISS:          0
cpu0_L2C PREFETCH  ACCESS:          0  HIT:          0  MISS:          0
cpu0_L2C WRITEBACK ACCESS:          0  HIT:          0  MISS:          0
LLC TOTAL     ACCESS:     654669  HIT:         97  MISS:     654572
LLC LOAD      ACCESS:     654666  HIT:         97  MISS:     654569
LLC RFO       ACCESS:          0  HIT:          0  MISS:          0
LLC PREFETCH  ACCESS:          0  HIT:          0  MISS:          0
LLC WRITEBACK ACCESS:          0  HIT:          0  MISS:          0
Heartbeat CPU 0 instructions: 94000004 cycles: 42373927 heartbeat IPC: 1.47332 cumulative IPC: 1.47286 (Simulation time: 0 hr 48 min 27 sec) 

Region of Interest Statistics
cpu0_DTLB TOTAL     ACCESS:    5391400  HIT:    5380608  MISS:      10792
cpu0_DTLB LOAD      ACCESS:    4338326  HIT:    4327534  MISS:      10792
cpu0_DTLB RFO       ACCESS:    1053074  HIT:    1053074  MISS:          0
cpu0_DTLB PREFETCH  ACCESS:          0  HIT:          0  MISS:          0
cpu0_DTLB WRITEBACK ACCESS:          0  HIT:          0  MISS:          0
cpu0_ITLB TOTAL     ACCESS:    4399096  HIT:    4399096  MISS:          0
cpu0_ITLB LOAD      ACCESS:    4399096  HIT:    4399096  MISS:          0
cpu0_ITLB RFO       ACCESS:          0  HIT:          0  MISS:          0
cpu0_ITLB PREFETCH  ACCESS:          0  HIT:          0  MISS:          0
cpu0_ITLB WRITEBACK ACCESS:          0  HIT:          0  MISS:          0
cpu0_STLB TOTAL     ACCESS:      10792  HIT:         77  MISS:      10715
cpu0_STLB LOAD      ACCESS:      10792  HIT:         77  MISS:      10715
cpu0_STLB RFO       ACCESS:          0  HIT:          0  MISS:          0
cpu0_STLB PREFETCH  ACCESS:          0  HIT:          0  MISS:          0
cpu0_STLB WRITEBACK ACCESS:          0  HIT:          0  MISS:          0
cpu0_L1D TOTAL     ACCESS:    2925037  HIT:    2239143  MISS:     685894
cpu0_L1D LOAD      ACCESS:    1817138  HIT:    1131247  MISS:     685891
cpu0_L1D RFO       ACCESS:    1097184  HIT:    1097184  MISS:          0
cpu0_L1D PREFETCH  ACCESS:          0  HIT:          0  MISS:          0
cpu0_L1D WRITEBACK ACCESS:          0  HIT:          0  MISS:          0
cpu0_L2C TOTAL     ACCESS:     685894  HIT:         52  MISS:     685842
cpu0_L2C LOAD      ACCESS:     685891  HIT:         52  MISS:     685839
cpu0_L2C RFO       ACCESS:          0  HIT:          0  MISS:          0
cpu0_L2C PREFETCH  ACCESS:          0  HIT:          0  MISS:          0
cpu0_L2C WRITEBACK ACCESS:          0  HIT:          0  MISS:          0
LLC TOTAL     ACCESS:     685842  HIT:        102  MISS:     685740
LLC LOAD      ACCESS:     685839  HIT:        102  MISS:     685737
LLC RFO       ACCESS:          0  HIT:          0  MISS:          0
LLC PREFETCH  ACCESS:          0  HIT:          0  MISS:          0
LLC WRITEBACK ACCESS:          0  HIT:          0  MISS:          0
Heartbeat CPU 0 instructions: 96000000 cycles: 43732500 heartbeat IPC: 1.47213 cumulative IPC: 1.47283 (Simulation time: 0 hr 49 min 39 sec) 

Region of Interest Statistics
cpu0_DTLB TOTAL     ACCESS:    5636426  HIT:    5625143  MISS:      11283
cpu0_DTLB LOAD      ACCESS:    4535470  HIT:    4524187  MISS:      11283
cpu0_DTLB RFO       ACCESS:    1100956  HIT:    1100956  MISS:          0
cpu0_DTLB PREFETCH  ACCESS:          0  HIT:          0  MISS:          0
cpu0_DTLB WRITEBACK ACCESS:          0  HIT:          0  MISS:          0
cpu0_ITLB TOTAL     ACCESS:    4599076  HIT:    4599076  MISS:          0
cpu0_ITLB LOAD      ACCESS:    4599076  HIT:    4599076  MISS:          0
cpu0_ITLB RFO       ACCESS:          0  HIT:          0  MISS:          0
cpu0_ITLB PREFETCH  ACCESS:          0  HIT:          0  MISS:          0
cpu0_ITLB WRITEBACK ACCESS:          0  HIT:          0  MISS:          0
cpu0_STLB TOTAL     ACCESS:      11283  HIT:         81  MISS:      11202
cpu0_STLB LOAD      ACCESS:      11283  HIT:         81  MISS:      11202
cpu0_STLB RFO       ACCESS:          0  HIT:          0  MISS:          0
cpu0_STLB PREFETCH  ACCESS:          0  HIT:          0  MISS:          0
cpu0_STLB WRITEBACK ACCESS:          0  HIT:          0  MISS:          0
cpu0_L1D TOTAL     ACCESS:    3058001  HIT:    2340928  MISS:     717073
cpu0_L1D LOAD      ACCESS:    1899743  HIT:    1182673  MISS:     717070
cpu0_L1D RFO       ACCESS:    1147056  HIT:    1147056  MISS:          0
cpu0_L1D PREFETCH  ACCESS:          0  HIT:          0  MISS:          0
cpu0_L1D WRITEBACK ACCESS:          0  HIT:          0  MISS:          0
cpu0_L2C TOTAL     ACCESS:     717073  HIT:         54  MISS:     717019
cpu0_L2C LOAD      ACCESS:     717070  HIT:         54  MISS:     717016
cpu0_L2C RFO       ACCESS:          0  HIT:          0  MISS:          0
cpu0_L2C PREFETCH  ACCESS:          0  HIT:          0  MISS:          0
cpu0_L2C WRITEBACK ACCESS:          0  HIT:          0  MISS:          0
LLC TOTAL     ACCESS:     717019  HIT:        108  MISS:     716911
LLC LOAD      ACCESS:     717016  HIT:        108  MISS:     716908
LLC RFO       ACCESS:          0  HIT:          0  MISS:          0
LLC PREFETCH  ACCESS:          0  HIT:          0  MISS:          0
LLC WRITEBACK ACCESS:          0  HIT:          0  MISS:          0
Heartbeat CPU 0 instructions: 98000000 cycles: 45089852 heartbeat IPC: 1.47346 cumulative IPC: 1.47285 (Simulation time: 0 hr 50 min 51 sec) 

Region of Interest Statistics
cpu0_DTLB TOTAL     ACCESS:    5881550  HIT:    5869777  MISS:      11773
cpu0_DTLB LOAD      ACCESS:    4732742  HIT:    4720969  MISS:      11773
cpu0_DTLB RFO       ACCESS:    1148808  HIT:    1148808  MISS:          0
cpu0_DTLB PREFETCH  ACCESS:          0  HIT:          0  MISS:          0
cpu0_DTLB WRITEBACK ACCESS:          0  HIT:          0  MISS:          0
cpu0_ITLB TOTAL     ACCESS:    4799030  HIT:    4799030  MISS:          0
cpu0_ITLB LOAD      ACCESS:    4799030  HIT:    4799030  MISS:          0
cpu0_ITLB RFO       ACCESS:          0  HIT:          0  MISS:          0
cpu0_ITLB PREFETCH  ACCESS:          0  HIT:          0  MISS:          0
cpu0_ITLB WRITEBACK ACCESS:          0  HIT:          0  MISS:          0
cpu0_STLB TOTAL     ACCESS:      11773  HIT:         84  MISS:      11689
cpu0_STLB LOAD      ACCESS:      11773  HIT:         84  MISS:      11689
cpu0_STLB RFO       ACCESS:          0  HIT:          0  MISS:          0
cpu0_STLB PREFETCH  ACCESS:          0  HIT:          0  MISS:          0
cpu0_STLB WRITEBACK ACCESS:          0  HIT:          0  MISS:          0
cpu0_L1D TOTAL     ACCESS:    3190958  HIT:    2442709  MISS:     748249
cpu0_L1D LOAD      ACCESS:    1982341  HIT:    1234095  MISS:     748246
cpu0_L1D RFO       ACCESS:    1196928  HIT:    1196928  MISS:          0
cpu0_L1D PREFETCH  ACCESS:          0  HIT:          0  MISS:          0
cpu0_L1D WRITEBACK ACCESS:          0  HIT:          0  MISS:          0
cpu0_L2C TOTAL     ACCESS:     748249  HIT:         56  MISS:     748193
cpu0_L2C LOAD      ACCESS:     748246  HIT:         56  MISS:     748190
cpu0_L2C RFO       ACCESS:          0  HIT:          0  MISS:          0
cpu0_L2C PREFETCH  ACCESS:          0  HIT:          0  MISS:          0
cpu0_L2C WRITEBACK ACCESS:          0  HIT:          0  MISS:          0
LLC TOTAL     ACCESS:     748193  HIT:        112  MISS:     748081
LLC LOAD      ACCESS:     748190  HIT:        112  MISS:     748078
LLC RFO       ACCESS:          0  HIT:          0  MISS:          0
LLC PREFETCH  ACCESS:          0  HIT:          0  MISS:          0
LLC WRITEBACK ACCESS:          0  HIT:          0  MISS:          0
Heartbeat CPU 0 instructions: 100000000 cycles: 46447650 heartbeat IPC: 1.47297 cumulative IPC: 1.47286 (Simulation time: 0 hr 52 min 2 sec) 

Region of Interest Statistics
cpu0_DTLB TOTAL     ACCESS:    6126601  HIT:    6114337  MISS:      12264
cpu0_DTLB LOAD      ACCESS:    4929921  HIT:    4917657  MISS:      12264
cpu0_DTLB RFO       ACCESS:    1196680  HIT:    1196680  MISS:          0
cpu0_DTLB PREFETCH  ACCESS:          0  HIT:          0  MISS:          0
cpu0_DTLB WRITEBACK ACCESS:          0  HIT:          0  MISS:          0
cpu0_ITLB TOTAL     ACCESS:    4998982  HIT:    4998982  MISS:          0
cpu0_ITLB LOAD      ACCESS:    4998982  HIT:    4998982  MISS:          0
cpu0_ITLB RFO       ACCESS:          0  HIT:          0  MISS:          0
cpu0_ITLB PREFETCH  ACCESS:          0  HIT:          0  MISS:          0
cpu0_ITLB WRITEBACK ACCESS:          0  HIT:          0  MISS:          0
cpu0_STLB TOTAL     ACCESS:      12264  HIT:         88  MISS:      12176
cpu0_STLB LOAD      ACCESS:      12264  HIT:         88  MISS:      12176
cpu0_STLB RFO       ACCESS:          0  HIT:          0  MISS:          0
cpu0_STLB PREFETCH  ACCESS:          0  HIT:          0  MISS:          0
cpu0_STLB WRITEBACK ACCESS:          0  HIT:          0  MISS:          0
cpu0_L1D TOTAL     ACCESS:    3323910  HIT:    2544484  MISS:     779426
cpu0_L1D LOAD      ACCESS:    2064934  HIT:    1285511  MISS:     779423
cpu0_L1D RFO       ACCESS:    1246800  HIT:    1246800  MISS:          0
cpu0_L1D PREFETCH  ACCESS:          0  HIT:          0  MISS:          0
cpu0_L1D WRITEBACK ACCESS:          0  HIT:          0  MISS:          0
cpu0_L2C TOTAL     ACCESS:     779426  HIT:         57  MISS:     779369
cpu0_L2C LOAD      ACCESS:     779423  HIT:         57  MISS:     779366
cpu0_L2C RFO       ACCESS:          0  HIT:          0  MISS:          0
cpu0_L2C PREFETCH  ACCESS:          0  HIT:          0  MISS:          0
cpu0_L2C WRITEBACK ACCESS:          0  HIT:          0  MISS:          0
LLC TOTAL     ACCESS:     779369  HIT:        119  MISS:     779250
LLC LOAD      ACCESS:     779366  HIT:        119  MISS:     779247
LLC RFO       ACCESS:          0  HIT:          0  MISS:          0
LLC PREFETCH  ACCESS:          0  HIT:          0  MISS:          0
LLC WRITEBACK ACCESS:          0  HIT:          0  MISS:          0
Heartbeat CPU 0 instructions: 102000001 cycles: 47805668 heartbeat IPC: 1.47274 cumulative IPC: 1.47285 (Simulation time: 0 hr 53 min 12 sec) 

Region of Interest Statistics
cpu0_DTLB TOTAL     ACCESS:    6371644  HIT:    6358889  MISS:      12755
cpu0_DTLB LOAD      ACCESS:    5127087  HIT:    5114332  MISS:      12755
cpu0_DTLB RFO       ACCESS:    1244557  HIT:    1244557  MISS:          0
cpu0_DTLB PREFETCH  ACCESS:          0  HIT:          0  MISS:          0
cpu0_DTLB WRITEBACK ACCESS:          0  HIT:          0  MISS:          0
cpu0_ITLB TOTAL     ACCESS:    5198940  HIT:    5198940  MISS:          0
cpu0_ITLB LOAD      ACCESS:    5198940  HIT:    5198940  MISS:          0
cpu0_ITLB RFO       ACCESS:          0  HIT:          0  MISS:          0
cpu0_ITLB PREFETCH  ACCESS:          0  HIT:          0  MISS:          0
cpu0_ITLB WRITEBACK ACCESS:          0  HIT:          0  MISS:          0
cpu0_STLB TOTAL     ACCESS:      12755  HIT:         92  MISS:      12663
cpu0_STLB LOAD      ACCESS:      12755  HIT:         92  MISS:      12663
cpu0_STLB RFO       ACCESS:          0  HIT:          0  MISS:          0
cpu0_STLB PREFETCH  ACCESS:          0  HIT:          0  MISS:          0
cpu0_STLB WRITEBACK ACCESS:          0  HIT:          0  MISS:          0
cpu0_L1D TOTAL     ACCESS:    3456867  HIT:    2646264  MISS:     810603
cpu0_L1D LOAD      ACCESS:    2147532  HIT:    1336932  MISS:     810600
cpu0_L1D RFO       ACCESS:    1296672  HIT:    1296672  MISS:          0
cpu0_L1D PREFETCH  ACCESS:          0  HIT:          0  MISS:          0
cpu0_L1D WRITEBACK ACCESS:          0  HIT:          0  MISS:          0
cpu0_L2C TOTAL     ACCESS:     810603  HIT:         61  MISS:     810542
cpu0_L2C LOAD      ACCESS:     810600  HIT:         61  MISS:     810539
cpu0_L2C RFO       ACCESS:          0  HIT:          0  MISS:          0
cpu0_L2C PREFETCH  ACCESS:          0  HIT:          0  MISS:          0
cpu0_L2C WRITEBACK ACCESS:          0  HIT:          0  MISS:          0
LLC TOTAL     ACCESS:     810542  HIT:        123  MISS:     810419
LLC LOAD      ACCESS:     810539  HIT:        123  MISS:     810416
LLC RFO       ACCESS:          0  HIT:          0  MISS:          0
LLC PREFETCH  ACCESS:          0  HIT:          0  MISS:          0
LLC WRITEBACK ACCESS:          0  HIT:          0  MISS:          0
Heartbeat CPU 0 instructions: 104000001 cycles: 49162854 heartbeat IPC: 1.47364 cumulative IPC: 1.47288 (Simulation time: 0 hr 54 min 22 sec) 

Region of Interest Statistics
cpu0_DTLB TOTAL     ACCESS:    6616779  HIT:    6603534  MISS:      13245
cpu0_DTLB LOAD      ACCESS:    5324367  HIT:    5311122  MISS:      13245
cpu0_DTLB RFO       ACCESS:    1292412  HIT:    1292412  MISS:          0
cpu0_DTLB PREFETCH  ACCESS:          0  HIT:          0  MISS:          0
cpu0_DTLB WRITEBACK ACCESS:          0  HIT:          0  MISS:          0
cpu0_ITLB TOTAL     ACCESS:    5398901  HIT:    5398901  MISS:          0
cpu0_ITLB LOAD      ACCESS:    5398901  HIT:    5398901  MISS:          0
cpu0_ITLB RFO       ACCESS:          0  HIT:          0  MISS:          0
cpu0_ITLB PREFETCH  ACCESS:          0  HIT:          0  MISS:          0
cpu0_ITLB WRITEBACK ACCESS:          0  HIT:          0  MISS:          0
cpu0_STLB TOTAL     ACCESS:      13245  HIT:         95  MISS:      13150
cpu0_STLB LOAD      ACCESS:      13245  HIT:         95  MISS:      13150
cpu0_STLB RFO       ACCESS:          0  HIT:          0  MISS:          0
cpu0_STLB PREFETCH  ACCESS:          0  HIT:          0  MISS:          0
cpu0_STLB WRITEBACK ACCESS:          0  HIT:          0  MISS:          0
cpu0_L1D TOTAL     ACCESS:    3589820  HIT:    2748041  MISS:     841779
cpu0_L1D LOAD      ACCESS:    2230126  HIT:    1388350  MISS:     841776
cpu0_L1D RFO       ACCESS:    1346544  HIT:    1346544  MISS:          0
cpu0_L1D PREFETCH  ACCESS:          0  HIT:          0  MISS:          0
cpu0_L1D WRITEBACK ACCESS:          0  HIT:          0  MISS:          0
cpu0_L2C TOTAL     ACCESS:     841779  HIT:         62  MISS:     841717
cpu0_L2C LOAD      ACCESS:     841776  HIT:         62  MISS:     841714
cpu0_L2C RFO       ACCESS:          0  HIT:          0  MISS:          0
cpu0_L2C PREFETCH  ACCESS:          0  HIT:          0  MISS:          0
cpu0_L2C WRITEBACK ACCESS:          0  HIT:          0  MISS:          0
LLC TOTAL     ACCESS:     841717  HIT:        128  MISS:     841589
LLC LOAD      ACCESS:     841714  HIT:        128  MISS:     841586
LLC RFO       ACCESS:          0  HIT:          0  MISS:          0
LLC PREFETCH  ACCESS:          0  HIT:          0  MISS:          0
LLC WRITEBACK ACCESS:          0  HIT:          0  MISS:          0
Heartbeat CPU 0 instructions: 106000002 cycles: 50521163 heartbeat IPC: 1.47242 cumulative IPC: 1.47287 (Simulation time: 0 hr 55 min 36 sec) 

Region of Interest Statistics
cpu0_DTLB TOTAL     ACCESS:    6861836  HIT:    6848100  MISS:      13736
cpu0_DTLB LOAD      ACCESS:    5521560  HIT:    5507824  MISS:      13736
cpu0_DTLB RFO       ACCESS:    1340276  HIT:    1340276  MISS:          0
cpu0_DTLB PREFETCH  ACCESS:          0  HIT:          0  MISS:          0
cpu0_DTLB WRITEBACK ACCESS:          0  HIT:          0  MISS:          0
cpu0_ITLB TOTAL     ACCESS:    5598863  HIT:    5598863  MISS:          0
cpu0_ITLB LOAD      ACCESS:    5598863  HIT:    5598863  MISS:          0
cpu0_ITLB RFO       ACCESS:          0  HIT:          0  MISS:          0
cpu0_ITLB PREFETCH  ACCESS:          0  HIT:          0  MISS:          0
cpu0_ITLB WRITEBACK ACCESS:          0  HIT:          0  MISS:          0
cpu0_STLB TOTAL     ACCESS:      13736  HIT:         99  MISS:      13637
cpu0_STLB LOAD      ACCESS:      13736  HIT:         99  MISS:      13637
cpu0_STLB RFO       ACCESS:          0  HIT:          0  MISS:          0
cpu0_STLB PREFETCH  ACCESS:          0  HIT:          0  MISS:          0
cpu0_STLB WRITEBACK ACCESS:          0  HIT:          0  MISS:          0
cpu0_L1D TOTAL     ACCESS:    3722779  HIT:    2849821  MISS:     872958
cpu0_L1D LOAD      ACCESS:    2312726  HIT:    1439772  MISS:     872954
cpu0_L1D RFO       ACCESS:    1396416  HIT:    1396416  MISS:          0
cpu0_L1D PREFETCH  ACCESS:          0  HIT:          0  MISS:          0
cpu0_L1D WRITEBACK ACCESS:          0  HIT:          0  MISS:          0
cpu0_L2C TOTAL     ACCESS:     872958  HIT:         64  MISS:     872894
cpu0_L2C LOAD      ACCESS:     872954  HIT:         64  MISS:     872890
cpu0_L2C RFO       ACCESS:          0  HIT:          0  MISS:          0
cpu0_L2C PREFETCH  ACCESS:          0  HIT:          0  MISS:          0
cpu0_L2C WRITEBACK ACCESS:          0  HIT:          0  MISS:          0
LLC TOTAL     ACCESS:     872894  HIT:        134  MISS:     872760
LLC LOAD      ACCESS:     872890  HIT:        134  MISS:     872756
LLC RFO       ACCESS:          0  HIT:          0  MISS:          0
LLC PREFETCH  ACCESS:          0  HIT:          0  MISS:          0
LLC WRITEBACK ACCESS:          0  HIT:          0  MISS:          0
Heartbeat CPU 0 instructions: 108000001 cycles: 51878684 heartbeat IPC: 1.47327 cumulative IPC: 1.47288 (Simulation time: 0 hr 56 min 51 sec) 

Region of Interest Statistics
cpu0_DTLB TOTAL     ACCESS:    7106933  HIT:    7092707  MISS:      14226
cpu0_DTLB LOAD      ACCESS:    5718806  HIT:    5704580  MISS:      14226
cpu0_DTLB RFO       ACCESS:    1388127  HIT:    1388127  MISS:          0
cpu0_DTLB PREFETCH  ACCESS:          0  HIT:          0  MISS:          0
cpu0_DTLB WRITEBACK ACCESS:          0  HIT:          0  MISS:          0
cpu0_ITLB TOTAL     ACCESS:    5798816  HIT:    5798816  MISS:          0
cpu0_ITLB LOAD      ACCESS:    5798816  HIT:    5798816  MISS:          0
cpu0_ITLB RFO       ACCESS:          0  HIT:          0  MISS:          0
cpu0_ITLB PREFETCH  ACCESS:          0  HIT:          0  MISS:          0
cpu0_ITLB WRITEBACK ACCESS:          0  HIT:          0  MISS:          0
cpu0_STLB TOTAL     ACCESS:      14226  HIT:        102  MISS:      14124
cpu0_STLB LOAD      ACCESS:      14226  HIT:        102  MISS:      14124
cpu0_STLB RFO       ACCESS:          0  HIT:          0  MISS:          0
cpu0_STLB PREFETCH  ACCESS:          0  HIT:          0  MISS:          0
cpu0_STLB WRITEBACK ACCESS:          0  HIT:          0  MISS:          0
cpu0_L1D TOTAL     ACCESS:    3855738  HIT:    2951604  MISS:     904134
cpu0_L1D LOAD      ACCESS:    2395326  HIT:    1491196  MISS:     904130
cpu0_L1D RFO       ACCESS:    1446288  HIT:    1446288  MISS:          0
cpu0_L1D PREFETCH  ACCESS:          0  HIT:          0  MISS:          0
cpu0_L1D WRITEBACK ACCESS:          0  HIT:          0  MISS:          0
cpu0_L2C TOTAL     ACCESS:     904134  HIT:         66  MISS:     904068
cpu0_L2C LOAD      ACCESS:     904130  HIT:         66  MISS:     904064
cpu0_L2C RFO       ACCESS:          0  HIT:          0  MISS:          0
cpu0_L2C PREFETCH  ACCESS:          0  HIT:          0  MISS:          0
cpu0_L2C WRITEBACK ACCESS:          0  HIT:          0  MISS:          0
LLC TOTAL     ACCESS:     904068  HIT:        138  MISS:     903930
LLC LOAD      ACCESS:     904064  HIT:        138  MISS:     903926
LLC RFO       ACCESS:          0  HIT:          0  MISS:          0
LLC PREFETCH  ACCESS:          0  HIT:          0  MISS:          0
LLC WRITEBACK ACCESS:          0  HIT:          0  MISS:          0
Heartbeat CPU 0 instructions: 110000002 cycles: 53237105 heartbeat IPC: 1.4723 cumulative IPC: 1.47286 (Simulation time: 0 hr 58 min 6 sec) 

Region of Interest Statistics
cpu0_DTLB TOTAL     ACCESS:    7351939  HIT:    7337222  MISS:      14717
cpu0_DTLB LOAD      ACCESS:    5915927  HIT:    5901210  MISS:      14717
cpu0_DTLB RFO       ACCESS:    1436012  HIT:    1436012  MISS:          0
cpu0_DTLB PREFETCH  ACCESS:          0  HIT:          0  MISS:          0
cpu0_DTLB WRITEBACK ACCESS:          0  HIT:          0  MISS:          0
cpu0_ITLB TOTAL     ACCESS:    5998783  HIT:    5998783  MISS:          0
cpu0_ITLB LOAD      ACCESS:    5998783  HIT:    5998783  MISS:          0
cpu0_ITLB RFO       ACCESS:          0  HIT:          0  MISS:          0
cpu0_ITLB PREFETCH  ACCESS:          0  HIT:          0  MISS:          0
cpu0_ITLB WRITEBACK ACCESS:          0  HIT:          0  MISS:          0
cpu0_STLB TOTAL     ACCESS:      14717  HIT:        106  MISS:      14611
cpu0_STLB LOAD      ACCESS:      14717  HIT:        106  MISS:      14611
cpu0_STLB RFO       ACCESS:          0  HIT:          0  MISS:          0
cpu0_STLB PREFETCH  ACCESS:          0  HIT:          0  MISS:          0
cpu0_STLB WRITEBACK ACCESS:          0  HIT:          0  MISS:          0
cpu0_L1D TOTAL     ACCESS:    3988694  HIT:    3053382  MISS:     935312
cpu0_L1D LOAD      ACCESS:    2477923  HIT:    1542615  MISS:     935308
cpu0_L1D RFO       ACCESS:    1496160  HIT:    1496160  MISS:          0
cpu0_L1D PREFETCH  ACCESS:          0  HIT:          0  MISS:          0
cpu0_L1D WRITEBACK ACCESS:          0  HIT:          0  MISS:          0
cpu0_L2C TOTAL     ACCESS:     935312  HIT:         68  MISS:     935244
cpu0_L2C LOAD      ACCESS:     935308  HIT:         68  MISS:     935240
cpu0_L2C RFO       ACCESS:          0  HIT:          0  MISS:          0
cpu0_L2C PREFETCH  ACCESS:          0  HIT:          0  MISS:          0
cpu0_L2C WRITEBACK ACCESS:          0  HIT:          0  MISS:          0
LLC TOTAL     ACCESS:     935244  HIT:        144  MISS:     935100
LLC LOAD      ACCESS:     935240  HIT:        144  MISS:     935096
LLC RFO       ACCESS:          0  HIT:          0  MISS:          0
LLC PREFETCH  ACCESS:          0  HIT:          0  MISS:          0
LLC WRITEBACK ACCESS:          0  HIT:          0  MISS:          0
Heartbeat CPU 0 instructions: 112000002 cycles: 54595216 heartbeat IPC: 1.47263 cumulative IPC: 1.47285 (Simulation time: 0 hr 59 min 19 sec) 

Region of Interest Statistics
cpu0_DTLB TOTAL     ACCESS:    7596994  HIT:    7581787  MISS:      15207
cpu0_DTLB LOAD      ACCESS:    6113105  HIT:    6097898  MISS:      15207
cpu0_DTLB RFO       ACCESS:    1483889  HIT:    1483889  MISS:          0
cpu0_DTLB PREFETCH  ACCESS:          0  HIT:          0  MISS:          0
cpu0_DTLB WRITEBACK ACCESS:          0  HIT:          0  MISS:          0
cpu0_ITLB TOTAL     ACCESS:    6198742  HIT:    6198742  MISS:          0
cpu0_ITLB LOAD      ACCESS:    6198742  HIT:    6198742  MISS:          0
cpu0_ITLB RFO       ACCESS:          0  HIT:          0  MISS:          0
cpu0_ITLB PREFETCH  ACCESS:          0  HIT:          0  MISS:          0
cpu0_ITLB WRITEBACK ACCESS:          0  HIT:          0  MISS:          0
cpu0_STLB TOTAL     ACCESS:      15207  HIT:        109  MISS:      15098
cpu0_STLB LOAD      ACCESS:      15207  HIT:        109  MISS:      15098
cpu0_STLB RFO       ACCESS:          0  HIT:          0  MISS:          0
cpu0_STLB PREFETCH  ACCESS:          0  HIT:          0  MISS:          0
cpu0_STLB WRITEBACK ACCESS:          0  HIT:          0  MISS:          0
cpu0_L1D TOTAL     ACCESS:    4121653  HIT:    3155165  MISS:     966488
cpu0_L1D LOAD      ACCESS:    2560523  HIT:    1594039  MISS:     966484
cpu0_L1D RFO       ACCESS:    1546032  HIT:    1546032  MISS:          0
cpu0_L1D PREFETCH  ACCESS:          0  HIT:          0  MISS:          0
cpu0_L1D WRITEBACK ACCESS:          0  HIT:          0  MISS:          0
cpu0_L2C TOTAL     ACCESS:     966488  HIT:         69  MISS:     966419
cpu0_L2C LOAD      ACCESS:     966484  HIT:         69  MISS:     966415
cpu0_L2C RFO       ACCESS:          0  HIT:          0  MISS:          0
cpu0_L2C PREFETCH  ACCESS:          0  HIT:          0  MISS:          0
cpu0_L2C WRITEBACK ACCESS:          0  HIT:          0  MISS:          0
LLC TOTAL     ACCESS:     966419  HIT:        149  MISS:     966270
LLC LOAD      ACCESS:     966415  HIT:        149  MISS:     966266
LLC RFO       ACCESS:          0  HIT:          0  MISS:          0
LLC PREFETCH  ACCESS:          0  HIT:          0  MISS:          0
LLC WRITEBACK ACCESS:          0  HIT:          0  MISS:          0
Heartbeat CPU 0 instructions: 114000003 cycles: 55953155 heartbeat IPC: 1.47282 cumulative IPC: 1.47285 (Simulation time: 1 hr 0 min 32 sec) 

Region of Interest Statistics
cpu0_DTLB TOTAL     ACCESS:    7842020  HIT:    7826322  MISS:      15698
cpu0_DTLB LOAD      ACCESS:    6310245  HIT:    6294547  MISS:      15698
cpu0_DTLB RFO       ACCESS:    1531775  HIT:    1531775  MISS:          0
cpu0_DTLB PREFETCH  ACCESS:          0  HIT:          0  MISS:          0
cpu0_DTLB WRITEBACK ACCESS:          0  HIT:          0  MISS:          0
cpu0_ITLB TOTAL     ACCESS:    6398705  HIT:    6398705  MISS:          0
cpu0_ITLB LOAD      ACCESS:    6398705  HIT:    6398705  MISS:          0
cpu0_ITLB RFO       ACCESS:          0  HIT:          0  MISS:          0
cpu0_ITLB PREFETCH  ACCESS:          0  HIT:          0  MISS:          0
cpu0_ITLB WRITEBACK ACCESS:          0  HIT:          0  MISS:          0
cpu0_STLB TOTAL     ACCESS:      15698  HIT:        113  MISS:      15585
cpu0_STLB LOAD      ACCESS:      15698  HIT:        113  MISS:      15585
cpu0_STLB RFO       ACCESS:          0  HIT:          0  MISS:          0
cpu0_STLB PREFETCH  ACCESS:          0  HIT:          0  MISS:          0
cpu0_STLB WRITEBACK ACCESS:          0  HIT:          0  MISS:          0
cpu0_L1D TOTAL     ACCESS:    4254609  HIT:    3256943  MISS:     997666
cpu0_L1D LOAD      ACCESS:    2643120  HIT:    1645458  MISS:     997662
cpu0_L1D RFO       ACCESS:    1595904  HIT:    1595904  MISS:          0
cpu0_L1D PREFETCH  ACCESS:          0  HIT:          0  MISS:          0
cpu0_L1D WRITEBACK ACCESS:          0  HIT:          0  MISS:          0
cpu0_L2C TOTAL     ACCESS:     997666  HIT:         75  MISS:     997591
cpu0_L2C LOAD      ACCESS:     997662  HIT:         75  MISS:     997587
cpu0_L2C RFO       ACCESS:          0  HIT:          0  MISS:          0
cpu0_L2C PREFETCH  ACCESS:          0  HIT:          0  MISS:          0
cpu0_L2C WRITEBACK ACCESS:          0  HIT:          0  MISS:          0
LLC TOTAL     ACCESS:     997591  HIT:        151  MISS:     997440
LLC LOAD      ACCESS:     997587  HIT:        151  MISS:     997436
LLC RFO       ACCESS:          0  HIT:          0  MISS:          0
LLC PREFETCH  ACCESS:          0  HIT:          0  MISS:          0
LLC WRITEBACK ACCESS:          0  HIT:          0  MISS:          0
Heartbeat CPU 0 instructions: 116000003 cycles: 57311212 heartbeat IPC: 1.47269 cumulative IPC: 1.47285 (Simulation time: 1 hr 1 min 45 sec) 

Region of Interest Statistics
cpu0_DTLB TOTAL     ACCESS:    8087081  HIT:    8070893  MISS:      16188
cpu0_DTLB LOAD      ACCESS:    6507442  HIT:    6491254  MISS:      16188
cpu0_DTLB RFO       ACCESS:    1579639  HIT:    1579639  MISS:          0
cpu0_DTLB PREFETCH  ACCESS:          0  HIT:          0  MISS:          0
cpu0_DTLB WRITEBACK ACCESS:          0  HIT:          0  MISS:          0
cpu0_ITLB TOTAL     ACCESS:    6598663  HIT:    6598663  MISS:          0
[...]
cpu0_ITLB TOTAL     ACCESS:  137701390  HIT:  137701387  MISS:          3
cpu0_ITLB LOAD      ACCESS:  137701390  HIT:  137701387  MISS:          3
cpu0_ITLB RFO       ACCESS:          0  HIT:          0  MISS:          0
cpu0_ITLB PREFETCH  ACCESS:          0  HIT:          0  MISS:          0
cpu0_ITLB WRITEBACK ACCESS:          0  HIT:          0  MISS:          0
cpu0_L1I TOTAL     ACCESS:   12406007  HIT:   12405947  MISS:         60
cpu0_L1I LOAD      ACCESS:   12406007  HIT:   12405947  MISS:         60
cpu0_L1I RFO       ACCESS:          0  HIT:          0  MISS:          0
cpu0_L1I PREFETCH  ACCESS:          0  HIT:          0  MISS:          0
cpu0_L1I WRITEBACK ACCESS:          0  HIT:          0  MISS:          0
cpu0_STLB TOTAL     ACCESS:    1258689  HIT:     760195  MISS:     498494
cpu0_STLB LOAD      ACCESS:    1081897  HIT:     591162  MISS:     490735
cpu0_STLB RFO       ACCESS:     176792  HIT:     169033  MISS:       7759
cpu0_STLB PREFETCH  ACCESS:          0  HIT:          0  MISS:          0
cpu0_STLB WRITEBACK ACCESS:          0  HIT:          0  MISS:          0
cpu0_L1D TOTAL     ACCESS:  338643733  HIT:  305716465  MISS:   32927268
cpu0_L1D LOAD      ACCESS:  269501091  HIT:  237100691  MISS:   32400400
cpu0_L1D RFO       ACCESS:   68644146  HIT:   68147655  MISS:     496491
cpu0_L1D PREFETCH  ACCESS:          0  HIT:          0  MISS:          0
cpu0_L1D WRITEBACK ACCESS:          0  HIT:          0  MISS:          0
cpu0_L2C TOTAL     ACCESS:   35657563  HIT:    3734534  MISS:   31923029
cpu0_L2C LOAD      ACCESS:   32400460  HIT:     974387  MISS:   31426073
cpu0_L2C RFO       ACCESS:     496491  HIT:          0  MISS:     496491
cpu0_L2C PREFETCH  ACCESS:          0  HIT:          0  MISS:          0
cpu0_L2C WRITEBACK ACCESS:    2730235  HIT:    2730229  MISS:          6
LLC TOTAL     ACCESS:   34638980  HIT:    2725076  MISS:   31913904
LLC LOAD      ACCESS:   31426073  HIT:      17480  MISS:   31408593
LLC RFO       ACCESS:     496491  HIT:          2  MISS:     496489
LLC PREFETCH  ACCESS:          0  HIT:          0  MISS:          0
LLC WRITEBACK ACCESS:    2715957  HIT:    2707493  MISS:       8464
Finished CPU 0 instructions: 1500000001 cycles: 3929270785 cumulative IPC: 0.38175 (Simulation time: 24 hr 46 min 54 sec) 

ChampSim completed all CPUs

Region of Interest Statistics

CPU 0 cumulative IPC: 0.38175 instructions: 1500000001 cycles: 3929270785
cpu0_DTLB TOTAL     ACCESS:  390778849  HIT:  389520163  MISS:    1258686
cpu0_DTLB LOAD      ACCESS:  360016909  HIT:  358935015  MISS:    1081894
cpu0_DTLB RFO       ACCESS:   30761940  HIT:   30585148  MISS:     176792
cpu0_DTLB PREFETCH  ACCESS:          0  HIT:          0  MISS:          0
cpu0_DTLB WRITEBACK ACCESS:          0  HIT:          0  MISS:          0
cpu0_DTLB TRANSLATION ACCESS:          0  HIT:          0  MISS:          0
cpu0_DTLB PREFETCH  REQUESTED:          0  ISSUED:          0  USEFUL:          0  USELESS:          0
cpu0_DTLB AVERAGE MISS LATENCY: 87.2911 cycles
cpu0_ITLB TOTAL     ACCESS:  137701390  HIT:  137701387  MISS:          3
cpu0_ITLB LOAD      ACCESS:  137701390  HIT:  137701387  MISS:          3
cpu0_ITLB RFO       ACCESS:          0  HIT:          0  MISS:          0
cpu0_ITLB PREFETCH  ACCESS:          0  HIT:          0  MISS:          0
cpu0_ITLB WRITEBACK ACCESS:          0  HIT:          0  MISS:          0
cpu0_ITLB TRANSLATION ACCESS:          0  HIT:          0  MISS:          0
cpu0_ITLB PREFETCH  REQUESTED:          0  ISSUED:          0  USEFUL:          0  USELESS:          0
cpu0_ITLB AVERAGE MISS LATENCY: 357.333 cycles
cpu0_L1I TOTAL     ACCESS:   12406007  HIT:   12405947  MISS:         60
cpu0_L1I LOAD      ACCESS:   12406007  HIT:   12405947  MISS:         60
cpu0_L1I RFO       ACCESS:          0  HIT:          0  MISS:          0
cpu0_L1I PREFETCH  ACCESS:          0  HIT:          0  MISS:          0
cpu0_L1I WRITEBACK ACCESS:          0  HIT:          0  MISS:          0
cpu0_L1I TRANSLATION ACCESS:          0  HIT:          0  MISS:          0
cpu0_L1I PREFETCH  REQUESTED:          0  ISSUED:          0  USEFUL:          0  USELESS:          0
cpu0_L1I AVERAGE MISS LATENCY: 289.3 cycles
cpu0_STLB TOTAL     ACCESS:    1258689  HIT:     760195  MISS:     498494
cpu0_STLB LOAD      ACCESS:    1081897  HIT:     591162  MISS:     490735
cpu0_STLB RFO       ACCESS:     176792  HIT:     169033  MISS:       7759
cpu0_STLB PREFETCH  ACCESS:          0  HIT:          0  MISS:          0
cpu0_STLB WRITEBACK ACCESS:          0  HIT:          0  MISS:          0
cpu0_STLB TRANSLATION ACCESS:          0  HIT:          0  MISS:          0
cpu0_STLB PREFETCH  REQUESTED:          0  ISSUED:          0  USEFUL:          0  USELESS:          0
cpu0_STLB AVERAGE MISS LATENCY: 197.09 cycles
cpu0_L1D TOTAL     ACCESS:  338643733  HIT:  305716465  MISS:   32927268
cpu0_L1D LOAD      ACCESS:  269501091  HIT:  237100691  MISS:   32400400
cpu0_L1D RFO       ACCESS:   68644146  HIT:   68147655  MISS:     496491
cpu0_L1D PREFETCH  ACCESS:          0  HIT:          0  MISS:          0
cpu0_L1D WRITEBACK ACCESS:          0  HIT:          0  MISS:          0
cpu0_L1D TRANSLATION ACCESS:     498496  HIT:     468119  MISS:      30377
cpu0_L1D PREFETCH  REQUESTED:          0  ISSUED:          0  USEFUL:          0  USELESS:          0
cpu0_L1D AVERAGE MISS LATENCY: 977.872 cycles
cpu0_L2C TOTAL     ACCESS:   35657563  HIT:    3734534  MISS:   31923029
cpu0_L2C LOAD      ACCESS:   32400460  HIT:     974387  MISS:   31426073
cpu0_L2C RFO       ACCESS:     496491  HIT:          0  MISS:     496491
cpu0_L2C PREFETCH  ACCESS:          0  HIT:          0  MISS:          0
cpu0_L2C WRITEBACK ACCESS:    2730235  HIT:    2730229  MISS:          6
cpu0_L2C TRANSLATION ACCESS:      30377  HIT:      29918  MISS:        459
cpu0_L2C PREFETCH  REQUESTED:          0  ISSUED:          0  USEFUL:          0  USELESS:          0
cpu0_L2C AVERAGE MISS LATENCY: 996.902 cycles
LLC TOTAL     ACCESS:   34638980  HIT:    2725076  MISS:   31913904
LLC LOAD      ACCESS:   31426073  HIT:      17480  MISS:   31408593
LLC RFO       ACCESS:     496491  HIT:          2  MISS:     496489
LLC PREFETCH  ACCESS:          0  HIT:          0  MISS:          0
LLC WRITEBACK ACCESS:    2715957  HIT:    2707493  MISS:       8464
LLC TRANSLATION ACCESS:        459  HIT:        101  MISS:        358
LLC PREFETCH  REQUESTED:          0  ISSUED:          0  USEFUL:          0  USELESS:          0
LLC AVERAGE MISS LATENCY: 976.181 cycles
~~~~~~~~~~Reuse Distance Profiler output~~~~~~~~~~
0	35783664	6180112
1	18778976	8357264
2	11081600	6764448
3	10880848	7047136
4	8798320	7999328
5	11211904	10301952
6	12830096	11451376
7	11090400	9416768
8	7766352	6786048
9	7312960	5932720
10	9944176	7762464
11	9557248	8715840
12	6684496	6096208
13	7316784	5623280
14	4761648	4516000
15	6218496	5859584
16	5260704	4759904
17	3604768	3234576
18	3364624	2510304
19	1864576	1716064
20	1664544	1633824
21	2953488	2638720
22	2275728	2075744
23	1961600	1593984
24	2011600	1901632
25	1650128	1442672
26	2184016	1888816
27	1748080	1654896
28	1382032	1187408
29	1983824	1878880
30	1332576	1233520
31	1150112	1146352
32	955776	944832
33	1550528	1283744
34	781872	767856
35	917888	823376
36	719360	619888
37	2393616	1680640
38	1812128	1612624
39	1212048	919952
40	725456	708944
41	448288	428304
42	1001728	642256
43	659136	499552
44	1538000	1287712
45	1958912	1795904
46	1318720	1200928
47	763008	747888
48	931376	792864
49	420464	412880
50	489376	416768
51	617424	516000
52	612992	556752
53	1077296	1031136
54	866976	861408
55	1285984	1179552
56	1095472	991280
57	2126944	2120784
58	1473200	1464528
59	1767536	1588688
60	2364912	2272768
61	1867632	1857824
62	2034784	2028752
63	2497104	2319152
64	5825392	5536368
66	4634432	4526720
68	5743680	5585696
70	4887504	4780656
72	4350480	4195680
74	4410272	4219776
76	5216640	5108528
78	4666864	4573616
80	4516752	4506544
82	2811488	2721520
84	2416192	2069856
86	1752128	1651968
88	1372800	1354512
90	715936	623168
92	601760	426320
94	519344	511840
96	740832	652880
98	127792	125856
100	22320	21488
102	95984	95984
104	88336	88288
106	95136	95136
108	3168	560
110	1360	1232
112	4288	4288
114	208	208
116	176	176
118	3264	3264
120	160	160
122	1920	1920
124	1088	1088
126	80	80
128	16	16
132	144	144
136	400	400
140	3712	3712
144	16	16
148	32	32
152	352	352
156	112	112
160	2816	2816
164	240	240
168	0	0
172	0	0
176	0	0
180	0	0
184	0	0
188	0	0
192	0	0
196	0	0
200	0	0
204	0	0
208	0	0
212	0	0
216	0	0
220	0	0
224	0	0
228	0	0
232	0	0
236	0	0
240	3968	3968
244	10512	10512
248	17680	17680
252	17264	17264
256	31328	31328
264	14144	14144
272	6080	6080
280	81280	81280
288	10880	10880
296	0	0
304	0	0
312	176	176
320	2704	2704
328	97648	97648
336	112208	112208
344	289296	289296
352	328800	328800
360	248624	248624
368	278720	278720
376	176736	176736
384	864	864
392	64	64
400	0	0
408	0	0
416	0	0
424	0	0
432	0	0
440	0	0
448	0	0
456	0	0
464	0	0
472	0	0
480	0	0
488	0	0
496	2416	2416
504	0	0
512	2304	2304
528	240	240
544	0	0
560	0	0
576	0	0
592	0	0
608	0	0
624	0	0
640	80	80
656	2144	2144
672	60656	60656
688	56256	56256
704	11904	11904
720	480	480
736	0	0
752	0	0
768	0	0
784	0	0
800	0	0
816	0	0
832	0	0
848	0	0
864	0	0
880	0	0
896	0	0
912	0	0
928	0	0
944	0	0
960	0	0
976	0	0
992	0	0
1008	0	0
1024	0	0
1056	0	0
1088	0	0
1120	0	0
1152	0	0
1184	0	0
1216	0	0
1248	0	0
1280	0	0
1312	0	0
1344	0	0
1376	0	0
1408	0	0
1440	0	0
1472	0	0
1504	0	0
1536	0	0
1568	0	0
1600	0	0
1632	0	0
1664	0	0
1696	0	0
1728	0	0
1760	0	0
1792	0	0
1824	0	0
1856	0	0
1888	0	0
1920	0	0
1952	0	0
1984	0	0
2016	0	0
2048	6432	6432
2112	8784	8784
2176	0	0
2240	1536	1536
2304	0	0
2368	0	0
2432	0	0
2496	0	0
2560	0	0
2624	0	0
2688	0	0
2752	0	0
2816	0	0
2880	0	0
2944	0	0
3008	0	0
3072	0	0
3136	0	0
3200	0	0
3264	0	0
3328	0	0
3392	0	0
3456	0	0
3520	0	0
3584	0	0
3648	0	0
3712	0	0
3776	0	0
3840	0	0
3904	0	0
3968	0	0
4032	0	0
4096	0	0
4224	0	0
4352	0	0
4480	0	0
4608	0	0
4736	0	0
4864	0	0
4992	0	0
5120	0	0
5248	0	0
5376	0	0
5504	0	0
5632	0	0
5760	0	0
5888	0	0
6016	0	0
6144	0	0
6272	0	0
6400	0	0
6528	0	0
6656	0	0
6784	0	0
6912	0	0
7040	0	0
7168	0	0
7296	0	0
7424	0	0
7552	0	0
7680	0	0
7808	0	0
7936	0	0
8064	0	0
8192	0	0
8448	0	0
8704	0	0
8960	0	0
9216	0	0
9472	0	0
9728	0	0
9984	0	0
10240	0	0
10496	0	0
10752	0	0
11008	0	0
11264	0	0
11520	0	0
11776	0	0
12032	0	0
12288	0	0
12544	0	0
12800	0	0
13056	0	0
13312	0	0
13568	0	0
13824	0	0
14080	0	0
14336	0	0
14592	0	0
14848	0	0
15104	0	0
15360	0	0
15616	0	0
15872	0	0
16128	0	0
16384	0	0
16896	0	0
17408	0	0
17920	0	0
18432	16	16
18944	0	0
19456	0	0
19968	0	0
20480	16	16
20992	0	0
21504	0	0
22016	0	0
22528	0	0
23040	0	0
23552	0	0
24064	0	0
24576	0	0
25088	0	0
25600	0	0
26112	16	16
26624	0	0
27136	0	0
27648	0	0
28160	0	0
28672	0	0
29184	16	16
29696	0	0
30208	0	0
30720	0	0
31232	0	0
31744	0	0
32256	0	0
32768	1072	1072
33792	0	0
34816	0	0
35840	0	0
36864	576	576
37888	0	0
38912	0	0
39936	673680	673680
40960	299344	299344
41984	7744	7744
43008	0	0
44032	0	0
45056	16	16
46080	0	0
47104	0	0
48128	0	0
49152	0	0
50176	0	0
51200	16	16
52224	0	0
53248	0	0
54272	0	0
55296	0	0
56320	0	0
57344	0	0
58368	0	0
59392	0	0
60416	0	0
61440	0	0
62464	0	0
63488	0	0
64512	208	208
65536	352	352
67584	256	256
69632	192	192
71680	288	288
73728	240	240
75776	224	224
77824	224	224
79872	240	240
81920	160	160
83968	288	288
86016	192	192
88064	256	256
90112	1104	1104
92160	224	224
94208	240	240
96256	240	240
98304	240	240
100352	224	224
102400	272	272
104448	240	240
106496	256	256
108544	224	224
110592	240	240
112640	272	272
114688	304	304
116736	288	288
118784	240	240
120832	272	272
122880	240	240
124928	224	224
126976	224	224
129024	256	256
131072	448	448
135168	160	160
139264	16	16
143360	16	16
147456	0	0
151552	16	16
155648	16	16
159744	16	16
163840	0	0
167936	0	0
172032	0	0
176128	16	16
180224	0	0
184320	0	0
188416	0	0
192512	16	16
196608	48	48
200704	16	16
204800	0	0
208896	16	16
212992	0	0
217088	16	16
221184	32	32
225280	16	16
229376	16	16
233472	0	0
237568	0	0
241664	0	0
245760	32	32
249856	16	16
253952	0	0
258048	0	0
262144	0	0
270336	48	48
278528	48	48
286720	64	64
294912	32	32
303104	16	16
311296	32	32
319488	16	16
327680	16	16
335872	16	16
344064	32	32
352256	96	96
360448	16	16
368640	16	16
376832	80	80
385024	16	16
393216	16	16
401408	64	64
409600	32	32
417792	64	64
425984	16	16
434176	16	16
442368	32	32
450560	32	32
458752	16	16
466944	16	16
475136	16	16
483328	32	32
491520	16	16
499712	48	48
507904	0	0
516096	16	16
524288	112	112
540672	64	64
557056	64	64
573440	80	80
589824	48	48
606208	32	32
622592	48	48
638976	48	48
655360	64	64
671744	48	48
688128	80	80
704512	96	96
720896	64	64
737280	80	80
753664	96	96
770048	16	16
786432	48	48
802816	48	48
819200	32	32
835584	32	32
851968	16	16
868352	96	96
884736	48	48
901120	0	0
917504	96	96
933888	16	16
950272	48	48
966656	48	48
983040	16	16
999424	48	48
1015808	96	96
1032192	64	64
1048576	160	160
1081344	96	96
1114112	112	112
1146880	32	32
1179648	112	112
1212416	160	160
1245184	112	112
1277952	80	80
1310720	32	32
1343488	112	112
1376256	80	80
1409024	96	96
1441792	96	96
1474560	112	112
1507328	128	128
1540096	80	80
1572864	176	176
1605632	80	80
1638400	80	80
1671168	80	80
1703936	208	208
1736704	128	128
1769472	48	48
1802240	32	32
1835008	96	96
1867776	96	96
1900544	144	144
1933312	96	96
1966080	48	48
1998848	128	128
2031616	128	128
2064384	128	128
2097152	224	224
2162688	256	256
2228224	176	176
2293760	224	224
2359296	208	208
2424832	144	144
2490368	144	144
2555904	288	288
2621440	144	144
2686976	336	336
2752512	192	192
2818048	240	240
2883584	208	208
2949120	240	240
3014656	288	288
3080192	112	112
3145728	176	176
3211264	320	320
3276800	192	192
3342336	240	240
3407872	208	208
3473408	272	272
3538944	288	288
3604480	144	144
3670016	208	208
3735552	208	208
3801088	272	272
3866624	144	144
3932160	352	352
3997696	176	176
4063232	208	208
4128768	240	240
4194304	384	384
4325376	320	320
4456448	400	400
4587520	400	400
4718592	416	416
4849664	448	448
4980736	352	352
5111808	464	464
5242880	416	416
5373952	944848	944848
5505024	0	0
5636096	0	0
5767168	0	0
5898240	0	0
6029312	0	0
6160384	0	0
6291456	0	0
6422528	0	0
6553600	0	0
6684672	0	0
6815744	0	0
6946816	0	0
7077888	0	0
7208960	0	0
7340032	0	0
7471104	0	0
7602176	0	0
7733248	0	0
7864320	0	0
7995392	0	0
8126464	0	0
8257536	0	0
8388608	493600	493600
8650752	624928	624928
8912896	629600	629600
9175040	523104	523104
9437184	109744	109744
9699328	73280	73280
9961472	50464	50464
10223616	49280	49280
10485760	50688	50688
10747904	49504	49504
11010048	51152	51152
11272192	49824	49824
11534336	48960	48960
11796480	49728	49728
12058624	49856	49856
12320768	49088	49088
12582912	51056	51056
12845056	50832	50832
13107200	50832	50832
13369344	49424	49424
13631488	51456	51456
13893632	50656	50656
14155776	49504	49504
14417920	50496	50496
14680064	49536	49536
14942208	50928	50928
15204352	50448	50448
15466496	51760	51760
15728640	50640	50640
15990784	51424	51424
16252928	50768	50768
16515072	50672	50672
16777216	100624	100624
17301504	100960	100960
17825792	83744	83744
18350080	79952	79952
18874368	82096	82096
19398656	82096	82096
19922944	80640	80640
20447232	82096	82096
20971520	81568	81568
21495808	81008	81008
22020096	81600	81600
22544384	34896	34416
23068672	1776	880
23592960	1680	976
24117248	1728	864
24641536	1680	896
25165824	1792	944
25690112	1744	896
26214400	1712	880
26738688	1808	992
27262976	1648	848
27787264	1760	896
28311552	1696	832
28835840	1744	880
29360128	1648	832
29884416	1552	816
30408704	1808	928
30932992	1616	880
31457280	1568	832
31981568	1760	896
32505856	1744	816
33030144	1600	704
33554432	3392	1680
34603008	3392	1744
35651584	3472	1648
36700160	3280	1648
37748736	3232	1584
38797312	3584	1824
39845888	3776	2000
40894464	48272	46560
41943040	53120	51168
42991616	48592	46848
44040192	49696	47888
45088768	47408	45920
46137344	50976	49024
47185920	10672	8928
48234496	3472	1632
49283072	3552	1856
50331648	3216	1776
51380224	3296	1488
52428800	3344	1728
53477376	3776	1904
54525952	3280	1728
55574528	3440	1760
56623104	3360	1632
57671680	3504	1776
58720256	3216	1600
59768832	3424	1824
60817408	3360	1552
61865984	3776	1904
62914560	3392	1696
63963136	3312	1648
65011712	3392	1552
66060288	3504	1808
67108864	6528	3120
69206016	6800	3376
71303168	6640	3456
73400320	6880	3488
75497472	6736	3456
77594624	7008	3424
79691776	6640	3280
81788928	6816	3376
83886080	6192	3152
85983232	6832	3344
88080384	6704	3616
90177536	6992	3472
92274688	6768	3296
94371840	7136	3776
96468992	6800	3424
98566144	6704	3536
100663296	6752	3360
102760448	6672	3424
104857600	6704	3488
106954752	7376	3712
109051904	6480	3184
111149056	6464	3344
113246208	6880	3600
115343360	6896	3360
117440512	6736	3376
119537664	7232	3840
121634816	6816	3424
123731968	6912	3376
125829120	7264	3680
127926272	6304	3040
130023424	6800	3280
132120576	7152	3456
134217728	13824	7120
138412032	13456	6544
142606336	13632	6656
146800640	13600	6832
150994944	14080	7072
155189248	13760	7008
159383552	13392	7136
163577856	13664	6896
167772160	13248	6848
171966464	13392	6704
176160768	14080	7120
180355072	13776	6800
184549376	13264	6512
188743680	13792	6960
192937984	13472	6800
197132288	13568	6672
201326592	13632	6752
205520896	13120	6512
209715200	13968	7168
213909504	13104	6528
218103808	13632	6960
222298112	13888	6816
226492416	13616	6720
230686720	13504	6624
234881024	14032	7024
239075328	13744	6672
243269632	13760	7152
247463936	14000	6992
251658240	14032	7184
255852544	13696	6864
260046848	13936	7056
264241152	13136	6512
268435456	27568	13968
276824064	27648	13680
285212672	27776	13984
293601280	27168	13152
301989888	27456	13856
310378496	17456	8560
318767104	0	0
327155712	0	0
335544320	0	0
343932928	0	0
352321536	0	0
360710144	0	0
369098752	0	0
377487360	0	0
385875968	0	0
394264576	0	0
402653184	0	0
411041792	0	0
419430400	0	0
427819008	0	0
436207616	0	0
444596224	0	0
452984832	0	0
461373440	0	0
469762048	0	0
478150656	0	0
486539264	0	0
494927872	0	0
503316480	0	0
511705088	0	0
520093696	0	0
528482304	0	0
536870912	0	0
553648128	0	0
570425344	0	0
587202560	0	0
603979776	0	0
620756992	0	0
637534208	0	0
654311424	0	0
671088640	0	0
687865856	0	0
704643072	0	0
721420288	0	0
738197504	0	0
754974720	0	0
771751936	0	0
788529152	0	0
805306368	0	0
822083584	0	0
838860800	0	0
855638016	0	0
872415232	0	0
889192448	0	0
905969664	0	0
922746880	0	0
939524096	0	0
956301312	0	0
973078528	0	0
989855744	0	0
1006632960	0	0
1023410176	0	0
1040187392	0	0
1056964608	0	0
1073741824	0	0
1107296256	0	0
1140850688	0	0
1174405120	0	0
1207959552	0	0
1241513984	0	0
1275068416	0	0
1308622848	0	0
1342177280	0	0
1375731712	0	0
1409286144	0	0
1442840576	0	0
1476395008	0	0
1509949440	0	0
1543503872	0	0
1577058304	0	0
1610612736	0	0
1644167168	0	0
1677721600	0	0
1711276032	0	0
1744830464	0	0
1778384896	0	0
1811939328	0	0
1845493760	0	0
1879048192	0	0
1912602624	0	0
1946157056	0	0
1979711488	0	0
2013265920	0	0
2046820352	0	0
2080374784	0	0
2113929216	0	0
2147483648	0	0
2214592512	0	0
2281701376	0	0
2348810240	0	0
2415919104	0	0
2483027968	0	0
2550136832	0	0
2617245696	0	0
2684354560	0	0
2751463424	0	0
2818572288	0	0
2885681152	0	0
2952790016	0	0
3019898880	0	0
3087007744	0	0
3154116608	0	0
3221225472	0	0
3288334336	0	0
3355443200	0	0
3422552064	0	0
3489660928	0	0
3556769792	0	0
3623878656	0	0
3690987520	0	0
3758096384	0	0
3825205248	0	0
3892314112	0	0
3959422976	0	0
4026531840	0	0
4093640704	0	0
4160749568	0	0
4227858432	0	0
~~~~~~~~~~Reuse Distance Profiler output end~~~~~~~~~~

Sampler size:1638516

DRAM Statistics
 CHANNEL 0
 RQ ROW_BUFFER_HIT:    2029031  ROW_BUFFER_MISS:   29876402
 DBUS AVG_CONGESTED_CYCLE:    3.96104
 WQ ROW_BUFFER_HIT:     355997  ROW_BUFFER_MISS:    2358562  FULL:          0


CPU 0 Branch Prediction Accuracy: 71.6819% MPKI: 17.8691 Average ROB Occupancy at Mispredict: 268.335
Branch type MPKI
BRANCH_DIRECT_JUMP: 1.33333e-06
BRANCH_INDIRECT: 0
BRANCH_CONDITIONAL: 17.8691
BRANCH_DIRECT_CALL: 1.33333e-06
BRANCH_INDIRECT_CALL: 0
BRANCH_RETURN: 6.66667e-07

