
*** ChampSim Multicore Out-of-Order Simulator ***

Warmup Instructions: 50000000
Simulation Instructions: 1500000000
Number of CPUs: 1
Off-chip DRAM Size: 4 GiB Channels: 1 Width: 64-bit Data Rate: 3200 MT/s

VirtualMemory physical capacity: 8588881920 num_ppages: 2096895
VirtualMemory page size: 4096 log2_page_size: 12

CPU 0 runs /s/traces/champsim_traces/605.mcf_s-1152B.champsimtrace.xz
CPU 0 Bimodal branch predictor
Basic BTB sets: 1024 ways: 8 indirect buffer size: 4096 RAS size: 64
Initializing LRU.
Initializing LRU.
Initializing LRU.
Initializing LRU.
Initializing rdLRU.
Initializing LRU.
Heartbeat CPU 0 instructions: 2000002 cycles: 589235 heartbeat IPC: 3.39423 cumulative IPC: 3.39423 (Simulation time: 0 hr 1 min 26 sec) 
Heartbeat CPU 0 instructions: 4000001 cycles: 1177017 heartbeat IPC: 3.40262 cumulative IPC: 3.39842 (Simulation time: 0 hr 2 min 57 sec) 
Heartbeat CPU 0 instructions: 6000000 cycles: 1765784 heartbeat IPC: 3.39693 cumulative IPC: 3.39792 (Simulation time: 0 hr 4 min 26 sec) 
Heartbeat CPU 0 instructions: 8000000 cycles: 2351929 heartbeat IPC: 3.41212 cumulative IPC: 3.40146 (Simulation time: 0 hr 5 min 52 sec) 
Heartbeat CPU 0 instructions: 10000003 cycles: 2938035 heartbeat IPC: 3.41236 cumulative IPC: 3.40364 (Simulation time: 0 hr 7 min 22 sec) 
Heartbeat CPU 0 instructions: 12000002 cycles: 3529956 heartbeat IPC: 3.37883 cumulative IPC: 3.39948 (Simulation time: 0 hr 8 min 50 sec) 
Heartbeat CPU 0 instructions: 14000001 cycles: 4117973 heartbeat IPC: 3.40126 cumulative IPC: 3.39973 (Simulation time: 0 hr 10 min 18 sec) 
Heartbeat CPU 0 instructions: 16000000 cycles: 4705727 heartbeat IPC: 3.40278 cumulative IPC: 3.40011 (Simulation time: 0 hr 11 min 43 sec) 
Heartbeat CPU 0 instructions: 18000003 cycles: 5299495 heartbeat IPC: 3.36832 cumulative IPC: 3.39655 (Simulation time: 0 hr 13 min 13 sec) 
Heartbeat CPU 0 instructions: 20000002 cycles: 5886757 heartbeat IPC: 3.40563 cumulative IPC: 3.39746 (Simulation time: 0 hr 14 min 40 sec) 
Heartbeat CPU 0 instructions: 22000002 cycles: 6472611 heartbeat IPC: 3.41382 cumulative IPC: 3.39894 (Simulation time: 0 hr 16 min 8 sec) 
Heartbeat CPU 0 instructions: 24000001 cycles: 7064179 heartbeat IPC: 3.38084 cumulative IPC: 3.39742 (Simulation time: 0 hr 17 min 36 sec) 
Heartbeat CPU 0 instructions: 26000001 cycles: 7651665 heartbeat IPC: 3.40434 cumulative IPC: 3.39795 (Simulation time: 0 hr 19 min 3 sec) 
Heartbeat CPU 0 instructions: 28000003 cycles: 8239282 heartbeat IPC: 3.40358 cumulative IPC: 3.39835 (Simulation time: 0 hr 20 min 31 sec) 
Heartbeat CPU 0 instructions: 30000001 cycles: 8826350 heartbeat IPC: 3.40676 cumulative IPC: 3.39891 (Simulation time: 0 hr 22 min 0 sec) 
Heartbeat CPU 0 instructions: 32000002 cycles: 9415179 heartbeat IPC: 3.39657 cumulative IPC: 3.39877 (Simulation time: 0 hr 23 min 27 sec) 
Heartbeat CPU 0 instructions: 34000000 cycles: 10002762 heartbeat IPC: 3.40377 cumulative IPC: 3.39906 (Simulation time: 0 hr 24 min 53 sec) 
Heartbeat CPU 0 instructions: 36000000 cycles: 10593160 heartbeat IPC: 3.38755 cumulative IPC: 3.39842 (Simulation time: 0 hr 26 min 17 sec) 
Heartbeat CPU 0 instructions: 38000001 cycles: 11185083 heartbeat IPC: 3.37882 cumulative IPC: 3.39738 (Simulation time: 0 hr 27 min 42 sec) 
Heartbeat CPU 0 instructions: 40000000 cycles: 11773765 heartbeat IPC: 3.39742 cumulative IPC: 3.39738 (Simulation time: 0 hr 29 min 8 sec) 
Heartbeat CPU 0 instructions: 42000004 cycles: 12365147 heartbeat IPC: 3.38192 cumulative IPC: 3.39664 (Simulation time: 0 hr 30 min 31 sec) 
Heartbeat CPU 0 instructions: 44000000 cycles: 12960478 heartbeat IPC: 3.35947 cumulative IPC: 3.39494 (Simulation time: 0 hr 31 min 59 sec) 
Heartbeat CPU 0 instructions: 46000002 cycles: 13549637 heartbeat IPC: 3.39467 cumulative IPC: 3.39493 (Simulation time: 0 hr 33 min 22 sec) 
Heartbeat CPU 0 instructions: 48000001 cycles: 14139027 heartbeat IPC: 3.39334 cumulative IPC: 3.39486 (Simulation time: 0 hr 34 min 44 sec) 
Heartbeat CPU 0 instructions: 50000003 cycles: 14732947 heartbeat IPC: 3.36746 cumulative IPC: 3.39375 (Simulation time: 0 hr 36 min 8 sec) 

Warmup complete CPU 0 instructions: 50000003 cycles: 14732947 (Simulation time: 0 hr 36 min 8 sec) 

Heartbeat CPU 0 instructions: 52000000 cycles: 18921290 heartbeat IPC: 0.477515 cumulative IPC: 0.477515 (Simulation time: 0 hr 37 min 41 sec) 

Region of Interest Statistics
cpu0_DTLB TOTAL     ACCESS:     518085  HIT:     468515  MISS:      49570
cpu0_DTLB LOAD      ACCESS:     410393  HIT:     364786  MISS:      45607
cpu0_DTLB RFO       ACCESS:     107692  HIT:     103729  MISS:       3963
cpu0_DTLB PREFETCH  ACCESS:          0  HIT:          0  MISS:          0
cpu0_DTLB WRITEBACK ACCESS:          0  HIT:          0  MISS:          0
cpu0_ITLB TOTAL     ACCESS:     294216  HIT:     294216  MISS:          0
cpu0_ITLB LOAD      ACCESS:     294216  HIT:     294216  MISS:          0
cpu0_ITLB RFO       ACCESS:          0  HIT:          0  MISS:          0
cpu0_ITLB PREFETCH  ACCESS:          0  HIT:          0  MISS:          0
cpu0_ITLB WRITEBACK ACCESS:          0  HIT:          0  MISS:          0
cpu0_L1I TOTAL     ACCESS:       1518  HIT:       1518  MISS:          0
cpu0_L1I LOAD      ACCESS:       1518  HIT:       1518  MISS:          0
cpu0_L1I RFO       ACCESS:          0  HIT:          0  MISS:          0
cpu0_L1I PREFETCH  ACCESS:          0  HIT:          0  MISS:          0
cpu0_L1I WRITEBACK ACCESS:          0  HIT:          0  MISS:          0
cpu0_STLB TOTAL     ACCESS:      49570  HIT:      48957  MISS:        613
cpu0_STLB LOAD      ACCESS:      45607  HIT:      45000  MISS:        607
cpu0_STLB RFO       ACCESS:       3963  HIT:       3957  MISS:          6
cpu0_STLB PREFETCH  ACCESS:          0  HIT:          0  MISS:          0
cpu0_STLB WRITEBACK ACCESS:          0  HIT:          0  MISS:          0
cpu0_L1D TOTAL     ACCESS:     699353  HIT:     600133  MISS:      99220
cpu0_L1D LOAD      ACCESS:     502712  HIT:     410179  MISS:      92533
cpu0_L1D RFO       ACCESS:     196028  HIT:     189411  MISS:       6617
cpu0_L1D PREFETCH  ACCESS:          0  HIT:          0  MISS:          0
cpu0_L1D WRITEBACK ACCESS:          0  HIT:          0  MISS:          0
cpu0_L2C TOTAL     ACCESS:     108438  HIT:      33209  MISS:      75229
cpu0_L2C LOAD      ACCESS:      92532  HIT:      19881  MISS:      72651
cpu0_L2C RFO       ACCESS:       6617  HIT:       4070  MISS:       2547
cpu0_L2C PREFETCH  ACCESS:          0  HIT:          0  MISS:          0
cpu0_L2C WRITEBACK ACCESS:       9219  HIT:       9208  MISS:         11
LLC TOTAL     ACCESS:      80486  HIT:      52564  MISS:      27922
LLC LOAD      ACCESS:      72651  HIT:      44742  MISS:      27909
LLC RFO       ACCESS:       2547  HIT:       2538  MISS:          9
LLC PREFETCH  ACCESS:          0  HIT:          0  MISS:          0
LLC WRITEBACK ACCESS:       5268  HIT:       5267  MISS:          1
Heartbeat CPU 0 instructions: 54000002 cycles: 23284344 heartbeat IPC: 0.458395 cumulative IPC: 0.46776 (Simulation time: 0 hr 39 min 21 sec) 

Region of Interest Statistics
cpu0_DTLB TOTAL     ACCESS:    1030268  HIT:     923930  MISS:     106338
cpu0_DTLB LOAD      ACCESS:     819576  HIT:     721651  MISS:      97925
cpu0_DTLB RFO       ACCESS:     210692  HIT:     202279  MISS:       8413
cpu0_DTLB PREFETCH  ACCESS:          0  HIT:          0  MISS:          0
cpu0_DTLB WRITEBACK ACCESS:          0  HIT:          0  MISS:          0
cpu0_ITLB TOTAL     ACCESS:     582308  HIT:     582308  MISS:          0
cpu0_ITLB LOAD      ACCESS:     582308  HIT:     582308  MISS:          0
cpu0_ITLB RFO       ACCESS:          0  HIT:          0  MISS:          0
cpu0_ITLB PREFETCH  ACCESS:          0  HIT:          0  MISS:          0
cpu0_ITLB WRITEBACK ACCESS:          0  HIT:          0  MISS:          0
cpu0_L1I TOTAL     ACCESS:       3552  HIT:       3552  MISS:          0
cpu0_L1I LOAD      ACCESS:       3552  HIT:       3552  MISS:          0
cpu0_L1I RFO       ACCESS:          0  HIT:          0  MISS:          0
cpu0_L1I PREFETCH  ACCESS:          0  HIT:          0  MISS:          0
cpu0_L1I WRITEBACK ACCESS:          0  HIT:          0  MISS:          0
cpu0_STLB TOTAL     ACCESS:     106338  HIT:     105030  MISS:       1308
cpu0_STLB LOAD      ACCESS:      97925  HIT:      96630  MISS:       1295
cpu0_STLB RFO       ACCESS:       8413  HIT:       8400  MISS:         13
cpu0_STLB PREFETCH  ACCESS:          0  HIT:          0  MISS:          0
cpu0_STLB WRITEBACK ACCESS:          0  HIT:          0  MISS:          0
cpu0_L1D TOTAL     ACCESS:    1381331  HIT:    1170077  MISS:     211254
cpu0_L1D LOAD      ACCESS:    1000210  HIT:     803105  MISS:     197105
cpu0_L1D RFO       ACCESS:     379814  HIT:     365817  MISS:      13997
cpu0_L1D PREFETCH  ACCESS:          0  HIT:          0  MISS:          0
cpu0_L1D WRITEBACK ACCESS:          0  HIT:          0  MISS:          0
cpu0_L2C TOTAL     ACCESS:     230514  HIT:      68469  MISS:     162045
cpu0_L2C LOAD      ACCESS:     197104  HIT:      40574  MISS:     156530
cpu0_L2C RFO       ACCESS:      13997  HIT:       8544  MISS:       5453
cpu0_L2C PREFETCH  ACCESS:          0  HIT:          0  MISS:          0
cpu0_L2C WRITEBACK ACCESS:      19261  HIT:      19238  MISS:         23
LLC TOTAL     ACCESS:     173136  HIT:     112636  MISS:      60500
LLC LOAD      ACCESS:     156530  HIT:      96056  MISS:      60474
LLC RFO       ACCESS:       5453  HIT:       5434  MISS:         19
LLC PREFETCH  ACCESS:          0  HIT:          0  MISS:          0
LLC WRITEBACK ACCESS:      11114  HIT:      11113  MISS:          1
Heartbeat CPU 0 instructions: 56000000 cycles: 27449387 heartbeat IPC: 0.480187 cumulative IPC: 0.47183 (Simulation time: 0 hr 40 min 55 sec) 

Region of Interest Statistics
cpu0_DTLB TOTAL     ACCESS:    1547935  HIT:    1391792  MISS:     156143
cpu0_DTLB LOAD      ACCESS:    1230883  HIT:    1087345  MISS:     143538
cpu0_DTLB RFO       ACCESS:     317052  HIT:     304447  MISS:      12605
cpu0_DTLB PREFETCH  ACCESS:          0  HIT:          0  MISS:          0
cpu0_DTLB WRITEBACK ACCESS:          0  HIT:          0  MISS:          0
cpu0_ITLB TOTAL     ACCESS:     875693  HIT:     875693  MISS:          0
cpu0_ITLB LOAD      ACCESS:     875693  HIT:     875693  MISS:          0
cpu0_ITLB RFO       ACCESS:          0  HIT:          0  MISS:          0
cpu0_ITLB PREFETCH  ACCESS:          0  HIT:          0  MISS:          0
cpu0_ITLB WRITEBACK ACCESS:          0  HIT:          0  MISS:          0
cpu0_L1I TOTAL     ACCESS:       5045  HIT:       5045  MISS:          0
cpu0_L1I LOAD      ACCESS:       5045  HIT:       5045  MISS:          0
cpu0_L1I RFO       ACCESS:          0  HIT:          0  MISS:          0
cpu0_L1I PREFETCH  ACCESS:          0  HIT:          0  MISS:          0
cpu0_L1I WRITEBACK ACCESS:          0  HIT:          0  MISS:          0
cpu0_STLB TOTAL     ACCESS:     156143  HIT:     154276  MISS:       1867
cpu0_STLB LOAD      ACCESS:     143538  HIT:     141691  MISS:       1847
cpu0_STLB RFO       ACCESS:      12605  HIT:      12585  MISS:         20
cpu0_STLB PREFETCH  ACCESS:          0  HIT:          0  MISS:          0
cpu0_STLB WRITEBACK ACCESS:          0  HIT:          0  MISS:          0
cpu0_L1D TOTAL     ACCESS:    2076265  HIT:    1765453  MISS:     310812
cpu0_L1D LOAD      ACCESS:    1502081  HIT:    1211978  MISS:     290103
cpu0_L1D RFO       ACCESS:     572323  HIT:     551825  MISS:      20498
cpu0_L1D PREFETCH  ACCESS:          0  HIT:          0  MISS:          0
cpu0_L1D WRITEBACK ACCESS:          0  HIT:          0  MISS:          0
cpu0_L2C TOTAL     ACCESS:     339515  HIT:     102113  MISS:     237402
cpu0_L2C LOAD      ACCESS:     290101  HIT:      60863  MISS:     229238
cpu0_L2C RFO       ACCESS:      20498  HIT:      12425  MISS:       8073
cpu0_L2C PREFETCH  ACCESS:          0  HIT:          0  MISS:          0
cpu0_L2C WRITEBACK ACCESS:      28705  HIT:      28671  MISS:         34
LLC TOTAL     ACCESS:     253966  HIT:     165539  MISS:      88427
LLC LOAD      ACCESS:     229238  HIT:     140850  MISS:      88388
LLC RFO       ACCESS:       8073  HIT:       8046  MISS:         27
LLC PREFETCH  ACCESS:          0  HIT:          0  MISS:          0
LLC WRITEBACK ACCESS:      16598  HIT:      16597  MISS:          1
Heartbeat CPU 0 instructions: 58000000 cycles: 31847367 heartbeat IPC: 0.454754 cumulative IPC: 0.467442 (Simulation time: 0 hr 42 min 30 sec) 

Region of Interest Statistics
cpu0_DTLB TOTAL     ACCESS:    2059974  HIT:    1846969  MISS:     213005
cpu0_DTLB LOAD      ACCESS:    1639504  HIT:    1443750  MISS:     195754
cpu0_DTLB RFO       ACCESS:     420470  HIT:     403219  MISS:      17251
cpu0_DTLB PREFETCH  ACCESS:          0  HIT:          0  MISS:          0
cpu0_DTLB WRITEBACK ACCESS:          0  HIT:          0  MISS:          0
cpu0_ITLB TOTAL     ACCESS:    1163369  HIT:    1163369  MISS:          0
cpu0_ITLB LOAD      ACCESS:    1163369  HIT:    1163369  MISS:          0
cpu0_ITLB RFO       ACCESS:          0  HIT:          0  MISS:          0
cpu0_ITLB PREFETCH  ACCESS:          0  HIT:          0  MISS:          0
cpu0_ITLB WRITEBACK ACCESS:          0  HIT:          0  MISS:          0
cpu0_L1I TOTAL     ACCESS:       6922  HIT:       6922  MISS:          0
cpu0_L1I LOAD      ACCESS:       6922  HIT:       6922  MISS:          0
cpu0_L1I RFO       ACCESS:          0  HIT:          0  MISS:          0
cpu0_L1I PREFETCH  ACCESS:          0  HIT:          0  MISS:          0
cpu0_L1I WRITEBACK ACCESS:          0  HIT:          0  MISS:          0
cpu0_STLB TOTAL     ACCESS:     213005  HIT:     210532  MISS:       2473
cpu0_STLB LOAD      ACCESS:     195754  HIT:     193308  MISS:       2446
cpu0_STLB RFO       ACCESS:      17251  HIT:      17224  MISS:         27
cpu0_STLB PREFETCH  ACCESS:          0  HIT:          0  MISS:          0
cpu0_STLB WRITEBACK ACCESS:          0  HIT:          0  MISS:          0
cpu0_L1D TOTAL     ACCESS:    2758869  HIT:    2335771  MISS:     423098
cpu0_L1D LOAD      ACCESS:    1998348  HIT:    1603673  MISS:     394675
cpu0_L1D RFO       ACCESS:     758054  HIT:     729906  MISS:      28148
cpu0_L1D PREFETCH  ACCESS:          0  HIT:          0  MISS:          0
cpu0_L1D WRITEBACK ACCESS:          0  HIT:          0  MISS:          0
cpu0_L2C TOTAL     ACCESS:     462269  HIT:     138138  MISS:     324131
cpu0_L2C LOAD      ACCESS:     394673  HIT:      81659  MISS:     313014
cpu0_L2C RFO       ACCESS:      28148  HIT:      17151  MISS:      10997
cpu0_L2C PREFETCH  ACCESS:          0  HIT:          0  MISS:          0
cpu0_L2C WRITEBACK ACCESS:      39173  HIT:      39128  MISS:         45
LLC TOTAL     ACCESS:     346881  HIT:     225889  MISS:     120992
LLC LOAD      ACCESS:     313013  HIT:     192073  MISS:     120940
LLC RFO       ACCESS:      10997  HIT:      10960  MISS:         37
LLC PREFETCH  ACCESS:          0  HIT:          0  MISS:          0
LLC WRITEBACK ACCESS:      22796  HIT:      22795  MISS:          1
Heartbeat CPU 0 instructions: 60000001 cycles: 36010145 heartbeat IPC: 0.480449 cumulative IPC: 0.469987 (Simulation time: 0 hr 44 min 3 sec) 

Region of Interest Statistics
cpu0_DTLB TOTAL     ACCESS:    2579839  HIT:    2317508  MISS:     262331
cpu0_DTLB LOAD      ACCESS:    2052381  HIT:    1811196  MISS:     241185
cpu0_DTLB RFO       ACCESS:     527458  HIT:     506312  MISS:      21146
cpu0_DTLB PREFETCH  ACCESS:          0  HIT:          0  MISS:          0
cpu0_DTLB WRITEBACK ACCESS:          0  HIT:          0  MISS:          0
cpu0_ITLB TOTAL     ACCESS:    1457179  HIT:    1457179  MISS:          0
cpu0_ITLB LOAD      ACCESS:    1457179  HIT:    1457179  MISS:          0
cpu0_ITLB RFO       ACCESS:          0  HIT:          0  MISS:          0
cpu0_ITLB PREFETCH  ACCESS:          0  HIT:          0  MISS:          0
cpu0_ITLB WRITEBACK ACCESS:          0  HIT:          0  MISS:          0
cpu0_L1I TOTAL     ACCESS:       8835  HIT:       8835  MISS:          0
cpu0_L1I LOAD      ACCESS:       8835  HIT:       8835  MISS:          0
cpu0_L1I RFO       ACCESS:          0  HIT:          0  MISS:          0
cpu0_L1I PREFETCH  ACCESS:          0  HIT:          0  MISS:          0
cpu0_L1I WRITEBACK ACCESS:          0  HIT:          0  MISS:          0
cpu0_STLB TOTAL     ACCESS:     262331  HIT:     259278  MISS:       3053
cpu0_STLB LOAD      ACCESS:     241185  HIT:     238166  MISS:       3019
cpu0_STLB RFO       ACCESS:      21146  HIT:      21112  MISS:         34
cpu0_STLB PREFETCH  ACCESS:          0  HIT:          0  MISS:          0
cpu0_STLB WRITEBACK ACCESS:          0  HIT:          0  MISS:          0
cpu0_L1D TOTAL     ACCESS:    3456758  HIT:    2934240  MISS:     522518
cpu0_L1D LOAD      ACCESS:    2502371  HIT:    2015001  MISS:     487370
cpu0_L1D RFO       ACCESS:     951341  HIT:     916538  MISS:      34803
cpu0_L1D PREFETCH  ACCESS:          0  HIT:          0  MISS:          0
cpu0_L1D WRITEBACK ACCESS:          0  HIT:          0  MISS:          0
cpu0_L2C TOTAL     ACCESS:     570737  HIT:     171801  MISS:     398936
cpu0_L2C LOAD      ACCESS:     487367  HIT:     102063  MISS:     385304
cpu0_L2C RFO       ACCESS:      34803  HIT:      21327  MISS:      13476
cpu0_L2C PREFETCH  ACCESS:          0  HIT:          0  MISS:          0
cpu0_L2C WRITEBACK ACCESS:      48222  HIT:      48163  MISS:         59
LLC TOTAL     ACCESS:     426588  HIT:     277680  MISS:     148908
LLC LOAD      ACCESS:     385301  HIT:     236455  MISS:     148846
LLC RFO       ACCESS:      13476  HIT:      13429  MISS:         47
LLC PREFETCH  ACCESS:          0  HIT:          0  MISS:          0
LLC WRITEBACK ACCESS:      27714  HIT:      27713  MISS:          1
Heartbeat CPU 0 instructions: 62000000 cycles: 40383703 heartbeat IPC: 0.457293 cumulative IPC: 0.467822 (Simulation time: 0 hr 45 min 41 sec) 

Region of Interest Statistics
cpu0_DTLB TOTAL     ACCESS:    3092993  HIT:    2774369  MISS:     318624
cpu0_DTLB LOAD      ACCESS:    2461392  HIT:    2168471  MISS:     292921
cpu0_DTLB RFO       ACCESS:     631601  HIT:     605898  MISS:      25703
cpu0_DTLB PREFETCH  ACCESS:          0  HIT:          0  MISS:          0
cpu0_DTLB WRITEBACK ACCESS:          0  HIT:          0  MISS:          0
cpu0_ITLB TOTAL     ACCESS:    1744535  HIT:    1744535  MISS:          0
cpu0_ITLB LOAD      ACCESS:    1744535  HIT:    1744535  MISS:          0
cpu0_ITLB RFO       ACCESS:          0  HIT:          0  MISS:          0
cpu0_ITLB PREFETCH  ACCESS:          0  HIT:          0  MISS:          0
cpu0_ITLB WRITEBACK ACCESS:          0  HIT:          0  MISS:          0
cpu0_L1I TOTAL     ACCESS:      10220  HIT:      10220  MISS:          0
cpu0_L1I LOAD      ACCESS:      10220  HIT:      10220  MISS:          0
cpu0_L1I RFO       ACCESS:          0  HIT:          0  MISS:          0
cpu0_L1I PREFETCH  ACCESS:          0  HIT:          0  MISS:          0
cpu0_L1I WRITEBACK ACCESS:          0  HIT:          0  MISS:          0
cpu0_STLB TOTAL     ACCESS:     318624  HIT:     314831  MISS:       3793
cpu0_STLB LOAD      ACCESS:     292921  HIT:     289170  MISS:       3751
cpu0_STLB RFO       ACCESS:      25703  HIT:      25661  MISS:         42
cpu0_STLB PREFETCH  ACCESS:          0  HIT:          0  MISS:          0
cpu0_STLB WRITEBACK ACCESS:          0  HIT:          0  MISS:          0
cpu0_L1D TOTAL     ACCESS:    4141182  HIT:    3507490  MISS:     633692
cpu0_L1D LOAD      ACCESS:    2999073  HIT:    2408183  MISS:     590890
cpu0_L1D RFO       ACCESS:    1138331  HIT:    1095950  MISS:      42381
cpu0_L1D PREFETCH  ACCESS:          0  HIT:          0  MISS:          0
cpu0_L1D WRITEBACK ACCESS:          0  HIT:          0  MISS:          0
cpu0_L2C TOTAL     ACCESS:     692058  HIT:     207673  MISS:     484385
cpu0_L2C LOAD      ACCESS:     590887  HIT:     122856  MISS:     468031
cpu0_L2C RFO       ACCESS:      42381  HIT:      26218  MISS:      16163
cpu0_L2C PREFETCH  ACCESS:          0  HIT:          0  MISS:          0
cpu0_L2C WRITEBACK ACCESS:      58369  HIT:      58299  MISS:         70
LLC TOTAL     ACCESS:     517683  HIT:     336385  MISS:     181298
LLC LOAD      ACCESS:     468028  HIT:     286810  MISS:     181218
LLC RFO       ACCESS:      16163  HIT:      16104  MISS:         59
LLC PREFETCH  ACCESS:          0  HIT:          0  MISS:          0
LLC WRITEBACK ACCESS:      33371  HIT:      33370  MISS:          1
Heartbeat CPU 0 instructions: 64000001 cycles: 44587265 heartbeat IPC: 0.475787 cumulative IPC: 0.468944 (Simulation time: 0 hr 47 min 13 sec) 

Region of Interest Statistics
cpu0_DTLB TOTAL     ACCESS:    3611161  HIT:    3242899  MISS:     368262
cpu0_DTLB LOAD      ACCESS:    2871867  HIT:    2533268  MISS:     338599
cpu0_DTLB RFO       ACCESS:     739294  HIT:     709631  MISS:      29663
cpu0_DTLB PREFETCH  ACCESS:          0  HIT:          0  MISS:          0
cpu0_DTLB WRITEBACK ACCESS:          0  HIT:          0  MISS:          0
cpu0_ITLB TOTAL     ACCESS:    2039761  HIT:    2039761  MISS:          0
cpu0_ITLB LOAD      ACCESS:    2039761  HIT:    2039761  MISS:          0
cpu0_ITLB RFO       ACCESS:          0  HIT:          0  MISS:          0
cpu0_ITLB PREFETCH  ACCESS:          0  HIT:          0  MISS:          0
cpu0_ITLB WRITEBACK ACCESS:          0  HIT:          0  MISS:          0
cpu0_L1I TOTAL     ACCESS:      11889  HIT:      11889  MISS:          0
cpu0_L1I LOAD      ACCESS:      11889  HIT:      11889  MISS:          0
cpu0_L1I RFO       ACCESS:          0  HIT:          0  MISS:          0
cpu0_L1I PREFETCH  ACCESS:          0  HIT:          0  MISS:          0
cpu0_L1I WRITEBACK ACCESS:          0  HIT:          0  MISS:          0
cpu0_STLB TOTAL     ACCESS:     368262  HIT:     363779  MISS:       4483
cpu0_STLB LOAD      ACCESS:     338599  HIT:     334164  MISS:       4435
cpu0_STLB RFO       ACCESS:      29663  HIT:      29615  MISS:         48
cpu0_STLB PREFETCH  ACCESS:          0  HIT:          0  MISS:          0
cpu0_STLB WRITEBACK ACCESS:          0  HIT:          0  MISS:          0
cpu0_L1D TOTAL     ACCESS:    4838144  HIT:    4104262  MISS:     733882
cpu0_L1D LOAD      ACCESS:    3501545  HIT:    2817231  MISS:     684314
cpu0_L1D RFO       ACCESS:    1332136  HIT:    1283067  MISS:      49069
cpu0_L1D PREFETCH  ACCESS:          0  HIT:          0  MISS:          0
cpu0_L1D WRITEBACK ACCESS:          0  HIT:          0  MISS:          0
cpu0_L2C TOTAL     ACCESS:     801468  HIT:     241587  MISS:     559881
cpu0_L2C LOAD      ACCESS:     684311  HIT:     143353  MISS:     540958
cpu0_L2C RFO       ACCESS:      49069  HIT:      30371  MISS:      18698
cpu0_L2C PREFETCH  ACCESS:          0  HIT:          0  MISS:          0
cpu0_L2C WRITEBACK ACCESS:      67589  HIT:      67508  MISS:         81
LLC TOTAL     ACCESS:     598339  HIT:     389012  MISS:     209327
LLC LOAD      ACCESS:     540955  HIT:     331718  MISS:     209237
LLC RFO       ACCESS:      18698  HIT:      18630  MISS:         68
LLC PREFETCH  ACCESS:          0  HIT:          0  MISS:          0
LLC WRITEBACK ACCESS:      38542  HIT:      38540  MISS:          2
Heartbeat CPU 0 instructions: 66000000 cycles: 49057313 heartbeat IPC: 0.447422 cumulative IPC: 0.466141 (Simulation time: 0 hr 48 min 51 sec) 

Region of Interest Statistics
cpu0_DTLB TOTAL     ACCESS:    4125286  HIT:    3700422  MISS:     424864
cpu0_DTLB LOAD      ACCESS:    3281886  HIT:    2891252  MISS:     390634
cpu0_DTLB RFO       ACCESS:     843400  HIT:     809170  MISS:      34230
cpu0_DTLB PREFETCH  ACCESS:          0  HIT:          0  MISS:          0
cpu0_DTLB WRITEBACK ACCESS:          0  HIT:          0  MISS:          0
cpu0_ITLB TOTAL     ACCESS:    2329044  HIT:    2329044  MISS:          0
cpu0_ITLB LOAD      ACCESS:    2329044  HIT:    2329044  MISS:          0
cpu0_ITLB RFO       ACCESS:          0  HIT:          0  MISS:          0
cpu0_ITLB PREFETCH  ACCESS:          0  HIT:          0  MISS:          0
cpu0_ITLB WRITEBACK ACCESS:          0  HIT:          0  MISS:          0
cpu0_L1I TOTAL     ACCESS:      13359  HIT:      13359  MISS:          0
cpu0_L1I LOAD      ACCESS:      13359  HIT:      13359  MISS:          0
cpu0_L1I RFO       ACCESS:          0  HIT:          0  MISS:          0
cpu0_L1I PREFETCH  ACCESS:          0  HIT:          0  MISS:          0
cpu0_L1I WRITEBACK ACCESS:          0  HIT:          0  MISS:          0
cpu0_STLB TOTAL     ACCESS:     424864  HIT:     419621  MISS:       5243
cpu0_STLB LOAD      ACCESS:     390634  HIT:     385447  MISS:       5187
cpu0_STLB RFO       ACCESS:      34230  HIT:      34174  MISS:         56
cpu0_STLB PREFETCH  ACCESS:          0  HIT:          0  MISS:          0
cpu0_STLB WRITEBACK ACCESS:          0  HIT:          0  MISS:          0
cpu0_L1D TOTAL     ACCESS:    5523996  HIT:    4677588  MISS:     846408
cpu0_L1D LOAD      ACCESS:    4000187  HIT:    3210952  MISS:     789235
cpu0_L1D RFO       ACCESS:    1518591  HIT:    1461994  MISS:      56597
cpu0_L1D PREFETCH  ACCESS:          0  HIT:          0  MISS:          0
cpu0_L1D WRITEBACK ACCESS:          0  HIT:          0  MISS:          0
cpu0_L2C TOTAL     ACCESS:     924229  HIT:     277792  MISS:     646437
cpu0_L2C LOAD      ACCESS:     789232  HIT:     164550  MISS:     624682
cpu0_L2C RFO       ACCESS:      56597  HIT:      35105  MISS:      21492
cpu0_L2C PREFETCH  ACCESS:          0  HIT:          0  MISS:          0
cpu0_L2C WRITEBACK ACCESS:      77824  HIT:      77727  MISS:         97
LLC TOTAL     ACCESS:     690782  HIT:     448937  MISS:     241845
LLC LOAD      ACCESS:     624678  HIT:     382934  MISS:     241744
LLC RFO       ACCESS:      21492  HIT:      21413  MISS:         79
LLC PREFETCH  ACCESS:          0  HIT:          0  MISS:          0
LLC WRITEBACK ACCESS:      44446  HIT:      44444  MISS:          2
Heartbeat CPU 0 instructions: 68000000 cycles: 53261523 heartbeat IPC: 0.475714 cumulative IPC: 0.467186 (Simulation time: 0 hr 50 min 27 sec) 

Region of Interest Statistics
cpu0_DTLB TOTAL     ACCESS:    4644030  HIT:    4169815  MISS:     474215
cpu0_DTLB LOAD      ACCESS:    3693013  HIT:    3256961  MISS:     436052
cpu0_DTLB RFO       ACCESS:     951017  HIT:     912854  MISS:      38163
cpu0_DTLB PREFETCH  ACCESS:          0  HIT:          0  MISS:          0
cpu0_DTLB WRITEBACK ACCESS:          0  HIT:          0  MISS:          0
cpu0_ITLB TOTAL     ACCESS:    2623894  HIT:    2623894  MISS:          0
cpu0_ITLB LOAD      ACCESS:    2623894  HIT:    2623894  MISS:          0
cpu0_ITLB RFO       ACCESS:          0  HIT:          0  MISS:          0
cpu0_ITLB PREFETCH  ACCESS:          0  HIT:          0  MISS:          0
cpu0_ITLB WRITEBACK ACCESS:          0  HIT:          0  MISS:          0
cpu0_L1I TOTAL     ACCESS:      14671  HIT:      14671  MISS:          0
cpu0_L1I LOAD      ACCESS:      14671  HIT:      14671  MISS:          0
cpu0_L1I RFO       ACCESS:          0  HIT:          0  MISS:          0
cpu0_L1I PREFETCH  ACCESS:          0  HIT:          0  MISS:          0
cpu0_L1I WRITEBACK ACCESS:          0  HIT:          0  MISS:          0
cpu0_STLB TOTAL     ACCESS:     474215  HIT:     468298  MISS:       5917
cpu0_STLB LOAD      ACCESS:     436052  HIT:     430197  MISS:       5855
cpu0_STLB RFO       ACCESS:      38163  HIT:      38101  MISS:         62
cpu0_STLB PREFETCH  ACCESS:          0  HIT:          0  MISS:          0
cpu0_STLB WRITEBACK ACCESS:          0  HIT:          0  MISS:          0
cpu0_L1D TOTAL     ACCESS:    6222189  HIT:    5276835  MISS:     945354
cpu0_L1D LOAD      ACCESS:    4502808  HIT:    3621341  MISS:     881467
cpu0_L1D RFO       ACCESS:    1713491  HIT:    1650252  MISS:      63239
cpu0_L1D PREFETCH  ACCESS:          0  HIT:          0  MISS:          0
cpu0_L1D WRITEBACK ACCESS:          0  HIT:          0  MISS:          0
cpu0_L2C TOTAL     ACCESS:    1032209  HIT:     311209  MISS:     721000
cpu0_L2C LOAD      ACCESS:     881462  HIT:     184773  MISS:     696689
cpu0_L2C RFO       ACCESS:      63239  HIT:      39222  MISS:      24017
cpu0_L2C PREFETCH  ACCESS:          0  HIT:          0  MISS:          0
cpu0_L2C WRITEBACK ACCESS:      86860  HIT:      86752  MISS:        108
LLC TOTAL     ACCESS:     770377  HIT:     500583  MISS:     269794
LLC LOAD      ACCESS:     696685  HIT:     427008  MISS:     269677
LLC RFO       ACCESS:      24017  HIT:      23927  MISS:         90
LLC PREFETCH  ACCESS:          0  HIT:          0  MISS:          0
LLC WRITEBACK ACCESS:      49489  HIT:      49487  MISS:          2
Heartbeat CPU 0 instructions: 70000001 cycles: 57696076 heartbeat IPC: 0.451004 cumulative IPC: 0.465515 (Simulation time: 0 hr 52 min 2 sec) 

Region of Interest Statistics
cpu0_DTLB TOTAL     ACCESS:    5156551  HIT:    4625727  MISS:     530824
cpu0_DTLB LOAD      ACCESS:    4101590  HIT:    3613517  MISS:     488073
cpu0_DTLB RFO       ACCESS:    1054961  HIT:    1012210  MISS:      42751
cpu0_DTLB PREFETCH  ACCESS:          0  HIT:          0  MISS:          0
cpu0_DTLB WRITEBACK ACCESS:          0  HIT:          0  MISS:          0
cpu0_ITLB TOTAL     ACCESS:    2912931  HIT:    2912931  MISS:          0
cpu0_ITLB LOAD      ACCESS:    2912931  HIT:    2912931  MISS:          0
cpu0_ITLB RFO       ACCESS:          0  HIT:          0  MISS:          0
cpu0_ITLB PREFETCH  ACCESS:          0  HIT:          0  MISS:          0
cpu0_ITLB WRITEBACK ACCESS:          0  HIT:          0  MISS:          0
cpu0_L1I TOTAL     ACCESS:      15861  HIT:      15861  MISS:          0
cpu0_L1I LOAD      ACCESS:      15861  HIT:      15861  MISS:          0
cpu0_L1I RFO       ACCESS:          0  HIT:          0  MISS:          0
cpu0_L1I PREFETCH  ACCESS:          0  HIT:          0  MISS:          0
cpu0_L1I WRITEBACK ACCESS:          0  HIT:          0  MISS:          0
cpu0_STLB TOTAL     ACCESS:     530824  HIT:     524130  MISS:       6694
cpu0_STLB LOAD      ACCESS:     488073  HIT:     481449  MISS:       6624
cpu0_STLB RFO       ACCESS:      42751  HIT:      42681  MISS:         70
cpu0_STLB PREFETCH  ACCESS:          0  HIT:          0  MISS:          0
cpu0_STLB WRITEBACK ACCESS:          0  HIT:          0  MISS:          0
cpu0_L1D TOTAL     ACCESS:    6904602  HIT:    5847231  MISS:    1057371
cpu0_L1D LOAD      ACCESS:    4998727  HIT:    4012887  MISS:     985840
cpu0_L1D RFO       ACCESS:    1899212  HIT:    1828404  MISS:      70808
cpu0_L1D PREFETCH  ACCESS:          0  HIT:          0  MISS:          0
cpu0_L1D WRITEBACK ACCESS:          0  HIT:          0  MISS:          0
cpu0_L2C TOTAL     ACCESS:    1154416  HIT:     347011  MISS:     807405
cpu0_L2C LOAD      ACCESS:     985835  HIT:     205494  MISS:     780341
cpu0_L2C RFO       ACCESS:      70808  HIT:      44068  MISS:      26740
cpu0_L2C PREFETCH  ACCESS:          0  HIT:          0  MISS:          0
cpu0_L2C WRITEBACK ACCESS:      97050  HIT:      96934  MISS:        116
LLC TOTAL     ACCESS:     862565  HIT:     560241  MISS:     302324
LLC LOAD      ACCESS:     780337  HIT:     478146  MISS:     302191
LLC RFO       ACCESS:      26740  HIT:      26637  MISS:        103
LLC PREFETCH  ACCESS:          0  HIT:          0  MISS:          0
LLC WRITEBACK ACCESS:      55280  HIT:      55278  MISS:          2
Heartbeat CPU 0 instructions: 72000001 cycles: 61852746 heartbeat IPC: 0.481154 cumulative IPC: 0.466895 (Simulation time: 0 hr 53 min 35 sec) 

Region of Interest Statistics
cpu0_DTLB TOTAL     ACCESS:    5671553  HIT:    5091199  MISS:     580354
cpu0_DTLB LOAD      ACCESS:    4510310  HIT:    3976727  MISS:     533583
cpu0_DTLB RFO       ACCESS:    1161243  HIT:    1114472  MISS:      46771
cpu0_DTLB PREFETCH  ACCESS:          0  HIT:          0  MISS:          0
cpu0_DTLB WRITEBACK ACCESS:          0  HIT:          0  MISS:          0
cpu0_ITLB TOTAL     ACCESS:    3206096  HIT:    3206096  MISS:          0
cpu0_ITLB LOAD      ACCESS:    3206096  HIT:    3206096  MISS:          0
cpu0_ITLB RFO       ACCESS:          0  HIT:          0  MISS:          0
cpu0_ITLB PREFETCH  ACCESS:          0  HIT:          0  MISS:          0
cpu0_ITLB WRITEBACK ACCESS:          0  HIT:          0  MISS:          0
cpu0_L1I TOTAL     ACCESS:      17135  HIT:      17135  MISS:          0
cpu0_L1I LOAD      ACCESS:      17135  HIT:      17135  MISS:          0
cpu0_L1I RFO       ACCESS:          0  HIT:          0  MISS:          0
cpu0_L1I PREFETCH  ACCESS:          0  HIT:          0  MISS:          0
cpu0_L1I WRITEBACK ACCESS:          0  HIT:          0  MISS:          0
cpu0_STLB TOTAL     ACCESS:     580354  HIT:     573036  MISS:       7318
cpu0_STLB LOAD      ACCESS:     533583  HIT:     526344  MISS:       7239
cpu0_STLB RFO       ACCESS:      46771  HIT:      46692  MISS:         79
cpu0_STLB PREFETCH  ACCESS:          0  HIT:          0  MISS:          0
cpu0_STLB WRITEBACK ACCESS:          0  HIT:          0  MISS:          0
cpu0_L1D TOTAL     ACCESS:    7597508  HIT:    6440595  MISS:    1156913
cpu0_L1D LOAD      ACCESS:    5498721  HIT:    4420041  MISS:    1078680
cpu0_L1D RFO       ACCESS:    2091500  HIT:    2014054  MISS:      77446
cpu0_L1D PREFETCH  ACCESS:          0  HIT:          0  MISS:          0
cpu0_L1D WRITEBACK ACCESS:          0  HIT:          0  MISS:          0
cpu0_L2C TOTAL     ACCESS:    1263128  HIT:     380705  MISS:     882423
cpu0_L2C LOAD      ACCESS:    1078675  HIT:     225807  MISS:     852868
cpu0_L2C RFO       ACCESS:      77446  HIT:      48246  MISS:      29200
cpu0_L2C PREFETCH  ACCESS:          0  HIT:          0  MISS:          0
cpu0_L2C WRITEBACK ACCESS:     106220  HIT:     106093  MISS:        127
LLC TOTAL     ACCESS:     942677  HIT:     612467  MISS:     330210
LLC LOAD      ACCESS:     852862  HIT:     522808  MISS:     330054
LLC RFO       ACCESS:      29200  HIT:      29077  MISS:        123
LLC PREFETCH  ACCESS:          0  HIT:          0  MISS:          0
LLC WRITEBACK ACCESS:      60387  HIT:      60384  MISS:          3
Heartbeat CPU 0 instructions: 74000000 cycles: 66141711 heartbeat IPC: 0.466313 cumulative IPC: 0.466846 (Simulation time: 0 hr 55 min 12 sec) 

Region of Interest Statistics
cpu0_DTLB TOTAL     ACCESS:    6183527  HIT:    5548569  MISS:     634958
cpu0_DTLB LOAD      ACCESS:    4917929  HIT:    4334256  MISS:     583673
cpu0_DTLB RFO       ACCESS:    1265598  HIT:    1214313  MISS:      51285
cpu0_DTLB PREFETCH  ACCESS:          0  HIT:          0  MISS:          0
cpu0_DTLB WRITEBACK ACCESS:          0  HIT:          0  MISS:          0
cpu0_ITLB TOTAL     ACCESS:    3494317  HIT:    3494317  MISS:          0
cpu0_ITLB LOAD      ACCESS:    3494317  HIT:    3494317  MISS:          0
cpu0_ITLB RFO       ACCESS:          0  HIT:          0  MISS:          0
cpu0_ITLB PREFETCH  ACCESS:          0  HIT:          0  MISS:          0
cpu0_ITLB WRITEBACK ACCESS:          0  HIT:          0  MISS:          0
cpu0_L1I TOTAL     ACCESS:      18131  HIT:      18131  MISS:          0
cpu0_L1I LOAD      ACCESS:      18131  HIT:      18131  MISS:          0
cpu0_L1I RFO       ACCESS:          0  HIT:          0  MISS:          0
cpu0_L1I PREFETCH  ACCESS:          0  HIT:          0  MISS:          0
cpu0_L1I WRITEBACK ACCESS:          0  HIT:          0  MISS:          0
cpu0_STLB TOTAL     ACCESS:     634958  HIT:     627014  MISS:       7944
cpu0_STLB LOAD      ACCESS:     583673  HIT:     575820  MISS:       7853
cpu0_STLB RFO       ACCESS:      51285  HIT:      51194  MISS:         91
cpu0_STLB PREFETCH  ACCESS:          0  HIT:          0  MISS:          0
cpu0_STLB WRITEBACK ACCESS:          0  HIT:          0  MISS:          0
cpu0_L1D TOTAL     ACCESS:    8284442  HIT:    7020184  MISS:    1264258
cpu0_L1D LOAD      ACCESS:    5994961  HIT:    4816115  MISS:    1178846
cpu0_L1D RFO       ACCESS:    2281568  HIT:    2197016  MISS:      84552
cpu0_L1D PREFETCH  ACCESS:          0  HIT:          0  MISS:          0
cpu0_L1D WRITEBACK ACCESS:          0  HIT:          0  MISS:          0
cpu0_L2C TOTAL     ACCESS:    1380504  HIT:     415598  MISS:     964906
cpu0_L2C LOAD      ACCESS:    1178838  HIT:     246066  MISS:     932772
cpu0_L2C RFO       ACCESS:      84552  HIT:      52798  MISS:      31754
cpu0_L2C PREFETCH  ACCESS:          0  HIT:          0  MISS:          0
cpu0_L2C WRITEBACK ACCESS:     116254  HIT:     116119  MISS:        135
LLC TOTAL     ACCESS:    1030819  HIT:     669740  MISS:     361079
LLC LOAD      ACCESS:     932766  HIT:     571858  MISS:     360908
LLC RFO       ACCESS:      31753  HIT:      31617  MISS:        136
LLC PREFETCH  ACCESS:          0  HIT:          0  MISS:          0
LLC WRITEBACK ACCESS:      66055  HIT:      66052  MISS:          3
Heartbeat CPU 0 instructions: 76000000 cycles: 70390977 heartbeat IPC: 0.47067 cumulative IPC: 0.467138 (Simulation time: 0 hr 56 min 41 sec) 

Region of Interest Statistics
cpu0_DTLB TOTAL     ACCESS:    6697421  HIT:    6010382  MISS:     687039
cpu0_DTLB LOAD      ACCESS:    5327775  HIT:    4696330  MISS:     631445
cpu0_DTLB RFO       ACCESS:    1369646  HIT:    1314052  MISS:      55594
cpu0_DTLB PREFETCH  ACCESS:          0  HIT:          0  MISS:          0
cpu0_DTLB WRITEBACK ACCESS:          0  HIT:          0  MISS:          0
cpu0_ITLB TOTAL     ACCESS:    3785948  HIT:    3785948  MISS:          0
cpu0_ITLB LOAD      ACCESS:    3785948  HIT:    3785948  MISS:          0
cpu0_ITLB RFO       ACCESS:          0  HIT:          0  MISS:          0
cpu0_ITLB PREFETCH  ACCESS:          0  HIT:          0  MISS:          0
cpu0_ITLB WRITEBACK ACCESS:          0  HIT:          0  MISS:          0
cpu0_L1I TOTAL     ACCESS:      19136  HIT:      19136  MISS:          0
cpu0_L1I LOAD      ACCESS:      19136  HIT:      19136  MISS:          0
cpu0_L1I RFO       ACCESS:          0  HIT:          0  MISS:          0
cpu0_L1I PREFETCH  ACCESS:          0  HIT:          0  MISS:          0
cpu0_L1I WRITEBACK ACCESS:          0  HIT:          0  MISS:          0
cpu0_STLB TOTAL     ACCESS:     687039  HIT:     678473  MISS:       8566
cpu0_STLB LOAD      ACCESS:     631445  HIT:     622978  MISS:       8467
cpu0_STLB RFO       ACCESS:      55594  HIT:      55495  MISS:         99
cpu0_STLB PREFETCH  ACCESS:          0  HIT:          0  MISS:          0
cpu0_STLB WRITEBACK ACCESS:          0  HIT:          0  MISS:          0
cpu0_L1D TOTAL     ACCESS:    8971366  HIT:    7602454  MISS:    1368912
cpu0_L1D LOAD      ACCESS:    6494461  HIT:    5217809  MISS:    1276652
cpu0_L1D RFO       ACCESS:    2468370  HIT:    2377046  MISS:      91324
cpu0_L1D PREFETCH  ACCESS:          0  HIT:          0  MISS:          0
cpu0_L1D WRITEBACK ACCESS:          0  HIT:          0  MISS:          0
cpu0_L2C TOTAL     ACCESS:    1494803  HIT:     450016  MISS:    1044787
cpu0_L2C LOAD      ACCESS:    1276644  HIT:     266764  MISS:    1009880
cpu0_L2C RFO       ACCESS:      91324  HIT:      56826  MISS:      34498
cpu0_L2C PREFETCH  ACCESS:          0  HIT:          0  MISS:          0
cpu0_L2C WRITEBACK ACCESS:     125899  HIT:     125754  MISS:        145
LLC TOTAL     ACCESS:    1116535  HIT:     725905  MISS:     390630
LLC LOAD      ACCESS:    1009873  HIT:     619423  MISS:     390450
LLC RFO       ACCESS:      34497  HIT:      34353  MISS:        144
LLC PREFETCH  ACCESS:          0  HIT:          0  MISS:          0
LLC WRITEBACK ACCESS:      71901  HIT:      71898  MISS:          3
Heartbeat CPU 0 instructions: 78000003 cycles: 74560389 heartbeat IPC: 0.479685 cumulative IPC: 0.468013 (Simulation time: 0 hr 58 min 17 sec) 

Region of Interest Statistics
cpu0_DTLB TOTAL     ACCESS:    7211408  HIT:    6473422  MISS:     737986
cpu0_DTLB LOAD      ACCESS:    5735171  HIT:    5057127  MISS:     678044
cpu0_DTLB RFO       ACCESS:    1476237  HIT:    1416295  MISS:      59942
cpu0_DTLB PREFETCH  ACCESS:          0  HIT:          0  MISS:          0
cpu0_DTLB WRITEBACK ACCESS:          0  HIT:          0  MISS:          0
cpu0_ITLB TOTAL     ACCESS:    4078770  HIT:    4078770  MISS:          0
cpu0_ITLB LOAD      ACCESS:    4078770  HIT:    4078770  MISS:          0
cpu0_ITLB RFO       ACCESS:          0  HIT:          0  MISS:          0
cpu0_ITLB PREFETCH  ACCESS:          0  HIT:          0  MISS:          0
cpu0_ITLB WRITEBACK ACCESS:          0  HIT:          0  MISS:          0
cpu0_L1I TOTAL     ACCESS:      20297  HIT:      20297  MISS:          0
cpu0_L1I LOAD      ACCESS:      20297  HIT:      20297  MISS:          0
cpu0_L1I RFO       ACCESS:          0  HIT:          0  MISS:          0
cpu0_L1I PREFETCH  ACCESS:          0  HIT:          0  MISS:          0
cpu0_L1I WRITEBACK ACCESS:          0  HIT:          0  MISS:          0
cpu0_STLB TOTAL     ACCESS:     737986  HIT:     728853  MISS:       9133
cpu0_STLB LOAD      ACCESS:     678044  HIT:     669020  MISS:       9024
cpu0_STLB RFO       ACCESS:      59942  HIT:      59833  MISS:        109
cpu0_STLB PREFETCH  ACCESS:          0  HIT:          0  MISS:          0
cpu0_STLB WRITEBACK ACCESS:          0  HIT:          0  MISS:          0
cpu0_L1D TOTAL     ACCESS:    9663432  HIT:    8193654  MISS:    1469778
cpu0_L1D LOAD      ACCESS:    6992349  HIT:    5621437  MISS:    1370912
cpu0_L1D RFO       ACCESS:    2661981  HIT:    2564120  MISS:      97861
cpu0_L1D PREFETCH  ACCESS:          0  HIT:          0  MISS:          0
cpu0_L1D WRITEBACK ACCESS:          0  HIT:          0  MISS:          0
cpu0_L2C TOTAL     ACCESS:    1605396  HIT:     483564  MISS:    1121832
cpu0_L2C LOAD      ACCESS:    1370905  HIT:     286567  MISS:    1084338
cpu0_L2C RFO       ACCESS:      97861  HIT:      60804  MISS:      37057
cpu0_L2C PREFETCH  ACCESS:          0  HIT:          0  MISS:          0
cpu0_L2C WRITEBACK ACCESS:     135625  HIT:     135468  MISS:        157
LLC TOTAL     ACCESS:    1199092  HIT:     780093  MISS:     418999
LLC LOAD      ACCESS:    1084331  HIT:     665523  MISS:     418808
LLC RFO       ACCESS:      37056  HIT:      36902  MISS:        154
LLC PREFETCH  ACCESS:          0  HIT:          0  MISS:          0
LLC WRITEBACK ACCESS:      77425  HIT:      77421  MISS:          4
Heartbeat CPU 0 instructions: 80000001 cycles: 78970014 heartbeat IPC: 0.453553 cumulative IPC: 0.46702 (Simulation time: 0 hr 59 min 53 sec) 

Region of Interest Statistics
cpu0_DTLB TOTAL     ACCESS:    7725612  HIT:    6931505  MISS:     794107
cpu0_DTLB LOAD      ACCESS:    6145217  HIT:    5415632  MISS:     729585
cpu0_DTLB RFO       ACCESS:    1580395  HIT:    1515873  MISS:      64522
cpu0_DTLB PREFETCH  ACCESS:          0  HIT:          0  MISS:          0
cpu0_DTLB WRITEBACK ACCESS:          0  HIT:          0  MISS:          0
cpu0_ITLB TOTAL     ACCESS:    4368884  HIT:    4368884  MISS:          0
cpu0_ITLB LOAD      ACCESS:    4368884  HIT:    4368884  MISS:          0
cpu0_ITLB RFO       ACCESS:          0  HIT:          0  MISS:          0
cpu0_ITLB PREFETCH  ACCESS:          0  HIT:          0  MISS:          0
cpu0_ITLB WRITEBACK ACCESS:          0  HIT:          0  MISS:          0
cpu0_L1I TOTAL     ACCESS:      21551  HIT:      21551  MISS:          0
cpu0_L1I LOAD      ACCESS:      21551  HIT:      21551  MISS:          0
cpu0_L1I RFO       ACCESS:          0  HIT:          0  MISS:          0
cpu0_L1I PREFETCH  ACCESS:          0  HIT:          0  MISS:          0
cpu0_L1I WRITEBACK ACCESS:          0  HIT:          0  MISS:          0
cpu0_STLB TOTAL     ACCESS:     794107  HIT:     784299  MISS:       9808
cpu0_STLB LOAD      ACCESS:     729585  HIT:     719893  MISS:       9692
cpu0_STLB RFO       ACCESS:      64522  HIT:      64406  MISS:        116
cpu0_STLB PREFETCH  ACCESS:          0  HIT:          0  MISS:          0
cpu0_STLB WRITEBACK ACCESS:          0  HIT:          0  MISS:          0
cpu0_L1D TOTAL     ACCESS:   10348334  HIT:    8767626  MISS:    1580708
cpu0_L1D LOAD      ACCESS:    7490897  HIT:    6016629  MISS:    1474268
cpu0_L1D RFO       ACCESS:    2847662  HIT:    2742305  MISS:     105357
cpu0_L1D PREFETCH  ACCESS:          0  HIT:          0  MISS:          0
cpu0_L1D WRITEBACK ACCESS:          0  HIT:          0  MISS:          0
cpu0_L2C TOTAL     ACCESS:    1726460  HIT:     518949  MISS:    1207511
cpu0_L2C LOAD      ACCESS:    1474256  HIT:     307111  MISS:    1167145
cpu0_L2C RFO       ACCESS:     105357  HIT:      65460  MISS:      39897
cpu0_L2C PREFETCH  ACCESS:          0  HIT:          0  MISS:          0
cpu0_L2C WRITEBACK ACCESS:     145764  HIT:     145597  MISS:        167
LLC TOTAL     ACCESS:    1290912  HIT:     839879  MISS:     451033
LLC LOAD      ACCESS:    1167138  HIT:     716307  MISS:     450831
LLC RFO       ACCESS:      39896  HIT:      39733  MISS:        163
LLC PREFETCH  ACCESS:          0  HIT:          0  MISS:          0
LLC WRITEBACK ACCESS:      83576  HIT:      83572  MISS:          4
Heartbeat CPU 0 instructions: 82000000 cycles: 83200174 heartbeat IPC: 0.472795 cumulative IPC: 0.467377 (Simulation time: 1 hr 1 min 26 sec) 

Region of Interest Statistics
cpu0_DTLB TOTAL     ACCESS:    8241613  HIT:    7395154  MISS:     846459
cpu0_DTLB LOAD      ACCESS:    6555485  HIT:    5777789  MISS:     777696
cpu0_DTLB RFO       ACCESS:    1686128  HIT:    1617365  MISS:      68763
cpu0_DTLB PREFETCH  ACCESS:          0  HIT:          0  MISS:          0
cpu0_DTLB WRITEBACK ACCESS:          0  HIT:          0  MISS:          0
cpu0_ITLB TOTAL     ACCESS:    4659441  HIT:    4659441  MISS:          0
cpu0_ITLB LOAD      ACCESS:    4659441  HIT:    4659441  MISS:          0
cpu0_ITLB RFO       ACCESS:          0  HIT:          0  MISS:          0
cpu0_ITLB PREFETCH  ACCESS:          0  HIT:          0  MISS:          0
cpu0_ITLB WRITEBACK ACCESS:          0  HIT:          0  MISS:          0
cpu0_L1I TOTAL     ACCESS:      23251  HIT:      23251  MISS:          0
cpu0_L1I LOAD      ACCESS:      23251  HIT:      23251  MISS:          0
cpu0_L1I RFO       ACCESS:          0  HIT:          0  MISS:          0
cpu0_L1I PREFETCH  ACCESS:          0  HIT:          0  MISS:          0
cpu0_L1I WRITEBACK ACCESS:          0  HIT:          0  MISS:          0
cpu0_STLB TOTAL     ACCESS:     846459  HIT:     836042  MISS:      10417
cpu0_STLB LOAD      ACCESS:     777696  HIT:     767402  MISS:      10294
cpu0_STLB RFO       ACCESS:      68763  HIT:      68640  MISS:        123
cpu0_STLB PREFETCH  ACCESS:          0  HIT:          0  MISS:          0
cpu0_STLB WRITEBACK ACCESS:          0  HIT:          0  MISS:          0
cpu0_L1D TOTAL     ACCESS:   11037812  HIT:    9353974  MISS:    1683838
cpu0_L1D LOAD      ACCESS:    7989015  HIT:    6418408  MISS:    1570607
cpu0_L1D RFO       ACCESS:    3038414  HIT:    2926348  MISS:     112066
cpu0_L1D PREFETCH  ACCESS:          0  HIT:          0  MISS:          0
cpu0_L1D WRITEBACK ACCESS:          0  HIT:          0  MISS:          0
cpu0_L2C TOTAL     ACCESS:    1839328  HIT:     553011  MISS:    1286317
cpu0_L2C LOAD      ACCESS:    1570594  HIT:     327158  MISS:    1243436
cpu0_L2C RFO       ACCESS:     112066  HIT:      69690  MISS:      42376
cpu0_L2C PREFETCH  ACCESS:          0  HIT:          0  MISS:          0
cpu0_L2C WRITEBACK ACCESS:     155503  HIT:     155325  MISS:        178
LLC TOTAL     ACCESS:    1375150  HIT:     894623  MISS:     480527
LLC LOAD      ACCESS:    1243429  HIT:     763117  MISS:     480312
LLC RFO       ACCESS:      42375  HIT:      42202  MISS:        173
LLC PREFETCH  ACCESS:          0  HIT:          0  MISS:          0
LLC WRITEBACK ACCESS:      89019  HIT:      89014  MISS:          5
Heartbeat CPU 0 instructions: 84000000 cycles: 87543033 heartbeat IPC: 0.460526 cumulative IPC: 0.466968 (Simulation time: 1 hr 3 min 1 sec) 

Region of Interest Statistics
cpu0_DTLB TOTAL     ACCESS:    8755935  HIT:    7855038  MISS:     900897
cpu0_DTLB LOAD      ACCESS:    6964951  HIT:    6137041  MISS:     827910
cpu0_DTLB RFO       ACCESS:    1790984  HIT:    1717997  MISS:      72987
cpu0_DTLB PREFETCH  ACCESS:          0  HIT:          0  MISS:          0
cpu0_DTLB WRITEBACK ACCESS:          0  HIT:          0  MISS:          0
cpu0_ITLB TOTAL     ACCESS:    4950845  HIT:    4950845  MISS:          0
cpu0_ITLB LOAD      ACCESS:    4950845  HIT:    4950845  MISS:          0
cpu0_ITLB RFO       ACCESS:          0  HIT:          0  MISS:          0
cpu0_ITLB PREFETCH  ACCESS:          0  HIT:          0  MISS:          0
cpu0_ITLB WRITEBACK ACCESS:          0  HIT:          0  MISS:          0
cpu0_L1I TOTAL     ACCESS:      24618  HIT:      24618  MISS:          0
cpu0_L1I LOAD      ACCESS:      24618  HIT:      24618  MISS:          0
cpu0_L1I RFO       ACCESS:          0  HIT:          0  MISS:          0
cpu0_L1I PREFETCH  ACCESS:          0  HIT:          0  MISS:          0
cpu0_L1I WRITEBACK ACCESS:          0  HIT:          0  MISS:          0
cpu0_STLB TOTAL     ACCESS:     900897  HIT:     889801  MISS:      11096
cpu0_STLB LOAD      ACCESS:     827910  HIT:     816943  MISS:      10967
cpu0_STLB RFO       ACCESS:      72987  HIT:      72858  MISS:        129
cpu0_STLB PREFETCH  ACCESS:          0  HIT:          0  MISS:          0
cpu0_STLB WRITEBACK ACCESS:          0  HIT:          0  MISS:          0
cpu0_L1D TOTAL     ACCESS:   11725735  HIT:    9933738  MISS:    1791997
cpu0_L1D LOAD      ACCESS:    8487864  HIT:    6816154  MISS:    1671710
cpu0_L1D RFO       ACCESS:    3226812  HIT:    3107763  MISS:     119049
cpu0_L1D PREFETCH  ACCESS:          0  HIT:          0  MISS:          0
cpu0_L1D WRITEBACK ACCESS:          0  HIT:          0  MISS:          0
cpu0_L2C TOTAL     ACCESS:    1957027  HIT:     587612  MISS:    1369415
cpu0_L2C LOAD      ACCESS:    1671697  HIT:     347817  MISS:    1323880
cpu0_L2C RFO       ACCESS:     119049  HIT:      74054  MISS:      44995
cpu0_L2C PREFETCH  ACCESS:          0  HIT:          0  MISS:          0
cpu0_L2C WRITEBACK ACCESS:     165043  HIT:     164851  MISS:        192
LLC TOTAL     ACCESS:    1463969  HIT:     952282  MISS:     511687
LLC LOAD      ACCESS:    1323873  HIT:     812408  MISS:     511465
LLC RFO       ACCESS:      44993  HIT:      44813  MISS:        180
LLC PREFETCH  ACCESS:          0  HIT:          0  MISS:          0
LLC WRITEBACK ACCESS:      94755  HIT:      94750  MISS:          5
Heartbeat CPU 0 instructions: 86000002 cycles: 91871355 heartbeat IPC: 0.462073 cumulative IPC: 0.466694 (Simulation time: 1 hr 4 min 35 sec) 

Region of Interest Statistics
cpu0_DTLB TOTAL     ACCESS:    9264845  HIT:    8306992  MISS:     957853
cpu0_DTLB LOAD      ACCESS:    7371555  HIT:    6491181  MISS:     880374
cpu0_DTLB RFO       ACCESS:    1893290  HIT:    1815811  MISS:      77479
cpu0_DTLB PREFETCH  ACCESS:          0  HIT:          0  MISS:          0
cpu0_DTLB WRITEBACK ACCESS:          0  HIT:          0  MISS:          0
cpu0_ITLB TOTAL     ACCESS:    5238491  HIT:    5238491  MISS:          0
cpu0_ITLB LOAD      ACCESS:    5238491  HIT:    5238491  MISS:          0
cpu0_ITLB RFO       ACCESS:          0  HIT:          0  MISS:          0
cpu0_ITLB PREFETCH  ACCESS:          0  HIT:          0  MISS:          0
cpu0_ITLB WRITEBACK ACCESS:          0  HIT:          0  MISS:          0
cpu0_L1I TOTAL     ACCESS:      26110  HIT:      26110  MISS:          0
cpu0_L1I LOAD      ACCESS:      26110  HIT:      26110  MISS:          0
cpu0_L1I RFO       ACCESS:          0  HIT:          0  MISS:          0
cpu0_L1I PREFETCH  ACCESS:          0  HIT:          0  MISS:          0
cpu0_L1I WRITEBACK ACCESS:          0  HIT:          0  MISS:          0
cpu0_STLB TOTAL     ACCESS:     957853  HIT:     946033  MISS:      11820
cpu0_STLB LOAD      ACCESS:     880374  HIT:     868692  MISS:      11682
cpu0_STLB RFO       ACCESS:      77479  HIT:      77341  MISS:        138
cpu0_STLB PREFETCH  ACCESS:          0  HIT:          0  MISS:          0
cpu0_STLB WRITEBACK ACCESS:          0  HIT:          0  MISS:          0
cpu0_L1D TOTAL     ACCESS:   12404552  HIT:   10500245  MISS:    1904307
cpu0_L1D LOAD      ACCESS:    8982142  HIT:    7205477  MISS:    1776665
cpu0_L1D RFO       ACCESS:    3410629  HIT:    3284308  MISS:     126321
cpu0_L1D PREFETCH  ACCESS:          0  HIT:          0  MISS:          0
cpu0_L1D WRITEBACK ACCESS:          0  HIT:          0  MISS:          0
cpu0_L2C TOTAL     ACCESS:    2079472  HIT:     623697  MISS:    1455775
cpu0_L2C LOAD      ACCESS:    1776652  HIT:     369081  MISS:    1407571
cpu0_L2C RFO       ACCESS:     126321  HIT:      78693  MISS:      47628
cpu0_L2C PREFETCH  ACCESS:          0  HIT:          0  MISS:          0
cpu0_L2C WRITEBACK ACCESS:     175178  HIT:     174977  MISS:        201
LLC TOTAL     ACCESS:    1556118  HIT:    1011891  MISS:     544227
LLC LOAD      ACCESS:    1407564  HIT:     863573  MISS:     543991
LLC RFO       ACCESS:      47626  HIT:      47434  MISS:        192
LLC PREFETCH  ACCESS:          0  HIT:          0  MISS:          0
LLC WRITEBACK ACCESS:     100553  HIT:     100548  MISS:          5
Heartbeat CPU 0 instructions: 88000003 cycles: 96221642 heartbeat IPC: 0.45974 cumulative IPC: 0.466322 (Simulation time: 1 hr 6 min 7 sec) 

Region of Interest Statistics
cpu0_DTLB TOTAL     ACCESS:    9772368  HIT:    8757640  MISS:    1014728
cpu0_DTLB LOAD      ACCESS:    7775755  HIT:    6842970  MISS:     932785
cpu0_DTLB RFO       ACCESS:    1996613  HIT:    1914670  MISS:      81943
cpu0_DTLB PREFETCH  ACCESS:          0  HIT:          0  MISS:          0
cpu0_DTLB WRITEBACK ACCESS:          0  HIT:          0  MISS:          0
cpu0_ITLB TOTAL     ACCESS:    5525616  HIT:    5525616  MISS:          0
cpu0_ITLB LOAD      ACCESS:    5525616  HIT:    5525616  MISS:          0
cpu0_ITLB RFO       ACCESS:          0  HIT:          0  MISS:          0
cpu0_ITLB PREFETCH  ACCESS:          0  HIT:          0  MISS:          0
cpu0_ITLB WRITEBACK ACCESS:          0  HIT:          0  MISS:          0
cpu0_L1I TOTAL     ACCESS:      27205  HIT:      27205  MISS:          0
cpu0_L1I LOAD      ACCESS:      27205  HIT:      27205  MISS:          0
cpu0_L1I RFO       ACCESS:          0  HIT:          0  MISS:          0
cpu0_L1I PREFETCH  ACCESS:          0  HIT:          0  MISS:          0
cpu0_L1I WRITEBACK ACCESS:          0  HIT:          0  MISS:          0
cpu0_STLB TOTAL     ACCESS:    1014728  HIT:    1002210  MISS:      12518
cpu0_STLB LOAD      ACCESS:     932785  HIT:     920412  MISS:      12373
cpu0_STLB RFO       ACCESS:      81943  HIT:      81798  MISS:        145
cpu0_STLB PREFETCH  ACCESS:          0  HIT:          0  MISS:          0
cpu0_STLB WRITEBACK ACCESS:          0  HIT:          0  MISS:          0
cpu0_L1D TOTAL     ACCESS:   13085805  HIT:   11069798  MISS:    2016007
cpu0_L1D LOAD      ACCESS:    9474324  HIT:    7593222  MISS:    1881102
cpu0_L1D RFO       ACCESS:    3599003  HIT:    3465501  MISS:     133502
cpu0_L1D PREFETCH  ACCESS:          0  HIT:          0  MISS:          0
cpu0_L1D WRITEBACK ACCESS:          0  HIT:          0  MISS:          0
cpu0_L2C TOTAL     ACCESS:    2201119  HIT:     659285  MISS:    1541834
cpu0_L2C LOAD      ACCESS:    1881088  HIT:     390177  MISS:    1490911
cpu0_L2C RFO       ACCESS:     133502  HIT:      83188  MISS:      50314
cpu0_L2C PREFETCH  ACCESS:          0  HIT:          0  MISS:          0
cpu0_L2C WRITEBACK ACCESS:     185126  HIT:     184916  MISS:        210
LLC TOTAL     ACCESS:    1647834  HIT:    1071053  MISS:     576781
LLC LOAD      ACCESS:    1490904  HIT:     914376  MISS:     576528
LLC RFO       ACCESS:      50312  HIT:      50106  MISS:        206
LLC PREFETCH  ACCESS:          0  HIT:          0  MISS:          0
LLC WRITEBACK ACCESS:     106219  HIT:     106214  MISS:          5
Heartbeat CPU 0 instructions: 90000004 cycles: 100392268 heartbeat IPC: 0.479545 cumulative IPC: 0.466966 (Simulation time: 1 hr 7 min 43 sec) 

Region of Interest Statistics
cpu0_DTLB TOTAL     ACCESS:   10289258  HIT:    9224151  MISS:    1065107
cpu0_DTLB LOAD      ACCESS:    8186493  HIT:    7207605  MISS:     978888
cpu0_DTLB RFO       ACCESS:    2102765  HIT:    2016546  MISS:      86219
cpu0_DTLB PREFETCH  ACCESS:          0  HIT:          0  MISS:          0
cpu0_DTLB WRITEBACK ACCESS:          0  HIT:          0  MISS:          0
cpu0_ITLB TOTAL     ACCESS:    5819960  HIT:    5819960  MISS:          0
cpu0_ITLB LOAD      ACCESS:    5819960  HIT:    5819960  MISS:          0
cpu0_ITLB RFO       ACCESS:          0  HIT:          0  MISS:          0
cpu0_ITLB PREFETCH  ACCESS:          0  HIT:          0  MISS:          0
cpu0_ITLB WRITEBACK ACCESS:          0  HIT:          0  MISS:          0
cpu0_L1I TOTAL     ACCESS:      28605  HIT:      28605  MISS:          0
cpu0_L1I LOAD      ACCESS:      28605  HIT:      28605  MISS:          0
cpu0_L1I RFO       ACCESS:          0  HIT:          0  MISS:          0
cpu0_L1I PREFETCH  ACCESS:          0  HIT:          0  MISS:          0
cpu0_L1I WRITEBACK ACCESS:          0  HIT:          0  MISS:          0
cpu0_STLB TOTAL     ACCESS:    1065107  HIT:    1051948  MISS:      13159
cpu0_STLB LOAD      ACCESS:     978888  HIT:     965881  MISS:      13007
cpu0_STLB RFO       ACCESS:      86219  HIT:      86067  MISS:        152
cpu0_STLB PREFETCH  ACCESS:          0  HIT:          0  MISS:          0
cpu0_STLB WRITEBACK ACCESS:          0  HIT:          0  MISS:          0
cpu0_L1D TOTAL     ACCESS:   13781259  HIT:   11665460  MISS:    2115799
cpu0_L1D LOAD      ACCESS:    9976697  HIT:    8002167  MISS:    1974530
cpu0_L1D RFO       ACCESS:    3791445  HIT:    3651650  MISS:     139795
cpu0_L1D PREFETCH  ACCESS:          0  HIT:          0  MISS:          0
cpu0_L1D WRITEBACK ACCESS:          0  HIT:          0  MISS:          0
cpu0_L2C TOTAL     ACCESS:    2310341  HIT:     692596  MISS:    1617745
cpu0_L2C LOAD      ACCESS:    1974516  HIT:     410276  MISS:    1564240
cpu0_L2C RFO       ACCESS:     139795  HIT:      86936  MISS:      52859
cpu0_L2C PREFETCH  ACCESS:          0  HIT:          0  MISS:          0
cpu0_L2C WRITEBACK ACCESS:     194556  HIT:     194335  MISS:        221
LLC TOTAL     ACCESS:    1729401  HIT:    1124558  MISS:     604843
LLC LOAD      ACCESS:    1564233  HIT:     959655  MISS:     604578
LLC RFO       ACCESS:      52857  HIT:      52641  MISS:        216
LLC PREFETCH  ACCESS:          0  HIT:          0  MISS:          0
LLC WRITEBACK ACCESS:     111886  HIT:     111880  MISS:          6
Heartbeat CPU 0 instructions: 92000001 cycles: 104785240 heartbeat IPC: 0.455272 cumulative IPC: 0.466396 (Simulation time: 1 hr 9 min 22 sec) 

Region of Interest Statistics
cpu0_DTLB TOTAL     ACCESS:   10799771  HIT:    9676907  MISS:    1122864
cpu0_DTLB LOAD      ACCESS:    8593921  HIT:    7562072  MISS:    1031849
cpu0_DTLB RFO       ACCESS:    2205850  HIT:    2114835  MISS:      91015
cpu0_DTLB PREFETCH  ACCESS:          0  HIT:          0  MISS:          0
cpu0_DTLB WRITEBACK ACCESS:          0  HIT:          0  MISS:          0
cpu0_ITLB TOTAL     ACCESS:    6109592  HIT:    6109592  MISS:          0
cpu0_ITLB LOAD      ACCESS:    6109592  HIT:    6109592  MISS:          0
cpu0_ITLB RFO       ACCESS:          0  HIT:          0  MISS:          0
cpu0_ITLB PREFETCH  ACCESS:          0  HIT:          0  MISS:          0
cpu0_ITLB WRITEBACK ACCESS:          0  HIT:          0  MISS:          0
cpu0_L1I TOTAL     ACCESS:      29916  HIT:      29916  MISS:          0
cpu0_L1I LOAD      ACCESS:      29916  HIT:      29916  MISS:          0
cpu0_L1I RFO       ACCESS:          0  HIT:          0  MISS:          0
cpu0_L1I PREFETCH  ACCESS:          0  HIT:          0  MISS:          0
cpu0_L1I WRITEBACK ACCESS:          0  HIT:          0  MISS:          0
cpu0_STLB TOTAL     ACCESS:    1122865  HIT:    1109017  MISS:      13848
cpu0_STLB LOAD      ACCESS:    1031850  HIT:    1018162  MISS:      13688
cpu0_STLB RFO       ACCESS:      91015  HIT:      90855  MISS:        160
cpu0_STLB PREFETCH  ACCESS:          0  HIT:          0  MISS:          0
cpu0_STLB WRITEBACK ACCESS:          0  HIT:          0  MISS:          0
cpu0_L1D TOTAL     ACCESS:   14462714  HIT:   12234191  MISS:    2228523
cpu0_L1D LOAD      ACCESS:   10472656  HIT:    8392741  MISS:    2079915
cpu0_L1D RFO       ACCESS:    3976255  HIT:    3829208  MISS:     147047
cpu0_L1D PREFETCH  ACCESS:          0  HIT:          0  MISS:          0
cpu0_L1D WRITEBACK ACCESS:          0  HIT:          0  MISS:          0
cpu0_L2C TOTAL     ACCESS:    2433506  HIT:     728492  MISS:    1705014
cpu0_L2C LOAD      ACCESS:    2079899  HIT:     431097  MISS:    1648802
cpu0_L2C RFO       ACCESS:     147047  HIT:      91519  MISS:      55528
cpu0_L2C PREFETCH  ACCESS:          0  HIT:          0  MISS:          0
cpu0_L2C WRITEBACK ACCESS:     204999  HIT:     204766  MISS:        233
LLC TOTAL     ACCESS:    1822840  HIT:    1185496  MISS:     637344
LLC LOAD      ACCESS:    1648796  HIT:    1011728  MISS:     637068
LLC RFO       ACCESS:      55526  HIT:      55301  MISS:        225
LLC PREFETCH  ACCESS:          0  HIT:          0  MISS:          0
LLC WRITEBACK ACCESS:     118067  HIT:     118061  MISS:          6
Heartbeat CPU 0 instructions: 94000000 cycles: 108934511 heartbeat IPC: 0.482012 cumulative IPC: 0.467084 (Simulation time: 1 hr 10 min 54 sec) 

Region of Interest Statistics
cpu0_DTLB TOTAL     ACCESS:   11315269  HIT:   10139787  MISS:    1175482
cpu0_DTLB LOAD      ACCESS:    9004493  HIT:    7924131  MISS:    1080362
cpu0_DTLB RFO       ACCESS:    2310776  HIT:    2215656  MISS:      95120
cpu0_DTLB PREFETCH  ACCESS:          0  HIT:          0  MISS:          0
cpu0_DTLB WRITEBACK ACCESS:          0  HIT:          0  MISS:          0
cpu0_ITLB TOTAL     ACCESS:    6398005  HIT:    6398005  MISS:          0
cpu0_ITLB LOAD      ACCESS:    6398005  HIT:    6398005  MISS:          0
cpu0_ITLB RFO       ACCESS:          0  HIT:          0  MISS:          0
cpu0_ITLB PREFETCH  ACCESS:          0  HIT:          0  MISS:          0
cpu0_ITLB WRITEBACK ACCESS:          0  HIT:          0  MISS:          0
cpu0_L1I TOTAL     ACCESS:      31753  HIT:      31753  MISS:          0
cpu0_L1I LOAD      ACCESS:      31753  HIT:      31753  MISS:          0
cpu0_L1I RFO       ACCESS:          0  HIT:          0  MISS:          0
cpu0_L1I PREFETCH  ACCESS:          0  HIT:          0  MISS:          0
cpu0_L1I WRITEBACK ACCESS:          0  HIT:          0  MISS:          0
cpu0_STLB TOTAL     ACCESS:    1175482  HIT:    1160968  MISS:      14514
cpu0_STLB LOAD      ACCESS:    1080362  HIT:    1066015  MISS:      14347
cpu0_STLB RFO       ACCESS:      95120  HIT:      94953  MISS:        167
cpu0_STLB PREFETCH  ACCESS:          0  HIT:          0  MISS:          0
cpu0_STLB WRITEBACK ACCESS:          0  HIT:          0  MISS:          0
cpu0_L1D TOTAL     ACCESS:   15153020  HIT:   12821671  MISS:    2331349
cpu0_L1D LOAD      ACCESS:   10972449  HIT:    8796330  MISS:    2176119
cpu0_L1D RFO       ACCESS:    4166106  HIT:    4012513  MISS:     153593
cpu0_L1D PREFETCH  ACCESS:          0  HIT:          0  MISS:          0
cpu0_L1D WRITEBACK ACCESS:          0  HIT:          0  MISS:          0
cpu0_L2C TOTAL     ACCESS:    2545654  HIT:     762388  MISS:    1783266
cpu0_L2C LOAD      ACCESS:    2176103  HIT:     451464  MISS:    1724639
cpu0_L2C RFO       ACCESS:     153593  HIT:      95680  MISS:      57913
cpu0_L2C PREFETCH  ACCESS:          0  HIT:          0  MISS:          0
cpu0_L2C WRITEBACK ACCESS:     214321  HIT:     214078  MISS:        243
LLC TOTAL     ACCESS:    1906211  HIT:    1239380  MISS:     666831
LLC LOAD      ACCESS:    1724632  HIT:    1058087  MISS:     666545
LLC RFO       ACCESS:      57911  HIT:      57677  MISS:        234
LLC PREFETCH  ACCESS:          0  HIT:          0  MISS:          0
LLC WRITEBACK ACCESS:     123197  HIT:     123191  MISS:          6
Heartbeat CPU 0 instructions: 96000003 cycles: 113213417 heartbeat IPC: 0.46741 cumulative IPC: 0.467098 (Simulation time: 1 hr 12 min 30 sec) 

Region of Interest Statistics
cpu0_DTLB TOTAL     ACCESS:   11827258  HIT:   10597565  MISS:    1229693
cpu0_DTLB LOAD      ACCESS:    9412017  HIT:    8281567  MISS:    1130450
cpu0_DTLB RFO       ACCESS:    2415241  HIT:    2315998  MISS:      99243
cpu0_DTLB PREFETCH  ACCESS:          0  HIT:          0  MISS:          0
cpu0_DTLB WRITEBACK ACCESS:          0  HIT:          0  MISS:          0
cpu0_ITLB TOTAL     ACCESS:    6688616  HIT:    6688616  MISS:          0
cpu0_ITLB LOAD      ACCESS:    6688616  HIT:    6688616  MISS:          0
cpu0_ITLB RFO       ACCESS:          0  HIT:          0  MISS:          0
cpu0_ITLB PREFETCH  ACCESS:          0  HIT:          0  MISS:          0
cpu0_ITLB WRITEBACK ACCESS:          0  HIT:          0  MISS:          0
cpu0_L1I TOTAL     ACCESS:      33403  HIT:      33403  MISS:          0
cpu0_L1I LOAD      ACCESS:      33403  HIT:      33403  MISS:          0
cpu0_L1I RFO       ACCESS:          0  HIT:          0  MISS:          0
cpu0_L1I PREFETCH  ACCESS:          0  HIT:          0  MISS:          0
cpu0_L1I WRITEBACK ACCESS:          0  HIT:          0  MISS:          0
cpu0_STLB TOTAL     ACCESS:    1229693  HIT:    1214454  MISS:      15239
cpu0_STLB LOAD      ACCESS:    1130450  HIT:    1115384  MISS:      15066
cpu0_STLB RFO       ACCESS:      99243  HIT:      99070  MISS:        173
cpu0_STLB PREFETCH  ACCESS:          0  HIT:          0  MISS:          0
cpu0_STLB WRITEBACK ACCESS:          0  HIT:          0  MISS:          0
cpu0_L1D TOTAL     ACCESS:   15838170  HIT:   13399992  MISS:    2438178
cpu0_L1D LOAD      ACCESS:   11468545  HIT:    9192491  MISS:    2276054
cpu0_L1D RFO       ACCESS:    4354437  HIT:    4194025  MISS:     160412
cpu0_L1D PREFETCH  ACCESS:          0  HIT:          0  MISS:          0
cpu0_L1D WRITEBACK ACCESS:          0  HIT:          0  MISS:          0
cpu0_L2C TOTAL     ACCESS:    2661750  HIT:     796270  MISS:    1865480
cpu0_L2C LOAD      ACCESS:    2276038  HIT:     471990  MISS:    1804048
cpu0_L2C RFO       ACCESS:     160411  HIT:      99725  MISS:      60686
cpu0_L2C PREFETCH  ACCESS:          0  HIT:          0  MISS:          0
cpu0_L2C WRITEBACK ACCESS:     223589  HIT:     223334  MISS:        255
LLC TOTAL     ACCESS:    1994162  HIT:    1296399  MISS:     697763
LLC LOAD      ACCESS:    1804041  HIT:    1106576  MISS:     697465
LLC RFO       ACCESS:      60684  HIT:      60440  MISS:        244
LLC PREFETCH  ACCESS:          0  HIT:          0  MISS:          0
LLC WRITEBACK ACCESS:     128946  HIT:     128940  MISS:          6
Heartbeat CPU 0 instructions: 98000000 cycles: 117566081 heartbeat IPC: 0.459488 cumulative IPC: 0.466776 (Simulation time: 1 hr 14 min 7 sec) 

Region of Interest Statistics
cpu0_DTLB TOTAL     ACCESS:   12334518  HIT:   11047203  MISS:    1287315
cpu0_DTLB LOAD      ACCESS:    9816961  HIT:    8633523  MISS:    1183438
cpu0_DTLB RFO       ACCESS:    2517557  HIT:    2413680  MISS:     103877
cpu0_DTLB PREFETCH  ACCESS:          0  HIT:          0  MISS:          0
cpu0_DTLB WRITEBACK ACCESS:          0  HIT:          0  MISS:          0
cpu0_ITLB TOTAL     ACCESS:    6975892  HIT:    6975892  MISS:          0
cpu0_ITLB LOAD      ACCESS:    6975892  HIT:    6975892  MISS:          0
cpu0_ITLB RFO       ACCESS:          0  HIT:          0  MISS:          0
cpu0_ITLB PREFETCH  ACCESS:          0  HIT:          0  MISS:          0
cpu0_ITLB WRITEBACK ACCESS:          0  HIT:          0  MISS:          0
cpu0_L1I TOTAL     ACCESS:      34965  HIT:      34965  MISS:          0
cpu0_L1I LOAD      ACCESS:      34965  HIT:      34965  MISS:          0
cpu0_L1I RFO       ACCESS:          0  HIT:          0  MISS:          0
cpu0_L1I PREFETCH  ACCESS:          0  HIT:          0  MISS:          0
cpu0_L1I WRITEBACK ACCESS:          0  HIT:          0  MISS:          0
cpu0_STLB TOTAL     ACCESS:    1287315  HIT:    1271323  MISS:      15992
cpu0_STLB LOAD      ACCESS:    1183438  HIT:    1167632  MISS:      15806
cpu0_STLB RFO       ACCESS:     103877  HIT:     103691  MISS:        186
cpu0_STLB PREFETCH  ACCESS:          0  HIT:          0  MISS:          0
cpu0_STLB WRITEBACK ACCESS:          0  HIT:          0  MISS:          0
cpu0_L1D TOTAL     ACCESS:   16518026  HIT:   13967837  MISS:    2550189
cpu0_L1D LOAD      ACCESS:   11961394  HIT:    9580306  MISS:    2381088
cpu0_L1D RFO       ACCESS:    4540695  HIT:    4373384  MISS:     167311
cpu0_L1D PREFETCH  ACCESS:          0  HIT:          0  MISS:          0
cpu0_L1D WRITEBACK ACCESS:          0  HIT:          0  MISS:          0
cpu0_L2C TOTAL     ACCESS:    2783951  HIT:     831792  MISS:    1952159
cpu0_L2C LOAD      ACCESS:    2381072  HIT:     493094  MISS:    1887978
cpu0_L2C RFO       ACCESS:     167310  HIT:     103910  MISS:      63400
cpu0_L2C PREFETCH  ACCESS:          0  HIT:          0  MISS:          0
cpu0_L2C WRITEBACK ACCESS:     233779  HIT:     233513  MISS:        266
LLC TOTAL     ACCESS:    2086908  HIT:    1356327  MISS:     730581
LLC LOAD      ACCESS:    1887971  HIT:    1157700  MISS:     730271
LLC RFO       ACCESS:      63398  HIT:      63145  MISS:        253
LLC PREFETCH  ACCESS:          0  HIT:          0  MISS:          0
LLC WRITEBACK ACCESS:     135024  HIT:     135017  MISS:          7
Heartbeat CPU 0 instructions: 100000001 cycles: 121832739 heartbeat IPC: 0.468751 cumulative IPC: 0.466854 (Simulation time: 1 hr 15 min 47 sec) 

Region of Interest Statistics
cpu0_DTLB TOTAL     ACCESS:   12843828  HIT:   11499135  MISS:    1344693
cpu0_DTLB LOAD      ACCESS:   10224757  HIT:    8988442  MISS:    1236315
cpu0_DTLB RFO       ACCESS:    2619071  HIT:    2510693  MISS:     108378
cpu0_DTLB PREFETCH  ACCESS:          0  HIT:          0  MISS:          0
cpu0_DTLB WRITEBACK ACCESS:          0  HIT:          0  MISS:          0
cpu0_ITLB TOTAL     ACCESS:    7261403  HIT:    7261403  MISS:          0
cpu0_ITLB LOAD      ACCESS:    7261403  HIT:    7261403  MISS:          0
cpu0_ITLB RFO       ACCESS:          0  HIT:          0  MISS:          0
cpu0_ITLB PREFETCH  ACCESS:          0  HIT:          0  MISS:          0
cpu0_ITLB WRITEBACK ACCESS:          0  HIT:          0  MISS:          0
cpu0_L1I TOTAL     ACCESS:      36542  HIT:      36542  MISS:          0
cpu0_L1I LOAD      ACCESS:      36542  HIT:      36542  MISS:          0
cpu0_L1I RFO       ACCESS:          0  HIT:          0  MISS:          0
cpu0_L1I PREFETCH  ACCESS:          0  HIT:          0  MISS:          0
cpu0_L1I WRITEBACK ACCESS:          0  HIT:          0  MISS:          0
cpu0_STLB TOTAL     ACCESS:    1344693  HIT:    1327985  MISS:      16708
cpu0_STLB LOAD      ACCESS:    1236315  HIT:    1219800  MISS:      16515
cpu0_STLB RFO       ACCESS:     108378  HIT:     108185  MISS:        193
cpu0_STLB PREFETCH  ACCESS:          0  HIT:          0  MISS:          0
cpu0_STLB WRITEBACK ACCESS:          0  HIT:          0  MISS:          0
cpu0_L1D TOTAL     ACCESS:   17197369  HIT:   14535902  MISS:    2661467
cpu0_L1D LOAD      ACCESS:   12456302  HIT:    9970685  MISS:    2485617
cpu0_L1D RFO       ACCESS:    4724414  HIT:    4550436  MISS:     173978
cpu0_L1D PREFETCH  ACCESS:          0  HIT:          0  MISS:          0
cpu0_L1D WRITEBACK ACCESS:          0  HIT:          0  MISS:          0
cpu0_L2C TOTAL     ACCESS:    2904988  HIT:     866496  MISS:    2038492
cpu0_L2C LOAD      ACCESS:    2485601  HIT:     513872  MISS:    1971729
cpu0_L2C RFO       ACCESS:     173977  HIT:     108030  MISS:      65947
cpu0_L2C PREFETCH  ACCESS:          0  HIT:          0  MISS:          0
cpu0_L2C WRITEBACK ACCESS:     243538  HIT:     243260  MISS:        278
LLC TOTAL     ACCESS:    2179041  HIT:    1415926  MISS:     763115
LLC LOAD      ACCESS:    1971722  HIT:    1208929  MISS:     762793
LLC RFO       ACCESS:      65945  HIT:      65682  MISS:        263
LLC PREFETCH  ACCESS:          0  HIT:          0  MISS:          0
LLC WRITEBACK ACCESS:     140836  HIT:     140829  MISS:          7
Heartbeat CPU 0 instructions: 102000004 cycles: 126142546 heartbeat IPC: 0.464059 cumulative IPC: 0.466746 (Simulation time: 1 hr 17 min 24 sec) 

Region of Interest Statistics
cpu0_DTLB TOTAL     ACCESS:   13355942  HIT:   11953628  MISS:    1402314
cpu0_DTLB LOAD      ACCESS:   10634525  HIT:    9345229  MISS:    1289296
cpu0_DTLB RFO       ACCESS:    2721417  HIT:    2608399  MISS:     113018
cpu0_DTLB PREFETCH  ACCESS:          0  HIT:          0  MISS:          0
cpu0_DTLB WRITEBACK ACCESS:          0  HIT:          0  MISS:          0
cpu0_ITLB TOTAL     ACCESS:    7548406  HIT:    7548406  MISS:          0
cpu0_ITLB LOAD      ACCESS:    7548406  HIT:    7548406  MISS:          0
cpu0_ITLB RFO       ACCESS:          0  HIT:          0  MISS:          0
cpu0_ITLB PREFETCH  ACCESS:          0  HIT:          0  MISS:          0
cpu0_ITLB WRITEBACK ACCESS:          0  HIT:          0  MISS:          0
cpu0_L1I TOTAL     ACCESS:      38035  HIT:      38035  MISS:          0
cpu0_L1I LOAD      ACCESS:      38035  HIT:      38035  MISS:          0
cpu0_L1I RFO       ACCESS:          0  HIT:          0  MISS:          0
cpu0_L1I PREFETCH  ACCESS:          0  HIT:          0  MISS:          0
cpu0_L1I WRITEBACK ACCESS:          0  HIT:          0  MISS:          0
cpu0_STLB TOTAL     ACCESS:    1402314  HIT:    1384907  MISS:      17407
cpu0_STLB LOAD      ACCESS:    1289296  HIT:    1272090  MISS:      17206
cpu0_STLB RFO       ACCESS:     113018  HIT:     112817  MISS:        201
cpu0_STLB PREFETCH  ACCESS:          0  HIT:          0  MISS:          0
cpu0_STLB WRITEBACK ACCESS:          0  HIT:          0  MISS:          0
cpu0_L1D TOTAL     ACCESS:   17880629  HIT:   15107287  MISS:    2773342
cpu0_L1D LOAD      ACCESS:   12954294  HIT:   10363586  MISS:    2590708
cpu0_L1D RFO       ACCESS:    4908985  HIT:    4728290  MISS:     180695
cpu0_L1D PREFETCH  ACCESS:          0  HIT:          0  MISS:          0
cpu0_L1D WRITEBACK ACCESS:          0  HIT:          0  MISS:          0
cpu0_L2C TOTAL     ACCESS:    3026800  HIT:     901488  MISS:    2125312
cpu0_L2C LOAD      ACCESS:    2590691  HIT:     534862  MISS:    2055829
cpu0_L2C RFO       ACCESS:     180694  HIT:     112059  MISS:      68635
cpu0_L2C PREFETCH  ACCESS:          0  HIT:          0  MISS:          0
cpu0_L2C WRITEBACK ACCESS:     253476  HIT:     253186  MISS:        290
LLC TOTAL     ACCESS:    2271916  HIT:    1476355  MISS:     795561
LLC LOAD      ACCESS:    2055822  HIT:    1260598  MISS:     795224
LLC RFO       ACCESS:      68633  HIT:      68357  MISS:        276
LLC PREFETCH  ACCESS:          0  HIT:          0  MISS:          0
LLC WRITEBACK ACCESS:     146903  HIT:     146896  MISS:          7
Heartbeat CPU 0 instructions: 104000003 cycles: 130471977 heartbeat IPC: 0.461954 cumulative IPC: 0.466567 (Simulation time: 1 hr 19 min 6 sec) 

Region of Interest Statistics
cpu0_DTLB TOTAL     ACCESS:   13865083  HIT:   12405055  MISS:    1460028
cpu0_DTLB LOAD      ACCESS:   11041667  HIT:    9699501  MISS:    1342166
cpu0_DTLB RFO       ACCESS:    2823416  HIT:    2705554  MISS:     117862
cpu0_DTLB PREFETCH  ACCESS:          0  HIT:          0  MISS:          0
cpu0_DTLB WRITEBACK ACCESS:          0  HIT:          0  MISS:          0
cpu0_ITLB TOTAL     ACCESS:    7834729  HIT:    7834729  MISS:          0
cpu0_ITLB LOAD      ACCESS:    7834729  HIT:    7834729  MISS:          0
cpu0_ITLB RFO       ACCESS:          0  HIT:          0  MISS:          0
cpu0_ITLB PREFETCH  ACCESS:          0  HIT:          0  MISS:          0
cpu0_ITLB WRITEBACK ACCESS:          0  HIT:          0  MISS:          0
cpu0_L1I TOTAL     ACCESS:      39432  HIT:      39432  MISS:          0
cpu0_L1I LOAD      ACCESS:      39432  HIT:      39432  MISS:          0
cpu0_L1I RFO       ACCESS:          0  HIT:          0  MISS:          0
cpu0_L1I PREFETCH  ACCESS:          0  HIT:          0  MISS:          0
cpu0_L1I WRITEBACK ACCESS:          0  HIT:          0  MISS:          0
cpu0_STLB TOTAL     ACCESS:    1460028  HIT:    1441898  MISS:      18130
cpu0_STLB LOAD      ACCESS:    1342166  HIT:    1324249  MISS:      17917
cpu0_STLB RFO       ACCESS:     117862  HIT:     117649  MISS:        213
cpu0_STLB PREFETCH  ACCESS:          0  HIT:          0  MISS:          0
cpu0_STLB WRITEBACK ACCESS:          0  HIT:          0  MISS:          0
cpu0_L1D TOTAL     ACCESS:   18560987  HIT:   15675191  MISS:    2885796
cpu0_L1D LOAD      ACCESS:   13449536  HIT:   10753145  MISS:    2696391
cpu0_L1D RFO       ACCESS:    5093382  HIT:    4905993  MISS:     187389
cpu0_L1D PREFETCH  ACCESS:          0  HIT:          0  MISS:          0
cpu0_L1D WRITEBACK ACCESS:          0  HIT:          0  MISS:          0
cpu0_L2C TOTAL     ACCESS:    3149497  HIT:     936638  MISS:    2212859
cpu0_L2C LOAD      ACCESS:    2696373  HIT:     555800  MISS:    2140573
cpu0_L2C RFO       ACCESS:     187388  HIT:     115983  MISS:      71405
cpu0_L2C PREFETCH  ACCESS:          0  HIT:          0  MISS:          0
cpu0_L2C WRITEBACK ACCESS:     263720  HIT:     263416  MISS:        304
LLC TOTAL     ACCESS:    2365849  HIT:    1537547  MISS:     828302
LLC LOAD      ACCESS:    2140566  HIT:    1312616  MISS:     827950
LLC RFO       ACCESS:      71403  HIT:      71115  MISS:        288
LLC PREFETCH  ACCESS:          0  HIT:          0  MISS:          0
LLC WRITEBACK ACCESS:     153303  HIT:     153295  MISS:          8
Heartbeat CPU 0 instructions: 106000000 cycles: 134746073 heartbeat IPC: 0.467935 cumulative IPC: 0.466616 (Simulation time: 1 hr 20 min 44 sec) 

Region of Interest Statistics
cpu0_DTLB TOTAL     ACCESS:   14375288  HIT:   12857853  MISS:    1517435
cpu0_DTLB LOAD      ACCESS:   11449385  HIT:   10054407  MISS:    1394978
cpu0_DTLB RFO       ACCESS:    2925903  HIT:    2803446  MISS:     122457
cpu0_DTLB PREFETCH  ACCESS:          0  HIT:          0  MISS:          0
cpu0_DTLB WRITEBACK ACCESS:          0  HIT:          0  MISS:          0
cpu0_ITLB TOTAL     ACCESS:    8121254  HIT:    8121254  MISS:          0
cpu0_ITLB LOAD      ACCESS:    8121254  HIT:    8121254  MISS:          0
cpu0_ITLB RFO       ACCESS:          0  HIT:          0  MISS:          0
cpu0_ITLB PREFETCH  ACCESS:          0  HIT:          0  MISS:          0
cpu0_ITLB WRITEBACK ACCESS:          0  HIT:          0  MISS:          0
cpu0_L1I TOTAL     ACCESS:      40909  HIT:      40909  MISS:          0
cpu0_L1I LOAD      ACCESS:      40909  HIT:      40909  MISS:          0
cpu0_L1I RFO       ACCESS:          0  HIT:          0  MISS:          0
cpu0_L1I PREFETCH  ACCESS:          0  HIT:          0  MISS:          0
cpu0_L1I WRITEBACK ACCESS:          0  HIT:          0  MISS:          0
cpu0_STLB TOTAL     ACCESS:    1517435  HIT:    1498616  MISS:      18819
cpu0_STLB LOAD      ACCESS:    1394978  HIT:    1376379  MISS:      18599
cpu0_STLB RFO       ACCESS:     122457  HIT:     122237  MISS:        220
cpu0_STLB PREFETCH  ACCESS:          0  HIT:          0  MISS:          0
cpu0_STLB WRITEBACK ACCESS:          0  HIT:          0  MISS:          0
cpu0_L1D TOTAL     ACCESS:   19243269  HIT:   16245739  MISS:    2997530
cpu0_L1D LOAD      ACCESS:   13945684  HIT:   11144349  MISS:    2801335
cpu0_L1D RFO       ACCESS:    5278828  HIT:    5084728  MISS:     194100
cpu0_L1D PREFETCH  ACCESS:          0  HIT:          0  MISS:          0
cpu0_L1D WRITEBACK ACCESS:          0  HIT:          0  MISS:          0
cpu0_L2C TOTAL     ACCESS:    3271099  HIT:     971310  MISS:    2299789
cpu0_L2C LOAD      ACCESS:    2801316  HIT:     576557  MISS:    2224759
cpu0_L2C RFO       ACCESS:     194099  HIT:     119983  MISS:      74116
cpu0_L2C PREFETCH  ACCESS:          0  HIT:          0  MISS:          0
[...]
cpu0_L1I PREFETCH  ACCESS:          0  HIT:          0  MISS:          0
cpu0_L1I WRITEBACK ACCESS:          0  HIT:          0  MISS:          0
cpu0_L1I TRANSLATION ACCESS:          0  HIT:          0  MISS:          0
cpu0_L1I PREFETCH  REQUESTED:          0  ISSUED:          0  USEFUL:          0  USELESS:          0
cpu0_L1I AVERAGE MISS LATENCY: 194 cycles
cpu0_STLB TOTAL     ACCESS:   55438239  HIT:   54698638  MISS:     739601
cpu0_STLB LOAD      ACCESS:   52172263  HIT:   51442749  MISS:     729514
cpu0_STLB RFO       ACCESS:    3265976  HIT:    3255889  MISS:      10087
cpu0_STLB PREFETCH  ACCESS:          0  HIT:          0  MISS:          0
cpu0_STLB WRITEBACK ACCESS:          0  HIT:          0  MISS:          0
cpu0_STLB TRANSLATION ACCESS:          0  HIT:          0  MISS:          0
cpu0_STLB PREFETCH  REQUESTED:          0  ISSUED:          0  USEFUL:          0  USELESS:          0
cpu0_STLB AVERAGE MISS LATENCY: 126.886 cycles
cpu0_L1D TOTAL     ACCESS:  479781678  HIT:  374492761  MISS:  105288917
cpu0_L1D LOAD      ACCESS:  357488020  HIT:  256802006  MISS:  100686014
cpu0_L1D RFO       ACCESS:  121555676  HIT:  117030026  MISS:    4525650
cpu0_L1D PREFETCH  ACCESS:          0  HIT:          0  MISS:          0
cpu0_L1D WRITEBACK ACCESS:          0  HIT:          0  MISS:          0
cpu0_L1D TRANSLATION ACCESS:     737982  HIT:     660729  MISS:      77253
cpu0_L1D PREFETCH  REQUESTED:          0  ISSUED:          0  USEFUL:          0  USELESS:          0
cpu0_L1D AVERAGE MISS LATENCY: 64.5358 cycles
cpu0_L2C TOTAL     ACCESS:  112459214  HIT:   27656513  MISS:   84802701
cpu0_L2C LOAD      ACCESS:  100684997  HIT:   18325470  MISS:   82359527
cpu0_L2C RFO       ACCESS:    4525644  HIT:    2113190  MISS:    2412454
cpu0_L2C PREFETCH  ACCESS:          0  HIT:          0  MISS:          0
cpu0_L2C WRITEBACK ACCESS:    7171320  HIT:    7163339  MISS:       7981
cpu0_L2C TRANSLATION ACCESS:      77253  HIT:      54514  MISS:      22739
cpu0_L2C PREFETCH  REQUESTED:          0  ISSUED:          0  USEFUL:          0  USELESS:          0
cpu0_L2C AVERAGE MISS LATENCY: 66.3741 cycles
LLC TOTAL     ACCESS:   89610303  HIT:   56238261  MISS:   33372042
LLC LOAD      ACCESS:   82359342  HIT:   49006989  MISS:   33352353
LLC RFO       ACCESS:    2412436  HIT:    2397458  MISS:      14978
LLC PREFETCH  ACCESS:          0  HIT:          0  MISS:          0
LLC WRITEBACK ACCESS:    4815786  HIT:    4813271  MISS:       2515
LLC TRANSLATION ACCESS:      22739  HIT:      20543  MISS:       2196
LLC PREFETCH  REQUESTED:          0  ISSUED:          0  USEFUL:          0  USELESS:          0
LLC AVERAGE MISS LATENCY: 115.15 cycles
~~~~~~~~~~Reuse Distance Profiler output~~~~~~~~~~
0	28671216	9369072
1	34409776	19449104
2	34232864	19835376
3	33437936	20895584
4	24323216	15463632
5	19890320	14177104
6	14783696	10784624
7	15301760	10585904
8	13815424	8374256
9	11365264	8370816
10	10531904	7195360
11	9469344	7089296
12	8538672	6406928
13	8080016	5540672
14	6787216	4786672
15	6034576	4286464
16	5462576	4212960
17	4441344	3455024
18	3958816	3194160
19	3408352	2690112
20	3168832	2517968
21	2472064	2029376
22	2308432	1816624
23	2100640	1685040
24	1819840	1508560
25	1667904	1387952
26	1444288	1228416
27	1396976	1222352
28	1292416	1100848
29	1219360	1041232
30	1202944	1060640
31	1117008	1005824
32	1020480	888016
33	822800	710512
34	755728	643424
35	752912	655520
36	702752	632576
37	636432	566896
38	667280	551888
39	572656	493440
40	560352	440048
41	495424	413744
42	432032	393536
43	431504	386944
44	447056	395120
45	473760	404640
46	425536	374624
47	379008	348528
48	352496	330832
49	341968	320400
50	323264	296592
51	313312	283104
52	288496	268304
53	275712	258064
54	263440	246928
55	254256	239408
56	262512	246544
57	240960	224320
58	239376	224912
59	226272	212432
60	228240	215488
61	236784	222304
62	215600	201936
63	212576	200704
64	399136	372528
66	372368	344944
68	351936	326720
70	339552	313696
72	339184	310016
74	315104	283232
76	298096	261120
78	297760	255456
80	298368	253456
82	285568	234480
84	276448	224576
86	275136	222240
88	262352	212992
90	255888	208608
92	251312	206528
94	248960	204832
96	243664	204080
98	243344	204176
100	240672	205248
102	234128	205184
104	226192	199008
106	213072	189120
108	208800	184432
110	204880	181376
112	197232	173472
114	190608	169232
116	186080	166720
118	184864	166688
120	178464	162816
122	174800	160448
124	174112	160064
126	172032	158928
128	346720	322016
132	342448	317760
136	340352	316208
140	335200	307968
144	330576	300464
148	333616	301296
152	330768	297344
156	332352	296864
160	331696	296848
164	330240	294608
168	321824	286464
172	317488	280480
176	313616	277696
180	310480	272864
184	308560	272816
188	308048	271024
192	294256	258672
196	291168	255328
200	288512	251488
204	290608	255856
208	289136	252768
212	283056	248624
216	273680	239392
220	269120	235920
224	261568	229584
228	262208	229920
232	255568	224032
236	257760	226736
240	253424	221792
244	244832	215056
248	243872	215600
252	238224	209776
256	464704	408912
264	447600	393072
272	434176	382960
280	418192	369344
288	406000	358416
296	398496	351568
304	391072	344800
312	373488	329728
320	366048	321584
328	353216	311008
336	339408	299520
344	328624	288736
352	320672	281104
360	306160	268880
368	294272	259680
376	284896	252368
384	281696	251232
392	277296	246368
400	268192	239120
408	262864	232944
416	255552	227824
424	251248	224112
432	243952	218352
440	240512	215728
448	236336	212688
456	232640	209312
464	228352	205664
472	223328	201312
480	221504	201152
488	217824	197184
496	211344	192272
504	211952	192720
512	412944	374736
528	396112	360048
544	391136	356640
560	377952	342320
576	370704	335264
592	355936	320640
608	350608	315568
624	343728	308368
640	343424	305392
656	339152	301360
672	332160	296608
688	319488	285184
704	307168	272784
720	295680	262096
736	285648	253824
752	278544	247104
768	277040	245360
784	269104	240208
800	263376	234848
816	253712	224720
832	244704	217440
848	241040	213424
864	236016	209440
880	228096	203072
896	224608	199776
912	224384	200720
928	220560	197600
944	219776	196896
960	215168	193264
976	210608	188528
992	206608	185040
1008	201264	180400
1024	391168	350800
1056	382784	343936
1088	374736	336544
1120	358384	322000
1152	352400	314976
1184	342320	308672
1216	331824	297952
1248	317264	284480
1280	306064	274464
1312	297504	267312
1344	294224	265488
1376	283744	255360
1408	277312	249568
1440	273936	246736
1472	273808	248080
1504	263600	237744
1536	261808	236736
1568	254736	230640
1600	248960	226480
1632	240640	219696
1664	239232	216752
1696	235248	213840
1728	228336	208336
1760	216944	197344
1792	218336	197712
1824	212416	193632
1856	209088	190080
1888	200544	182560
1920	195936	177984
1952	196720	179040
1984	190048	172368
2016	188432	172048
2048	381584	347728
2112	364240	332032
2176	357504	326016
2240	342832	313088
2304	332144	303792
2368	320704	292432
2432	315984	288864
2496	306944	279920
2560	292016	267024
2624	282096	258192
2688	268864	245952
2752	257552	234320
2816	249776	228800
2880	250144	227920
2944	240480	219648
3008	233136	213792
3072	232000	212320
3136	230272	210576
3200	221712	202320
3264	213056	195136
3328	209952	192144
3392	206064	188256
3456	202320	185440
3520	202288	185808
3584	196928	182512
3648	193616	178208
3712	190336	175840
3776	186672	171408
3840	183648	169040
3904	177504	163120
3968	174960	160960
4032	171904	158896
4096	332528	305568
4224	319168	293296
4352	309184	285152
4480	291344	266848
4608	285152	261440
4736	268768	246096
4864	261280	239520
4992	248928	228304
5120	245824	225904
5248	242608	222752
5376	246144	226448
5504	241968	222672
5632	238576	219104
5760	223856	206544
5888	216240	199200
6016	206992	190480
6144	193808	177472
6272	189696	173024
6400	176800	162080
6528	170848	155552
6656	164976	150304
6784	159472	146272
6912	160928	147584
7040	162640	148688
7168	158960	146272
7296	160560	147840
7424	157376	145952
7552	153088	140480
7680	152112	140288
7808	148016	135648
7936	144736	132816
8064	140160	127968
8192	285776	263328
8448	285376	264032
8704	276416	255936
8960	268144	248480
9216	254896	236784
9472	241552	222320
9728	233504	216032
9984	235584	219184
10240	234000	218576
10496	233200	218448
10752	226880	212128
11008	222720	207392
11264	216192	201376
11520	211664	197104
11776	199248	185888
12032	200512	187536
12288	197216	183968
12544	197040	183952
12800	177120	165440
13056	171200	158080
13312	164064	151744
13568	159280	147072
13824	154384	142448
14080	154816	142912
14336	154768	142864
14592	172832	161984
14848	202256	191440
15104	208832	197632
15360	190512	178640
15616	173072	158624
15872	132192	114256
16128	125872	101376
16384	282224	211968
16896	258608	180528
17408	261552	172832
17920	267664	174448
18432	265840	178432
18944	251552	163328
19456	235520	148928
19968	231376	143440
20480	234416	144336
20992	234544	142224
21504	239120	141696
22016	225136	131632
22528	217952	126544
23040	213088	120752
23552	206400	114464
24064	200416	110992
24576	196704	106416
25088	187872	103488
25600	183200	103008
26112	179936	102640
26624	176288	99696
27136	175488	98912
27648	170528	96928
28160	167104	98000
28672	169456	98256
29184	169392	98624
29696	161552	95904
30208	160160	97168
30720	156880	95440
31232	155280	94736
31744	152288	93456
32256	148144	92240
32768	290224	184224
33792	279824	183936
34816	267440	180048
35840	255568	177232
36864	252576	182432
37888	250704	186240
38912	251168	191120
39936	257488	204336
40960	265392	217936
41984	305472	265584
43008	356128	317872
44032	419424	385072
45056	496432	465296
46080	628688	597568
47104	704096	676272
48128	881856	853600
49152	924192	897232
50176	999872	973568
51200	1029056	1001552
52224	1130816	1106352
53248	1245824	1222720
54272	1265264	1241936
55296	1543520	1521488
56320	1405552	1384784
57344	1403408	1386896
58368	1266992	1251088
59392	1177840	1163712
60416	1110064	1097120
61440	940032	929440
62464	1092256	1080656
63488	1122128	1111648
64512	1136128	1126976
65536	2190896	2173888
67584	1759008	1744912
69632	1118080	1105648
71680	690720	680944
73728	372448	364240
75776	405984	398944
77824	476656	469168
79872	507216	500160
81920	591808	584944
83968	755696	748128
86016	1056000	1050160
88064	841088	835984
90112	673840	669232
92160	444080	439904
94208	372672	368416
96256	363552	359776
98304	320544	316976
100352	390352	386992
102400	433408	430832
104448	444784	442944
106496	351600	349888
108544	258176	256912
110592	223968	222608
112640	187424	186000
114688	169808	168688
116736	162320	161168
118784	143328	142240
120832	142576	141440
122880	141728	140480
124928	153808	152544
126976	165632	164496
129024	166336	165312
131072	344848	343312
135168	389296	387904
139264	473856	472256
143360	270736	269360
147456	172672	171360
151552	139264	138000
155648	151504	150640
159744	170384	169312
163840	204224	203568
167936	248112	247392
172032	254480	253696
176128	222800	222048
180224	191136	190400
184320	180288	179328
188416	180608	179552
192512	180720	180224
196608	189376	188832
200704	188512	187984
204800	173312	172800
208896	143152	142640
212992	115088	114496
217088	104576	104112
221184	110064	109616
225280	106912	106464
229376	99440	99056
233472	92688	92304
237568	86640	86208
241664	94336	94080
245760	106656	106336
249856	125776	125344
253952	140768	140512
258048	145776	145424
262144	290832	289952
270336	274000	273056
278528	245680	244752
286720	171040	170560
294912	140224	139856
303104	147888	147536
311296	168272	167952
319488	168256	167808
327680	170448	170064
335872	209888	209376
344064	197376	197056
352256	145040	144464
360448	107456	106992
368640	104528	104192
376832	107824	107600
385024	123984	123632
393216	145472	145200
401408	152160	151936
409600	127248	126928
417792	125248	124944
425984	119728	119248
434176	110640	110336
442368	119824	119472
450560	119488	119088
458752	96928	96784
466944	86944	86768
475136	82160	82000
483328	67472	67328
491520	66224	65952
499712	81600	81408
507904	98224	98112
516096	93952	93616
524288	172544	172064
540672	140288	140016
557056	140736	140480
573440	108096	107872
589824	122064	121872
606208	144304	144048
622592	124592	124288
638976	101904	101536
655360	81056	80896
671744	97696	97392
688128	106624	106464
704512	97664	97424
720896	87440	87264
737280	83712	83488
753664	70336	70064
770048	72640	72544
786432	68160	67968
802816	69312	69152
819200	66368	66240
835584	72848	72752
851968	70048	69920
868352	57776	57680
884736	53104	52976
901120	50976	50912
917504	43392	43312
933888	50640	50528
950272	58000	57888
966656	46960	46896
983040	40432	40368
999424	41008	40928
1015808	46112	45968
1032192	41568	41504
1048576	77296	77136
1081344	59584	59472
1114112	79312	79120
1146880	64368	64224
1179648	55424	55360
1212416	83824	83696
1245184	54016	53936
1277952	52224	52112
1310720	44496	44352
1343488	45040	44944
1376256	43616	43536
1409024	42096	42000
1441792	39744	39680
1474560	36992	36816
1507328	33856	33792
1540096	38784	38688
1572864	31408	31248
1605632	31936	31744
1638400	26112	26096
1671168	29200	29136
1703936	28576	28560
1736704	25872	25776
1769472	24304	24224
1802240	28000	27920
1835008	24144	24096
1867776	23744	23680
1900544	21072	21024
1933312	21088	20992
1966080	20160	20112
1998848	19888	19856
2031616	17024	16976
2064384	18544	18528
2097152	35808	35712
2162688	31872	31760
2228224	33072	32992
2293760	30800	30688
2359296	27072	27008
2424832	25664	25616
2490368	25248	25200
2555904	23136	23040
2621440	22800	22768
2686976	19776	19696
2752512	20848	20736
2818048	19984	19920
2883584	18752	18704
2949120	19008	18976
3014656	18320	18304
3080192	16240	16128
3145728	15808	15712
3211264	16400	16336
3276800	25264	25248
3342336	15632	15616
3407872	13040	13024
3473408	13936	13904
3538944	12912	12848
3604480	13104	13072
3670016	13040	12944
3735552	12288	12272
3801088	12432	12432
3866624	11536	11488
3932160	11296	11280
3997696	11232	11200
4063232	10176	10160
4128768	12160	12160
4194304	20224	20160
4325376	19392	19360
4456448	18080	18032
4587520	17168	17168
4718592	17376	17328
4849664	15728	15664
4980736	23248	23120
5111808	13840	13824
5242880	12592	12544
5373952	13360	13312
5505024	13136	13136
5636096	12592	12480
5767168	12240	12208
5898240	10880	10800
6029312	10368	10304
6160384	11344	11344
6291456	9936	9904
6422528	9552	9488
6553600	9872	9824
6684672	9664	9632
6815744	9264	9232
6946816	9200	9104
7077888	8496	8496
7208960	8176	8160
7340032	8160	8144
7471104	8272	8256
7602176	7296	7296
7733248	7504	7424
7864320	6912	6880
7995392	7744	7728
8126464	7392	7392
8257536	6592	6560
8388608	12384	12368
8650752	11776	11760
8912896	12832	12752
9175040	11584	11536
9437184	10720	10672
9699328	10384	10336
9961472	10128	10096
10223616	9136	9088
10485760	12016	11968
10747904	8400	8368
11010048	7856	7792
11272192	8944	8816
11534336	8064	8048
11796480	6992	6976
12058624	7712	7680
12320768	8976	8928
12582912	8688	8672
12845056	5952	5936
13107200	6112	6032
13369344	6432	6368
13631488	6000	6000
13893632	5568	5552
14155776	5152	5120
14417920	4528	4464
14680064	4912	4880
14942208	4560	4480
15204352	5008	4960
15466496	4832	4784
15728640	3952	3952
15990784	4640	4624
16252928	4384	4384
16515072	3680	3664
16777216	6864	6832
17301504	8416	8384
17825792	7168	7104
18350080	6720	6576
18874368	5712	5584
19398656	5456	5360
19922944	4864	4816
20447232	6000	5952
20971520	4864	4752
21495808	4224	4224
22020096	4560	4512
22544384	3872	3824
23068672	4416	4352
23592960	8256	8144
24117248	2992	2912
24641536	2608	2560
25165824	3616	3600
25690112	3968	3904
26214400	3264	3152
26738688	2784	2768
27262976	2976	2896
27787264	8864	8832
28311552	2832	2784
28835840	2384	2304
29360128	3280	3152
29884416	2112	2080
30408704	5072	4992
30932992	2768	2720
31457280	2240	2224
31981568	2304	2256
32505856	2672	2624
33030144	1792	1760
33554432	3408	3328
34603008	4224	4160
35651584	5408	5344
36700160	3792	3744
37748736	3056	2976
38797312	4896	4816
39845888	3088	3008
40894464	3280	3200
41943040	3200	3104
42991616	1744	1696
44040192	1792	1760
45088768	2400	2320
46137344	2464	2432
47185920	2032	1984
48234496	2240	2176
49283072	13440	13424
50331648	1648	1648
51380224	1584	1536
52428800	3008	2976
53477376	1280	1248
54525952	10112	10096
55574528	832	784
56623104	2688	2624
57671680	1072	1040
58720256	1088	976
59768832	2816	2736
60817408	1616	1504
61865984	1360	1328
62914560	656	608
63963136	1232	1088
65011712	1120	848
66060288	1232	1136
67108864	3616	3424
69206016	1792	1632
71303168	1472	1440
73400320	1680	1616
75497472	3984	3856
77594624	1632	1520
79691776	1776	1712
81788928	1648	1648
83886080	1312	1264
85983232	800	736
88080384	1056	1008
90177536	656	624
92274688	1200	1152
94371840	768	752
96468992	832	800
98566144	512	432
100663296	608	592
102760448	1056	960
104857600	608	592
106954752	560	544
109051904	640	640
111149056	496	432
113246208	640	624
115343360	416	416
117440512	288	288
119537664	640	608
121634816	1344	1344
123731968	304	256
125829120	448	416
127926272	624	544
130023424	496	480
132120576	208	128
134217728	480	432
138412032	1248	1072
142606336	560	528
146800640	608	496
150994944	432	416
155189248	1536	1472
159383552	384	384
163577856	1744	1664
167772160	560	448
171966464	448	416
176160768	256	224
180355072	336	320
184549376	1536	1504
188743680	336	256
192937984	368	320
197132288	720	592
201326592	192	160
205520896	304	256
209715200	432	304
213909504	112	96
218103808	176	128
222298112	176	144
226492416	96	80
230686720	128	64
234881024	48	32
239075328	208	160
243269632	176	96
247463936	256	144
251658240	192	144
255852544	112	64
260046848	192	112
264241152	112	64
268435456	208	144
276824064	112	96
285212672	224	208
293601280	208	128
301989888	336	240
310378496	80	48
318767104	240	96
327155712	1488	1392
335544320	128	80
343932928	192	160
352321536	64	48
360710144	64	48
369098752	48	32
377487360	112	48
385875968	16	16
394264576	64	16
402653184	96	80
411041792	2495936	2495936
419430400	1132272	1132256
427819008	693200	693200
436207616	251408	251408
444596224	0	0
452984832	0	0
461373440	0	0
469762048	0	0
478150656	0	0
486539264	0	0
494927872	0	0
503316480	0	0
511705088	0	0
520093696	0	0
528482304	0	0
536870912	0	0
553648128	0	0
570425344	0	0
587202560	0	0
603979776	0	0
620756992	0	0
637534208	0	0
654311424	0	0
671088640	0	0
687865856	0	0
704643072	0	0
721420288	0	0
738197504	0	0
754974720	0	0
771751936	0	0
788529152	0	0
805306368	0	0
822083584	0	0
838860800	0	0
855638016	0	0
872415232	0	0
889192448	0	0
905969664	0	0
922746880	0	0
939524096	0	0
956301312	0	0
973078528	0	0
989855744	0	0
1006632960	0	0
1023410176	0	0
1040187392	0	0
1056964608	0	0
1073741824	0	0
1107296256	0	0
1140850688	0	0
1174405120	0	0
1207959552	0	0
1241513984	0	0
1275068416	0	0
1308622848	0	0
1342177280	0	0
1375731712	0	0
1409286144	0	0
1442840576	0	0
1476395008	0	0
1509949440	0	0
1543503872	0	0
1577058304	0	0
1610612736	0	0
1644167168	0	0
1677721600	0	0
1711276032	0	0
1744830464	0	0
1778384896	0	0
1811939328	0	0
1845493760	0	0
1879048192	0	0
1912602624	0	0
1946157056	0	0
1979711488	0	0
2013265920	0	0
2046820352	0	0
2080374784	0	0
2113929216	0	0
2147483648	0	0
2214592512	0	0
2281701376	0	0
2348810240	0	0
2415919104	0	0
2483027968	0	0
2550136832	0	0
2617245696	0	0
2684354560	0	0
2751463424	0	0
2818572288	0	0
2885681152	0	0
2952790016	0	0
3019898880	0	0
3087007744	0	0
3154116608	0	0
3221225472	0	0
3288334336	0	0
3355443200	0	0
3422552064	0	0
3489660928	0	0
3556769792	0	0
3623878656	0	0
3690987520	0	0
3758096384	0	0
3825205248	0	0
3892314112	0	0
3959422976	0	0
4026531840	0	0
4093640704	0	0
4160749568	0	0
4227858432	0	0
~~~~~~~~~~Reuse Distance Profiler output end~~~~~~~~~~

Sampler size:1772987

DRAM Statistics
 CHANNEL 0
 RQ ROW_BUFFER_HIT:   27093534  ROW_BUFFER_MISS:    6275971
 DBUS AVG_CONGESTED_CYCLE:    3.80691
 WQ ROW_BUFFER_HIT:      49583  ROW_BUFFER_MISS:     185765  FULL:          0


CPU 0 Branch Prediction Accuracy: 91.4149% MPKI: 22.1664 Average ROB Occupancy at Mispredict: 26.4302
Branch type MPKI
BRANCH_DIRECT_JUMP: 6.66667e-07
BRANCH_INDIRECT: 0
BRANCH_CONDITIONAL: 22.1663
BRANCH_DIRECT_CALL: 0
BRANCH_INDIRECT_CALL: 7.8e-05
BRANCH_RETURN: 0

