
*** ChampSim Multicore Out-of-Order Simulator ***

Warmup Instructions: 50000000
Simulation Instructions: 1500000000
Number of CPUs: 1
Off-chip DRAM Size: 4 GiB Channels: 1 Width: 64-bit Data Rate: 3200 MT/s

VirtualMemory physical capacity: 8588881920 num_ppages: 2096895
VirtualMemory page size: 4096 log2_page_size: 12

CPU 0 runs /s/traces/champsim_traces/607.cactuBSSN_s-3477B.champsimtrace.xz
CPU 0 Bimodal branch predictor
Basic BTB sets: 1024 ways: 8 indirect buffer size: 4096 RAS size: 64
Initializing LRU.
Initializing LRU.
Initializing LRU.
Initializing LRU.
Initializing rdLRU.
Initializing LRU.
Heartbeat CPU 0 instructions: 2000000 cycles: 748534 heartbeat IPC: 2.67189 cumulative IPC: 2.67189 (Simulation time: 0 hr 1 min 49 sec) 
Heartbeat CPU 0 instructions: 4000003 cycles: 1497035 heartbeat IPC: 2.67201 cumulative IPC: 2.67195 (Simulation time: 0 hr 3 min 38 sec) 
Heartbeat CPU 0 instructions: 6000000 cycles: 2244972 heartbeat IPC: 2.67402 cumulative IPC: 2.67264 (Simulation time: 0 hr 5 min 26 sec) 
Heartbeat CPU 0 instructions: 8000002 cycles: 2993685 heartbeat IPC: 2.67125 cumulative IPC: 2.67229 (Simulation time: 0 hr 7 min 14 sec) 
Heartbeat CPU 0 instructions: 10000003 cycles: 3741589 heartbeat IPC: 2.67414 cumulative IPC: 2.67266 (Simulation time: 0 hr 8 min 58 sec) 
Heartbeat CPU 0 instructions: 12000000 cycles: 4490243 heartbeat IPC: 2.67146 cumulative IPC: 2.67246 (Simulation time: 0 hr 10 min 40 sec) 
Heartbeat CPU 0 instructions: 14000002 cycles: 5237006 heartbeat IPC: 2.67823 cumulative IPC: 2.67328 (Simulation time: 0 hr 12 min 21 sec) 
Heartbeat CPU 0 instructions: 16000002 cycles: 5985238 heartbeat IPC: 2.67297 cumulative IPC: 2.67324 (Simulation time: 0 hr 13 min 56 sec) 
Heartbeat CPU 0 instructions: 18000002 cycles: 6733514 heartbeat IPC: 2.67281 cumulative IPC: 2.6732 (Simulation time: 0 hr 15 min 35 sec) 
Heartbeat CPU 0 instructions: 20000002 cycles: 7481883 heartbeat IPC: 2.67248 cumulative IPC: 2.67312 (Simulation time: 0 hr 17 min 16 sec) 
Heartbeat CPU 0 instructions: 22000002 cycles: 8230013 heartbeat IPC: 2.67333 cumulative IPC: 2.67314 (Simulation time: 0 hr 18 min 54 sec) 
Heartbeat CPU 0 instructions: 24000000 cycles: 8978573 heartbeat IPC: 2.67179 cumulative IPC: 2.67303 (Simulation time: 0 hr 20 min 30 sec) 
Heartbeat CPU 0 instructions: 26000003 cycles: 9726700 heartbeat IPC: 2.67335 cumulative IPC: 2.67305 (Simulation time: 0 hr 22 min 7 sec) 
Heartbeat CPU 0 instructions: 28000000 cycles: 10475481 heartbeat IPC: 2.671 cumulative IPC: 2.67291 (Simulation time: 0 hr 23 min 43 sec) 
Heartbeat CPU 0 instructions: 30000003 cycles: 11223577 heartbeat IPC: 2.67346 cumulative IPC: 2.67295 (Simulation time: 0 hr 25 min 18 sec) 
Heartbeat CPU 0 instructions: 32000003 cycles: 11972236 heartbeat IPC: 2.67144 cumulative IPC: 2.67285 (Simulation time: 0 hr 26 min 52 sec) 
Heartbeat CPU 0 instructions: 34000001 cycles: 12720174 heartbeat IPC: 2.67402 cumulative IPC: 2.67292 (Simulation time: 0 hr 28 min 27 sec) 
Heartbeat CPU 0 instructions: 36000003 cycles: 13468683 heartbeat IPC: 2.67198 cumulative IPC: 2.67287 (Simulation time: 0 hr 29 min 58 sec) 
Heartbeat CPU 0 instructions: 38000003 cycles: 14216669 heartbeat IPC: 2.67385 cumulative IPC: 2.67292 (Simulation time: 0 hr 31 min 32 sec) 
Heartbeat CPU 0 instructions: 40000004 cycles: 14965196 heartbeat IPC: 2.67192 cumulative IPC: 2.67287 (Simulation time: 0 hr 32 min 54 sec) 
Heartbeat CPU 0 instructions: 42000001 cycles: 15713291 heartbeat IPC: 2.67345 cumulative IPC: 2.6729 (Simulation time: 0 hr 34 min 33 sec) 
Heartbeat CPU 0 instructions: 44000004 cycles: 16461727 heartbeat IPC: 2.67224 cumulative IPC: 2.67287 (Simulation time: 0 hr 36 min 4 sec) 
Heartbeat CPU 0 instructions: 46000001 cycles: 17209851 heartbeat IPC: 2.67335 cumulative IPC: 2.67289 (Simulation time: 0 hr 37 min 32 sec) 
Heartbeat CPU 0 instructions: 48000001 cycles: 17958294 heartbeat IPC: 2.67221 cumulative IPC: 2.67286 (Simulation time: 0 hr 39 min 1 sec) 
Heartbeat CPU 0 instructions: 50000000 cycles: 18706534 heartbeat IPC: 2.67294 cumulative IPC: 2.67286 (Simulation time: 0 hr 40 min 36 sec) 

Warmup complete CPU 0 instructions: 50000005 cycles: 18706537 (Simulation time: 0 hr 40 min 36 sec) 

Heartbeat CPU 0 instructions: 52000001 cycles: 19981555 heartbeat IPC: 1.5686 cumulative IPC: 1.5686 (Simulation time: 0 hr 42 min 37 sec) 

Region of Interest Statistics
cpu0_DTLB TOTAL     ACCESS:     531332  HIT:     456291  MISS:      75041
cpu0_DTLB LOAD      ACCESS:     456299  HIT:     390284  MISS:      66015
cpu0_DTLB RFO       ACCESS:      75033  HIT:      66007  MISS:       9026
cpu0_DTLB PREFETCH  ACCESS:          0  HIT:          0  MISS:          0
cpu0_DTLB WRITEBACK ACCESS:          0  HIT:          0  MISS:          0
cpu0_ITLB TOTAL     ACCESS:      38909  HIT:      38909  MISS:          0
cpu0_ITLB LOAD      ACCESS:      38909  HIT:      38909  MISS:          0
cpu0_ITLB RFO       ACCESS:          0  HIT:          0  MISS:          0
cpu0_ITLB PREFETCH  ACCESS:          0  HIT:          0  MISS:          0
cpu0_ITLB WRITEBACK ACCESS:          0  HIT:          0  MISS:          0
cpu0_L1I TOTAL     ACCESS:     195874  HIT:     166622  MISS:      29252
cpu0_L1I LOAD      ACCESS:     195874  HIT:     166622  MISS:      29252
cpu0_L1I RFO       ACCESS:          0  HIT:          0  MISS:          0
cpu0_L1I PREFETCH  ACCESS:          0  HIT:          0  MISS:          0
cpu0_L1I WRITEBACK ACCESS:          0  HIT:          0  MISS:          0
cpu0_STLB TOTAL     ACCESS:      75041  HIT:      74975  MISS:         66
cpu0_STLB LOAD      ACCESS:      66015  HIT:      65950  MISS:         65
cpu0_STLB RFO       ACCESS:       9026  HIT:       9025  MISS:          1
cpu0_STLB PREFETCH  ACCESS:          0  HIT:          0  MISS:          0
cpu0_STLB WRITEBACK ACCESS:          0  HIT:          0  MISS:          0
cpu0_L1D TOTAL     ACCESS:     750643  HIT:     605325  MISS:     145318
cpu0_L1D LOAD      ACCESS:     593315  HIT:     460186  MISS:     133129
cpu0_L1D RFO       ACCESS:     157262  HIT:     145139  MISS:      12123
cpu0_L1D PREFETCH  ACCESS:          0  HIT:          0  MISS:          0
cpu0_L1D WRITEBACK ACCESS:          0  HIT:          0  MISS:          0
cpu0_L2C TOTAL     ACCESS:     187474  HIT:     177320  MISS:      10154
cpu0_L2C LOAD      ACCESS:     162359  HIT:     153417  MISS:       8942
cpu0_L2C RFO       ACCESS:      12111  HIT:      10919  MISS:       1192
cpu0_L2C PREFETCH  ACCESS:          0  HIT:          0  MISS:          0
cpu0_L2C WRITEBACK ACCESS:      12938  HIT:      12932  MISS:          6
LLC TOTAL     ACCESS:      11149  HIT:       5794  MISS:       5355
LLC LOAD      ACCESS:       8942  HIT:       4763  MISS:       4179
LLC RFO       ACCESS:       1186  HIT:         13  MISS:       1173
LLC PREFETCH  ACCESS:          0  HIT:          0  MISS:          0
LLC WRITEBACK ACCESS:       1007  HIT:       1007  MISS:          0
Heartbeat CPU 0 instructions: 54000003 cycles: 21244670 heartbeat IPC: 1.58339 cumulative IPC: 1.57596 (Simulation time: 0 hr 44 min 32 sec) 

Region of Interest Statistics
cpu0_DTLB TOTAL     ACCESS:    1063078  HIT:     912898  MISS:     150180
cpu0_DTLB LOAD      ACCESS:     913071  HIT:     781061  MISS:     132010
cpu0_DTLB RFO       ACCESS:     150007  HIT:     131837  MISS:      18170
cpu0_DTLB PREFETCH  ACCESS:          0  HIT:          0  MISS:          0
cpu0_DTLB WRITEBACK ACCESS:          0  HIT:          0  MISS:          0
cpu0_ITLB TOTAL     ACCESS:      77731  HIT:      77731  MISS:          0
cpu0_ITLB LOAD      ACCESS:      77731  HIT:      77731  MISS:          0
cpu0_ITLB RFO       ACCESS:          0  HIT:          0  MISS:          0
cpu0_ITLB PREFETCH  ACCESS:          0  HIT:          0  MISS:          0
cpu0_ITLB WRITEBACK ACCESS:          0  HIT:          0  MISS:          0
cpu0_L1I TOTAL     ACCESS:     391696  HIT:     333753  MISS:      57943
cpu0_L1I LOAD      ACCESS:     391696  HIT:     333753  MISS:      57943
cpu0_L1I RFO       ACCESS:          0  HIT:          0  MISS:          0
cpu0_L1I PREFETCH  ACCESS:          0  HIT:          0  MISS:          0
cpu0_L1I WRITEBACK ACCESS:          0  HIT:          0  MISS:          0
cpu0_STLB TOTAL     ACCESS:     150180  HIT:     150033  MISS:        147
cpu0_STLB LOAD      ACCESS:     132010  HIT:     131889  MISS:        121
cpu0_STLB RFO       ACCESS:      18170  HIT:      18144  MISS:         26
cpu0_STLB PREFETCH  ACCESS:          0  HIT:          0  MISS:          0
cpu0_STLB WRITEBACK ACCESS:          0  HIT:          0  MISS:          0
cpu0_L1D TOTAL     ACCESS:    1501252  HIT:    1210503  MISS:     290749
cpu0_L1D LOAD      ACCESS:    1186698  HIT:     920508  MISS:     266190
cpu0_L1D RFO       ACCESS:     314407  HIT:     289995  MISS:      24412
cpu0_L1D PREFETCH  ACCESS:          0  HIT:          0  MISS:          0
cpu0_L1D WRITEBACK ACCESS:          0  HIT:          0  MISS:          0
cpu0_L2C TOTAL     ACCESS:     374698  HIT:     353035  MISS:      21663
cpu0_L2C LOAD      ACCESS:     324103  HIT:     304855  MISS:      19248
cpu0_L2C RFO       ACCESS:      24385  HIT:      22041  MISS:       2344
cpu0_L2C PREFETCH  ACCESS:          0  HIT:          0  MISS:          0
cpu0_L2C WRITEBACK ACCESS:      26063  HIT:      26051  MISS:         12
LLC TOTAL     ACCESS:      23806  HIT:      13306  MISS:      10500
LLC LOAD      ACCESS:      19248  HIT:      11077  MISS:       8171
LLC RFO       ACCESS:       2338  HIT:         13  MISS:       2325
LLC PREFETCH  ACCESS:          0  HIT:          0  MISS:          0
LLC WRITEBACK ACCESS:       2161  HIT:       2161  MISS:          0
Heartbeat CPU 0 instructions: 56000002 cycles: 22523945 heartbeat IPC: 1.56338 cumulative IPC: 1.57175 (Simulation time: 0 hr 46 min 29 sec) 

Region of Interest Statistics
cpu0_DTLB TOTAL     ACCESS:    1593070  HIT:    1367421  MISS:     225649
cpu0_DTLB LOAD      ACCESS:    1367869  HIT:    1169446  MISS:     198423
cpu0_DTLB RFO       ACCESS:     225201  HIT:     197975  MISS:      27226
cpu0_DTLB PREFETCH  ACCESS:          0  HIT:          0  MISS:          0
cpu0_DTLB WRITEBACK ACCESS:          0  HIT:          0  MISS:          0
cpu0_ITLB TOTAL     ACCESS:     116555  HIT:     116555  MISS:          0
cpu0_ITLB LOAD      ACCESS:     116555  HIT:     116555  MISS:          0
cpu0_ITLB RFO       ACCESS:          0  HIT:          0  MISS:          0
cpu0_ITLB PREFETCH  ACCESS:          0  HIT:          0  MISS:          0
cpu0_ITLB WRITEBACK ACCESS:          0  HIT:          0  MISS:          0
cpu0_L1I TOTAL     ACCESS:     587570  HIT:     500730  MISS:      86840
cpu0_L1I LOAD      ACCESS:     587570  HIT:     500730  MISS:      86840
cpu0_L1I RFO       ACCESS:          0  HIT:          0  MISS:          0
cpu0_L1I PREFETCH  ACCESS:          0  HIT:          0  MISS:          0
cpu0_L1I WRITEBACK ACCESS:          0  HIT:          0  MISS:          0
cpu0_STLB TOTAL     ACCESS:     225649  HIT:     225410  MISS:        239
cpu0_STLB LOAD      ACCESS:     198423  HIT:     198235  MISS:        188
cpu0_STLB RFO       ACCESS:      27226  HIT:      27175  MISS:         51
cpu0_STLB PREFETCH  ACCESS:          0  HIT:          0  MISS:          0
cpu0_STLB WRITEBACK ACCESS:          0  HIT:          0  MISS:          0
cpu0_L1D TOTAL     ACCESS:    2251457  HIT:    1814877  MISS:     436580
cpu0_L1D LOAD      ACCESS:    1779636  HIT:    1379916  MISS:     399720
cpu0_L1D RFO       ACCESS:     471582  HIT:     434961  MISS:      36621
cpu0_L1D PREFETCH  ACCESS:          0  HIT:          0  MISS:          0
cpu0_L1D WRITEBACK ACCESS:          0  HIT:          0  MISS:          0
cpu0_L2C TOTAL     ACCESS:     562447  HIT:     529694  MISS:      32753
cpu0_L2C LOAD      ACCESS:     486513  HIT:     457559  MISS:      28954
cpu0_L2C RFO       ACCESS:      36583  HIT:      32915  MISS:       3668
cpu0_L2C PREFETCH  ACCESS:          0  HIT:          0  MISS:          0
cpu0_L2C WRITEBACK ACCESS:      39112  HIT:      39095  MISS:         17
LLC TOTAL     ACCESS:      36209  HIT:      20364  MISS:      15845
LLC LOAD      ACCESS:      28954  HIT:      16649  MISS:      12305
LLC RFO       ACCESS:       3593  HIT:         69  MISS:       3524
LLC PREFETCH  ACCESS:          0  HIT:          0  MISS:          0
LLC WRITEBACK ACCESS:       3548  HIT:       3537  MISS:         11
Heartbeat CPU 0 instructions: 58000002 cycles: 23798449 heartbeat IPC: 1.56924 cumulative IPC: 1.57112 (Simulation time: 0 hr 48 min 25 sec) 

Region of Interest Statistics
cpu0_DTLB TOTAL     ACCESS:    2124549  HIT:    1823514  MISS:     301035
cpu0_DTLB LOAD      ACCESS:    1824340  HIT:    1559671  MISS:     264669
cpu0_DTLB RFO       ACCESS:     300209  HIT:     263843  MISS:      36366
cpu0_DTLB PREFETCH  ACCESS:          0  HIT:          0  MISS:          0
cpu0_DTLB WRITEBACK ACCESS:          0  HIT:          0  MISS:          0
cpu0_ITLB TOTAL     ACCESS:     155448  HIT:     155448  MISS:          0
cpu0_ITLB LOAD      ACCESS:     155448  HIT:     155448  MISS:          0
cpu0_ITLB RFO       ACCESS:          0  HIT:          0  MISS:          0
cpu0_ITLB PREFETCH  ACCESS:          0  HIT:          0  MISS:          0
cpu0_ITLB WRITEBACK ACCESS:          0  HIT:          0  MISS:          0
cpu0_L1I TOTAL     ACCESS:     783498  HIT:     667418  MISS:     116080
cpu0_L1I LOAD      ACCESS:     783498  HIT:     667418  MISS:     116080
cpu0_L1I RFO       ACCESS:          0  HIT:          0  MISS:          0
cpu0_L1I PREFETCH  ACCESS:          0  HIT:          0  MISS:          0
cpu0_L1I WRITEBACK ACCESS:          0  HIT:          0  MISS:          0
cpu0_STLB TOTAL     ACCESS:     301035  HIT:     300700  MISS:        335
cpu0_STLB LOAD      ACCESS:     264669  HIT:     264410  MISS:        259
cpu0_STLB RFO       ACCESS:      36366  HIT:      36290  MISS:         76
cpu0_STLB PREFETCH  ACCESS:          0  HIT:          0  MISS:          0
cpu0_STLB WRITEBACK ACCESS:          0  HIT:          0  MISS:          0
cpu0_L1D TOTAL     ACCESS:    3002585  HIT:    2420358  MISS:     582227
cpu0_L1D LOAD      ACCESS:    2373519  HIT:    1840395  MISS:     533124
cpu0_L1D RFO       ACCESS:     628731  HIT:     579963  MISS:      48768
cpu0_L1D PREFETCH  ACCESS:          0  HIT:          0  MISS:          0
cpu0_L1D WRITEBACK ACCESS:          0  HIT:          0  MISS:          0
cpu0_L2C TOTAL     ACCESS:     750298  HIT:     707141  MISS:      43157
cpu0_L2C LOAD      ACCESS:     649135  HIT:     611178  MISS:      37957
cpu0_L2C RFO       ACCESS:      48718  HIT:      43712  MISS:       5006
cpu0_L2C PREFETCH  ACCESS:          0  HIT:          0  MISS:          0
cpu0_L2C WRITEBACK ACCESS:      52110  HIT:      52085  MISS:         25
LLC TOTAL     ACCESS:      47841  HIT:      26738  MISS:      21103
LLC LOAD      ACCESS:      37957  HIT:      21585  MISS:      16372
LLC RFO       ACCESS:       4837  HIT:        162  MISS:       4675
LLC PREFETCH  ACCESS:          0  HIT:          0  MISS:          0
LLC WRITEBACK ACCESS:       4878  HIT:       4828  MISS:         50
Heartbeat CPU 0 instructions: 60000004 cycles: 25078100 heartbeat IPC: 1.56293 cumulative IPC: 1.56947 (Simulation time: 0 hr 50 min 22 sec) 

Region of Interest Statistics
cpu0_DTLB TOTAL     ACCESS:    2655678  HIT:    2279392  MISS:     376286
cpu0_DTLB LOAD      ACCESS:    2280365  HIT:    1949572  MISS:     330793
cpu0_DTLB RFO       ACCESS:     375313  HIT:     329820  MISS:      45493
cpu0_DTLB PREFETCH  ACCESS:          0  HIT:          0  MISS:          0
cpu0_DTLB WRITEBACK ACCESS:          0  HIT:          0  MISS:          0
cpu0_ITLB TOTAL     ACCESS:     194429  HIT:     194429  MISS:          0
cpu0_ITLB LOAD      ACCESS:     194429  HIT:     194429  MISS:          0
cpu0_ITLB RFO       ACCESS:          0  HIT:          0  MISS:          0
cpu0_ITLB PREFETCH  ACCESS:          0  HIT:          0  MISS:          0
cpu0_ITLB WRITEBACK ACCESS:          0  HIT:          0  MISS:          0
cpu0_L1I TOTAL     ACCESS:     979547  HIT:     834489  MISS:     145058
cpu0_L1I LOAD      ACCESS:     979547  HIT:     834489  MISS:     145058
cpu0_L1I RFO       ACCESS:          0  HIT:          0  MISS:          0
cpu0_L1I PREFETCH  ACCESS:          0  HIT:          0  MISS:          0
cpu0_L1I WRITEBACK ACCESS:          0  HIT:          0  MISS:          0
cpu0_STLB TOTAL     ACCESS:     376286  HIT:     375902  MISS:        384
cpu0_STLB LOAD      ACCESS:     330793  HIT:     330485  MISS:        308
cpu0_STLB RFO       ACCESS:      45493  HIT:      45417  MISS:         76
cpu0_STLB PREFETCH  ACCESS:          0  HIT:          0  MISS:          0
cpu0_STLB WRITEBACK ACCESS:          0  HIT:          0  MISS:          0
cpu0_L1D TOTAL     ACCESS:    3753209  HIT:    3025966  MISS:     727243
cpu0_L1D LOAD      ACCESS:    2966853  HIT:    2300907  MISS:     665946
cpu0_L1D RFO       ACCESS:     785972  HIT:     725059  MISS:      60913
cpu0_L1D PREFETCH  ACCESS:          0  HIT:          0  MISS:          0
cpu0_L1D WRITEBACK ACCESS:          0  HIT:          0  MISS:          0
cpu0_L2C TOTAL     ACCESS:     937268  HIT:     883150  MISS:      54118
cpu0_L2C LOAD      ACCESS:     810920  HIT:     763325  MISS:      47595
cpu0_L2C RFO       ACCESS:      60849  HIT:      54536  MISS:       6313
cpu0_L2C PREFETCH  ACCESS:          0  HIT:          0  MISS:          0
cpu0_L2C WRITEBACK ACCESS:      65115  HIT:      65085  MISS:         30
LLC TOTAL     ACCESS:      60100  HIT:      33628  MISS:      26472
LLC LOAD      ACCESS:      47595  HIT:      27033  MISS:      20562
LLC RFO       ACCESS:       6064  HIT:        214  MISS:       5850
LLC PREFETCH  ACCESS:          0  HIT:          0  MISS:          0
LLC WRITEBACK ACCESS:       6261  HIT:       6208  MISS:         53
Heartbeat CPU 0 instructions: 62000004 cycles: 26350621 heartbeat IPC: 1.57168 cumulative IPC: 1.56984 (Simulation time: 0 hr 52 min 14 sec) 

Region of Interest Statistics
cpu0_DTLB TOTAL     ACCESS:    3186859  HIT:    2735033  MISS:     451826
cpu0_DTLB LOAD      ACCESS:    2736444  HIT:    2339162  MISS:     397282
cpu0_DTLB RFO       ACCESS:     450415  HIT:     395871  MISS:      54544
cpu0_DTLB PREFETCH  ACCESS:          0  HIT:          0  MISS:          0
cpu0_DTLB WRITEBACK ACCESS:          0  HIT:          0  MISS:          0
cpu0_ITLB TOTAL     ACCESS:     233339  HIT:     233339  MISS:          0
cpu0_ITLB LOAD      ACCESS:     233339  HIT:     233339  MISS:          0
cpu0_ITLB RFO       ACCESS:          0  HIT:          0  MISS:          0
cpu0_ITLB PREFETCH  ACCESS:          0  HIT:          0  MISS:          0
cpu0_ITLB WRITEBACK ACCESS:          0  HIT:          0  MISS:          0
cpu0_L1I TOTAL     ACCESS:    1175498  HIT:    1001705  MISS:     173793
cpu0_L1I LOAD      ACCESS:    1175498  HIT:    1001705  MISS:     173793
cpu0_L1I RFO       ACCESS:          0  HIT:          0  MISS:          0
cpu0_L1I PREFETCH  ACCESS:          0  HIT:          0  MISS:          0
cpu0_L1I WRITEBACK ACCESS:          0  HIT:          0  MISS:          0
cpu0_STLB TOTAL     ACCESS:     451826  HIT:     451346  MISS:        480
cpu0_STLB LOAD      ACCESS:     397282  HIT:     396903  MISS:        379
cpu0_STLB RFO       ACCESS:      54544  HIT:      54443  MISS:        101
cpu0_STLB PREFETCH  ACCESS:          0  HIT:          0  MISS:          0
cpu0_STLB WRITEBACK ACCESS:          0  HIT:          0  MISS:          0
cpu0_L1D TOTAL     ACCESS:    4503050  HIT:    3630185  MISS:     872865
cpu0_L1D LOAD      ACCESS:    3559474  HIT:    2760221  MISS:     799253
cpu0_L1D RFO       ACCESS:     943096  HIT:     869964  MISS:      73132
cpu0_L1D PREFETCH  ACCESS:          0  HIT:          0  MISS:          0
cpu0_L1D WRITEBACK ACCESS:          0  HIT:          0  MISS:          0
cpu0_L2C TOTAL     ACCESS:    1124660  HIT:    1060149  MISS:      64511
cpu0_L2C LOAD      ACCESS:     972949  HIT:     916191  MISS:      56758
cpu0_L2C RFO       ACCESS:      73057  HIT:      65565  MISS:       7492
cpu0_L2C PREFETCH  ACCESS:          0  HIT:          0  MISS:          0
cpu0_L2C WRITEBACK ACCESS:      78174  HIT:      78140  MISS:         34
LLC TOTAL     ACCESS:      71671  HIT:      39910  MISS:      31761
LLC LOAD      ACCESS:      56758  HIT:      32085  MISS:      24673
LLC RFO       ACCESS:       7242  HIT:        217  MISS:       7025
LLC PREFETCH  ACCESS:          0  HIT:          0  MISS:          0
LLC WRITEBACK ACCESS:       7444  HIT:       7388  MISS:         56
Heartbeat CPU 0 instructions: 64000001 cycles: 27620362 heartbeat IPC: 1.57512 cumulative IPC: 1.57059 (Simulation time: 0 hr 54 min 11 sec) 

Region of Interest Statistics
cpu0_DTLB TOTAL     ACCESS:    3716688  HIT:    3189565  MISS:     527123
cpu0_DTLB LOAD      ACCESS:    3191017  HIT:    2727485  MISS:     463532
cpu0_DTLB RFO       ACCESS:     525671  HIT:     462080  MISS:      63591
cpu0_DTLB PREFETCH  ACCESS:          0  HIT:          0  MISS:          0
cpu0_DTLB WRITEBACK ACCESS:          0  HIT:          0  MISS:          0
cpu0_ITLB TOTAL     ACCESS:     272242  HIT:     272242  MISS:          0
cpu0_ITLB LOAD      ACCESS:     272242  HIT:     272242  MISS:          0
cpu0_ITLB RFO       ACCESS:          0  HIT:          0  MISS:          0
cpu0_ITLB PREFETCH  ACCESS:          0  HIT:          0  MISS:          0
cpu0_ITLB WRITEBACK ACCESS:          0  HIT:          0  MISS:          0
cpu0_L1I TOTAL     ACCESS:    1371368  HIT:    1168623  MISS:     202745
cpu0_L1I LOAD      ACCESS:    1371368  HIT:    1168623  MISS:     202745
cpu0_L1I RFO       ACCESS:          0  HIT:          0  MISS:          0
cpu0_L1I PREFETCH  ACCESS:          0  HIT:          0  MISS:          0
cpu0_L1I WRITEBACK ACCESS:          0  HIT:          0  MISS:          0
cpu0_STLB TOTAL     ACCESS:     527123  HIT:     526555  MISS:        568
cpu0_STLB LOAD      ACCESS:     463532  HIT:     463090  MISS:        442
cpu0_STLB RFO       ACCESS:      63591  HIT:      63465  MISS:        126
cpu0_STLB PREFETCH  ACCESS:          0  HIT:          0  MISS:          0
cpu0_STLB WRITEBACK ACCESS:          0  HIT:          0  MISS:          0
cpu0_L1D TOTAL     ACCESS:    5253055  HIT:    4234616  MISS:    1018439
cpu0_L1D LOAD      ACCESS:    4152164  HIT:    3219642  MISS:     932522
cpu0_L1D RFO       ACCESS:    1100323  HIT:    1014974  MISS:      85349
cpu0_L1D PREFETCH  ACCESS:          0  HIT:          0  MISS:          0
cpu0_L1D WRITEBACK ACCESS:          0  HIT:          0  MISS:          0
cpu0_L2C TOTAL     ACCESS:    1312256  HIT:    1236664  MISS:      75592
cpu0_L2C LOAD      ACCESS:    1135146  HIT:    1068562  MISS:      66584
cpu0_L2C RFO       ACCESS:      85267  HIT:      76579  MISS:       8688
cpu0_L2C PREFETCH  ACCESS:          0  HIT:          0  MISS:          0
cpu0_L2C WRITEBACK ACCESS:      91275  HIT:      91241  MISS:         34
LLC TOTAL     ACCESS:      83874  HIT:      46897  MISS:      36977
LLC LOAD      ACCESS:      66583  HIT:      37845  MISS:      28738
LLC RFO       ACCESS:       8414  HIT:        239  MISS:       8175
LLC PREFETCH  ACCESS:          0  HIT:          0  MISS:          0
LLC WRITEBACK ACCESS:       8591  HIT:       8534  MISS:         57
Heartbeat CPU 0 instructions: 66000004 cycles: 28888170 heartbeat IPC: 1.57753 cumulative IPC: 1.57146 (Simulation time: 0 hr 56 min 9 sec) 

Region of Interest Statistics
cpu0_DTLB TOTAL     ACCESS:    4248285  HIT:    3645763  MISS:     602522
cpu0_DTLB LOAD      ACCESS:    3647516  HIT:    3117680  MISS:     529836
cpu0_DTLB RFO       ACCESS:     600769  HIT:     528083  MISS:      72686
cpu0_DTLB PREFETCH  ACCESS:          0  HIT:          0  MISS:          0
cpu0_DTLB WRITEBACK ACCESS:          0  HIT:          0  MISS:          0
cpu0_ITLB TOTAL     ACCESS:     311069  HIT:     311069  MISS:          0
cpu0_ITLB LOAD      ACCESS:     311069  HIT:     311069  MISS:          0
cpu0_ITLB RFO       ACCESS:          0  HIT:          0  MISS:          0
cpu0_ITLB PREFETCH  ACCESS:          0  HIT:          0  MISS:          0
cpu0_ITLB WRITEBACK ACCESS:          0  HIT:          0  MISS:          0
cpu0_L1I TOTAL     ACCESS:    1567138  HIT:    1335516  MISS:     231622
cpu0_L1I LOAD      ACCESS:    1567138  HIT:    1335516  MISS:     231622
cpu0_L1I RFO       ACCESS:          0  HIT:          0  MISS:          0
cpu0_L1I PREFETCH  ACCESS:          0  HIT:          0  MISS:          0
cpu0_L1I WRITEBACK ACCESS:          0  HIT:          0  MISS:          0
cpu0_STLB TOTAL     ACCESS:     602522  HIT:     601890  MISS:        632
cpu0_STLB LOAD      ACCESS:     529836  HIT:     529330  MISS:        506
cpu0_STLB RFO       ACCESS:      72686  HIT:      72560  MISS:        126
cpu0_STLB PREFETCH  ACCESS:          0  HIT:          0  MISS:          0
cpu0_STLB WRITEBACK ACCESS:          0  HIT:          0  MISS:          0
cpu0_L1D TOTAL     ACCESS:    6004477  HIT:    4840059  MISS:    1164418
cpu0_L1D LOAD      ACCESS:    4746312  HIT:    3679959  MISS:    1066353
cpu0_L1D RFO       ACCESS:    1257533  HIT:    1160100  MISS:      97433
cpu0_L1D PREFETCH  ACCESS:          0  HIT:          0  MISS:          0
cpu0_L1D WRITEBACK ACCESS:          0  HIT:          0  MISS:          0
cpu0_L2C TOTAL     ACCESS:    1500033  HIT:    1413596  MISS:      86437
cpu0_L2C LOAD      ACCESS:    1297824  HIT:    1221686  MISS:      76138
cpu0_L2C RFO       ACCESS:      97339  HIT:      87384  MISS:       9955
cpu0_L2C PREFETCH  ACCESS:          0  HIT:          0  MISS:          0
cpu0_L2C WRITEBACK ACCESS:     104238  HIT:     104203  MISS:         35
LLC TOTAL     ACCESS:      95878  HIT:      53730  MISS:      42148
LLC LOAD      ACCESS:      76137  HIT:      43405  MISS:      32732
LLC RFO       ACCESS:       9633  HIT:        283  MISS:       9350
LLC PREFETCH  ACCESS:          0  HIT:          0  MISS:          0
LLC WRITEBACK ACCESS:       9799  HIT:       9741  MISS:         58
Heartbeat CPU 0 instructions: 68000004 cycles: 30169890 heartbeat IPC: 1.5604 cumulative IPC: 1.57022 (Simulation time: 0 hr 58 min 6 sec) 

Region of Interest Statistics
cpu0_DTLB TOTAL     ACCESS:    4780386  HIT:    4102410  MISS:     677976
cpu0_DTLB LOAD      ACCESS:    4103774  HIT:    3507573  MISS:     596201
cpu0_DTLB RFO       ACCESS:     676612  HIT:     594837  MISS:      81775
cpu0_DTLB PREFETCH  ACCESS:          0  HIT:          0  MISS:          0
cpu0_DTLB WRITEBACK ACCESS:          0  HIT:          0  MISS:          0
cpu0_ITLB TOTAL     ACCESS:     349941  HIT:     349941  MISS:          0
cpu0_ITLB LOAD      ACCESS:     349941  HIT:     349941  MISS:          0
cpu0_ITLB RFO       ACCESS:          0  HIT:          0  MISS:          0
cpu0_ITLB PREFETCH  ACCESS:          0  HIT:          0  MISS:          0
cpu0_ITLB WRITEBACK ACCESS:          0  HIT:          0  MISS:          0
cpu0_L1I TOTAL     ACCESS:    1762981  HIT:    1502918  MISS:     260063
cpu0_L1I LOAD      ACCESS:    1762981  HIT:    1502918  MISS:     260063
cpu0_L1I RFO       ACCESS:          0  HIT:          0  MISS:          0
cpu0_L1I PREFETCH  ACCESS:          0  HIT:          0  MISS:          0
cpu0_L1I WRITEBACK ACCESS:          0  HIT:          0  MISS:          0
cpu0_STLB TOTAL     ACCESS:     677976  HIT:     677259  MISS:        717
cpu0_STLB LOAD      ACCESS:     596201  HIT:     595635  MISS:        566
cpu0_STLB RFO       ACCESS:      81775  HIT:      81624  MISS:        151
cpu0_STLB PREFETCH  ACCESS:          0  HIT:          0  MISS:          0
cpu0_STLB WRITEBACK ACCESS:          0  HIT:          0  MISS:          0
cpu0_L1D TOTAL     ACCESS:    6754852  HIT:    5445143  MISS:    1309709
cpu0_L1D LOAD      ACCESS:    5339289  HIT:    4139931  MISS:    1199358
cpu0_L1D RFO       ACCESS:    1414846  HIT:    1305212  MISS:     109634
cpu0_L1D PREFETCH  ACCESS:          0  HIT:          0  MISS:          0
cpu0_L1D WRITEBACK ACCESS:          0  HIT:          0  MISS:          0
cpu0_L2C TOTAL     ACCESS:    1686739  HIT:    1587684  MISS:      99055
cpu0_L2C LOAD      ACCESS:    1459255  HIT:    1372781  MISS:      86474
cpu0_L2C RFO       ACCESS:     109532  HIT:      97351  MISS:      12181
cpu0_L2C PREFETCH  ACCESS:          0  HIT:          0  MISS:          0
cpu0_L2C WRITEBACK ACCESS:     117235  HIT:     117200  MISS:         35
LLC TOTAL     ACCESS:     109827  HIT:      62282  MISS:      47545
LLC LOAD      ACCESS:      86473  HIT:      49544  MISS:      36929
LLC RFO       ACCESS:      10892  HIT:        342  MISS:      10550
LLC PREFETCH  ACCESS:          0  HIT:          0  MISS:          0
LLC WRITEBACK ACCESS:      12097  HIT:      12039  MISS:         58
Heartbeat CPU 0 instructions: 70000000 cycles: 31439606 heartbeat IPC: 1.57515 cumulative IPC: 1.57071 (Simulation time: 1 hr 0 min 3 sec) 

Region of Interest Statistics
cpu0_DTLB TOTAL     ACCESS:    5311968  HIT:    4558632  MISS:     753336
cpu0_DTLB LOAD      ACCESS:    4559660  HIT:    3897154  MISS:     662506
cpu0_DTLB RFO       ACCESS:     752308  HIT:     661478  MISS:      90830
cpu0_DTLB PREFETCH  ACCESS:          0  HIT:          0  MISS:          0
cpu0_DTLB WRITEBACK ACCESS:          0  HIT:          0  MISS:          0
cpu0_ITLB TOTAL     ACCESS:     388752  HIT:     388752  MISS:          0
cpu0_ITLB LOAD      ACCESS:     388752  HIT:     388752  MISS:          0
cpu0_ITLB RFO       ACCESS:          0  HIT:          0  MISS:          0
cpu0_ITLB PREFETCH  ACCESS:          0  HIT:          0  MISS:          0
cpu0_ITLB WRITEBACK ACCESS:          0  HIT:          0  MISS:          0
cpu0_L1I TOTAL     ACCESS:    1958716  HIT:    1670027  MISS:     288689
cpu0_L1I LOAD      ACCESS:    1958716  HIT:    1670027  MISS:     288689
cpu0_L1I RFO       ACCESS:          0  HIT:          0  MISS:          0
cpu0_L1I PREFETCH  ACCESS:          0  HIT:          0  MISS:          0
cpu0_L1I WRITEBACK ACCESS:          0  HIT:          0  MISS:          0
cpu0_STLB TOTAL     ACCESS:     753336  HIT:     752527  MISS:        809
cpu0_STLB LOAD      ACCESS:     662506  HIT:     661873  MISS:        633
cpu0_STLB RFO       ACCESS:      90830  HIT:      90654  MISS:        176
cpu0_STLB PREFETCH  ACCESS:          0  HIT:          0  MISS:          0
cpu0_STLB WRITEBACK ACCESS:          0  HIT:          0  MISS:          0
cpu0_L1D TOTAL     ACCESS:    7505560  HIT:    6050126  MISS:    1455434
cpu0_L1D LOAD      ACCESS:    5932772  HIT:    4600026  MISS:    1332746
cpu0_L1D RFO       ACCESS:    1571979  HIT:    1450100  MISS:     121879
cpu0_L1D PREFETCH  ACCESS:          0  HIT:          0  MISS:          0
cpu0_L1D WRITEBACK ACCESS:          0  HIT:          0  MISS:          0
cpu0_L2C TOTAL     ACCESS:    1874206  HIT:    1763204  MISS:     111002
cpu0_L2C LOAD      ACCESS:    1621248  HIT:    1524685  MISS:      96563
cpu0_L2C RFO       ACCESS:     121765  HIT:     107788  MISS:      13977
cpu0_L2C PREFETCH  ACCESS:          0  HIT:          0  MISS:          0
cpu0_L2C WRITEBACK ACCESS:     130384  HIT:     130345  MISS:         39
LLC TOTAL     ACCESS:     123094  HIT:      70260  MISS:      52834
LLC LOAD      ACCESS:      96562  HIT:      55515  MISS:      41047
LLC RFO       ACCESS:      12097  HIT:        397  MISS:      11700
LLC PREFETCH  ACCESS:          0  HIT:          0  MISS:          0
LLC WRITEBACK ACCESS:      14012  HIT:      13933  MISS:         79
Heartbeat CPU 0 instructions: 72000004 cycles: 32729609 heartbeat IPC: 1.55039 cumulative IPC: 1.56884 (Simulation time: 1 hr 2 min 2 sec) 

Region of Interest Statistics
cpu0_DTLB TOTAL     ACCESS:    5842271  HIT:    5013142  MISS:     829129
cpu0_DTLB LOAD      ACCESS:    5014819  HIT:    4285547  MISS:     729272
cpu0_DTLB RFO       ACCESS:     827452  HIT:     727595  MISS:      99857
cpu0_DTLB PREFETCH  ACCESS:          0  HIT:          0  MISS:          0
cpu0_DTLB WRITEBACK ACCESS:          0  HIT:          0  MISS:          0
cpu0_ITLB TOTAL     ACCESS:     427689  HIT:     427689  MISS:          0
cpu0_ITLB LOAD      ACCESS:     427689  HIT:     427689  MISS:          0
cpu0_ITLB RFO       ACCESS:          0  HIT:          0  MISS:          0
cpu0_ITLB PREFETCH  ACCESS:          0  HIT:          0  MISS:          0
cpu0_ITLB WRITEBACK ACCESS:          0  HIT:          0  MISS:          0
cpu0_L1I TOTAL     ACCESS:    2154882  HIT:    1836738  MISS:     318144
cpu0_L1I LOAD      ACCESS:    2154882  HIT:    1836738  MISS:     318144
cpu0_L1I RFO       ACCESS:          0  HIT:          0  MISS:          0
cpu0_L1I PREFETCH  ACCESS:          0  HIT:          0  MISS:          0
cpu0_L1I WRITEBACK ACCESS:          0  HIT:          0  MISS:          0
cpu0_STLB TOTAL     ACCESS:     829129  HIT:     828228  MISS:        901
cpu0_STLB LOAD      ACCESS:     729272  HIT:     728572  MISS:        700
cpu0_STLB RFO       ACCESS:      99857  HIT:      99656  MISS:        201
cpu0_STLB PREFETCH  ACCESS:          0  HIT:          0  MISS:          0
cpu0_STLB WRITEBACK ACCESS:          0  HIT:          0  MISS:          0
cpu0_L1D TOTAL     ACCESS:    8255558  HIT:    6654786  MISS:    1600772
cpu0_L1D LOAD      ACCESS:    6525489  HIT:    5059706  MISS:    1465783
cpu0_L1D RFO       ACCESS:    1729168  HIT:    1595080  MISS:     134088
cpu0_L1D PREFETCH  ACCESS:          0  HIT:          0  MISS:          0
cpu0_L1D WRITEBACK ACCESS:          0  HIT:          0  MISS:          0
cpu0_L2C TOTAL     ACCESS:    2062018  HIT:    1939886  MISS:     122132
cpu0_L2C LOAD      ACCESS:    1783715  HIT:    1677452  MISS:     106263
cpu0_L2C RFO       ACCESS:     133965  HIT:     118636  MISS:      15329
cpu0_L2C PREFETCH  ACCESS:          0  HIT:          0  MISS:          0
cpu0_L2C WRITEBACK ACCESS:     143437  HIT:     143383  MISS:         54
LLC TOTAL     ACCESS:     135376  HIT:      77043  MISS:      58333
LLC LOAD      ACCESS:     106262  HIT:      60925  MISS:      45337
LLC RFO       ACCESS:      13329  HIT:        454  MISS:      12875
LLC PREFETCH  ACCESS:          0  HIT:          0  MISS:          0
LLC WRITEBACK ACCESS:      15299  HIT:      15186  MISS:        113
Heartbeat CPU 0 instructions: 74000003 cycles: 34002596 heartbeat IPC: 1.57111 cumulative IPC: 1.56903 (Simulation time: 1 hr 3 min 52 sec) 

Region of Interest Statistics
cpu0_DTLB TOTAL     ACCESS:    6372979  HIT:    5468352  MISS:     904627
cpu0_DTLB LOAD      ACCESS:    5470711  HIT:    4674993  MISS:     795718
cpu0_DTLB RFO       ACCESS:     902268  HIT:     793359  MISS:     108909
cpu0_DTLB PREFETCH  ACCESS:          0  HIT:          0  MISS:          0
cpu0_DTLB WRITEBACK ACCESS:          0  HIT:          0  MISS:          0
cpu0_ITLB TOTAL     ACCESS:     466536  HIT:     466536  MISS:          0
cpu0_ITLB LOAD      ACCESS:     466536  HIT:     466536  MISS:          0
cpu0_ITLB RFO       ACCESS:          0  HIT:          0  MISS:          0
cpu0_ITLB PREFETCH  ACCESS:          0  HIT:          0  MISS:          0
cpu0_ITLB WRITEBACK ACCESS:          0  HIT:          0  MISS:          0
cpu0_L1I TOTAL     ACCESS:    2350710  HIT:    2003693  MISS:     347017
cpu0_L1I LOAD      ACCESS:    2350710  HIT:    2003693  MISS:     347017
cpu0_L1I RFO       ACCESS:          0  HIT:          0  MISS:          0
cpu0_L1I PREFETCH  ACCESS:          0  HIT:          0  MISS:          0
cpu0_L1I WRITEBACK ACCESS:          0  HIT:          0  MISS:          0
cpu0_STLB TOTAL     ACCESS:     904627  HIT:     903673  MISS:        954
cpu0_STLB LOAD      ACCESS:     795718  HIT:     794965  MISS:        753
cpu0_STLB RFO       ACCESS:     108909  HIT:     108708  MISS:        201
cpu0_STLB PREFETCH  ACCESS:          0  HIT:          0  MISS:          0
cpu0_STLB WRITEBACK ACCESS:          0  HIT:          0  MISS:          0
cpu0_L1D TOTAL     ACCESS:    9006507  HIT:    7260120  MISS:    1746387
cpu0_L1D LOAD      ACCESS:    7119223  HIT:    5520079  MISS:    1599144
cpu0_L1D RFO       ACCESS:    1886330  HIT:    1740041  MISS:     146289
cpu0_L1D PREFETCH  ACCESS:          0  HIT:          0  MISS:          0
cpu0_L1D WRITEBACK ACCESS:          0  HIT:          0  MISS:          0
cpu0_L2C TOTAL     ACCESS:    2249533  HIT:    2117175  MISS:     132358
cpu0_L2C LOAD      ACCESS:    1945930  HIT:    1830666  MISS:     115264
cpu0_L2C RFO       ACCESS:     146149  HIT:     129634  MISS:      16515
cpu0_L2C PREFETCH  ACCESS:          0  HIT:          0  MISS:          0
cpu0_L2C WRITEBACK ACCESS:     156500  HIT:     156430  MISS:         70
LLC TOTAL     ACCESS:     146734  HIT:      83043  MISS:      63691
LLC LOAD      ACCESS:     115263  HIT:      65763  MISS:      49500
LLC RFO       ACCESS:      14515  HIT:        465  MISS:      14050
LLC PREFETCH  ACCESS:          0  HIT:          0  MISS:          0
LLC WRITEBACK ACCESS:      16447  HIT:      16314  MISS:        133
Heartbeat CPU 0 instructions: 76000003 cycles: 35266643 heartbeat IPC: 1.58222 cumulative IPC: 1.57004 (Simulation time: 1 hr 5 min 47 sec) 

Region of Interest Statistics
cpu0_DTLB TOTAL     ACCESS:    6904078  HIT:    5923913  MISS:     980165
cpu0_DTLB LOAD      ACCESS:    5926862  HIT:    5064644  MISS:     862218
cpu0_DTLB RFO       ACCESS:     977216  HIT:     859269  MISS:     117947
cpu0_DTLB PREFETCH  ACCESS:          0  HIT:          0  MISS:          0
cpu0_DTLB WRITEBACK ACCESS:          0  HIT:          0  MISS:          0
cpu0_ITLB TOTAL     ACCESS:     505351  HIT:     505351  MISS:          0
cpu0_ITLB LOAD      ACCESS:     505351  HIT:     505351  MISS:          0
cpu0_ITLB RFO       ACCESS:          0  HIT:          0  MISS:          0
cpu0_ITLB PREFETCH  ACCESS:          0  HIT:          0  MISS:          0
cpu0_ITLB WRITEBACK ACCESS:          0  HIT:          0  MISS:          0
cpu0_L1I TOTAL     ACCESS:    2546542  HIT:    2171003  MISS:     375539
cpu0_L1I LOAD      ACCESS:    2546542  HIT:    2171003  MISS:     375539
cpu0_L1I RFO       ACCESS:          0  HIT:          0  MISS:          0
cpu0_L1I PREFETCH  ACCESS:          0  HIT:          0  MISS:          0
cpu0_L1I WRITEBACK ACCESS:          0  HIT:          0  MISS:          0
cpu0_STLB TOTAL     ACCESS:     980165  HIT:     979115  MISS:       1050
cpu0_STLB LOAD      ACCESS:     862218  HIT:     861394  MISS:        824
cpu0_STLB RFO       ACCESS:     117947  HIT:     117721  MISS:        226
cpu0_STLB PREFETCH  ACCESS:          0  HIT:          0  MISS:          0
cpu0_STLB WRITEBACK ACCESS:          0  HIT:          0  MISS:          0
cpu0_L1D TOTAL     ACCESS:    9756470  HIT:    7864566  MISS:    1891904
cpu0_L1D LOAD      ACCESS:    7711920  HIT:    5979548  MISS:    1732372
cpu0_L1D RFO       ACCESS:    2043500  HIT:    1885018  MISS:     158482
cpu0_L1D PREFETCH  ACCESS:          0  HIT:          0  MISS:          0
cpu0_L1D WRITEBACK ACCESS:          0  HIT:          0  MISS:          0
cpu0_L2C TOTAL     ACCESS:    2436560  HIT:    2293778  MISS:     142782
cpu0_L2C LOAD      ACCESS:    2107663  HIT:    1983186  MISS:     124477
cpu0_L2C RFO       ACCESS:     158328  HIT:     140663  MISS:      17665
cpu0_L2C PREFETCH  ACCESS:          0  HIT:          0  MISS:          0
cpu0_L2C WRITEBACK ACCESS:     169519  HIT:     169449  MISS:         70
LLC TOTAL     ACCESS:     158321  HIT:      89460  MISS:      68861
LLC LOAD      ACCESS:     124476  HIT:      70959  MISS:      53517
LLC RFO       ACCESS:      15665  HIT:        465  MISS:      15200
LLC PREFETCH  ACCESS:          0  HIT:          0  MISS:          0
LLC WRITEBACK ACCESS:      17610  HIT:      17474  MISS:        136
Heartbeat CPU 0 instructions: 78000000 cycles: 36537188 heartbeat IPC: 1.57413 cumulative IPC: 1.57033 (Simulation time: 1 hr 7 min 43 sec) 

Region of Interest Statistics
cpu0_DTLB TOTAL     ACCESS:    7434249  HIT:    6378414  MISS:    1055835
cpu0_DTLB LOAD      ACCESS:    6381896  HIT:    5453064  MISS:     928832
cpu0_DTLB RFO       ACCESS:    1052353  HIT:     925350  MISS:     127003
cpu0_DTLB PREFETCH  ACCESS:          0  HIT:          0  MISS:          0
cpu0_DTLB WRITEBACK ACCESS:          0  HIT:          0  MISS:          0
cpu0_ITLB TOTAL     ACCESS:     544242  HIT:     544242  MISS:          0
cpu0_ITLB LOAD      ACCESS:     544242  HIT:     544242  MISS:          0
cpu0_ITLB RFO       ACCESS:          0  HIT:          0  MISS:          0
cpu0_ITLB PREFETCH  ACCESS:          0  HIT:          0  MISS:          0
cpu0_ITLB WRITEBACK ACCESS:          0  HIT:          0  MISS:          0
cpu0_L1I TOTAL     ACCESS:    2742449  HIT:    2338070  MISS:     404379
cpu0_L1I LOAD      ACCESS:    2742449  HIT:    2338070  MISS:     404379
cpu0_L1I RFO       ACCESS:          0  HIT:          0  MISS:          0
cpu0_L1I PREFETCH  ACCESS:          0  HIT:          0  MISS:          0
cpu0_L1I WRITEBACK ACCESS:          0  HIT:          0  MISS:          0
cpu0_STLB TOTAL     ACCESS:    1055835  HIT:    1054708  MISS:       1127
cpu0_STLB LOAD      ACCESS:     928832  HIT:     927956  MISS:        876
cpu0_STLB RFO       ACCESS:     127003  HIT:     126752  MISS:        251
cpu0_STLB PREFETCH  ACCESS:          0  HIT:          0  MISS:          0
cpu0_STLB WRITEBACK ACCESS:          0  HIT:          0  MISS:          0
cpu0_L1D TOTAL     ACCESS:   10506425  HIT:    8468656  MISS:    2037769
cpu0_L1D LOAD      ACCESS:    8304619  HIT:    6438796  MISS:    1865823
cpu0_L1D RFO       ACCESS:    2200679  HIT:    2029860  MISS:     170819
cpu0_L1D PREFETCH  ACCESS:          0  HIT:          0  MISS:          0
cpu0_L1D WRITEBACK ACCESS:          0  HIT:          0  MISS:          0
cpu0_L2C TOTAL     ACCESS:    2624473  HIT:    2471450  MISS:     153023
cpu0_L2C LOAD      ACCESS:    2269939  HIT:    2136446  MISS:     133493
cpu0_L2C RFO       ACCESS:     170659  HIT:     151819  MISS:      18840
cpu0_L2C PREFETCH  ACCESS:          0  HIT:          0  MISS:          0
cpu0_L2C WRITEBACK ACCESS:     182748  HIT:     182676  MISS:         72
LLC TOTAL     ACCESS:     169834  HIT:      95690  MISS:      74144
LLC LOAD      ACCESS:     133492  HIT:      75882  MISS:      57610
LLC RFO       ACCESS:      16840  HIT:        465  MISS:      16375
LLC PREFETCH  ACCESS:          0  HIT:          0  MISS:          0
LLC WRITEBACK ACCESS:      18884  HIT:      18733  MISS:        151
Heartbeat CPU 0 instructions: 80000000 cycles: 37814241 heartbeat IPC: 1.56611 cumulative IPC: 1.57005 (Simulation time: 1 hr 9 min 43 sec) 

Region of Interest Statistics
cpu0_DTLB TOTAL     ACCESS:    7964507  HIT:    6832421  MISS:    1132086
cpu0_DTLB LOAD      ACCESS:    6837041  HIT:    5841041  MISS:     996000
cpu0_DTLB RFO       ACCESS:    1127466  HIT:     991380  MISS:     136086
cpu0_DTLB PREFETCH  ACCESS:          0  HIT:          0  MISS:          0
cpu0_DTLB WRITEBACK ACCESS:          0  HIT:          0  MISS:          0
cpu0_ITLB TOTAL     ACCESS:     583096  HIT:     583096  MISS:          0
cpu0_ITLB LOAD      ACCESS:     583096  HIT:     583096  MISS:          0
cpu0_ITLB RFO       ACCESS:          0  HIT:          0  MISS:          0
cpu0_ITLB PREFETCH  ACCESS:          0  HIT:          0  MISS:          0
cpu0_ITLB WRITEBACK ACCESS:          0  HIT:          0  MISS:          0
cpu0_L1I TOTAL     ACCESS:    2938296  HIT:    2505315  MISS:     432981
cpu0_L1I LOAD      ACCESS:    2938296  HIT:    2505315  MISS:     432981
cpu0_L1I RFO       ACCESS:          0  HIT:          0  MISS:          0
cpu0_L1I PREFETCH  ACCESS:          0  HIT:          0  MISS:          0
cpu0_L1I WRITEBACK ACCESS:          0  HIT:          0  MISS:          0
cpu0_STLB TOTAL     ACCESS:    1132086  HIT:    1130863  MISS:       1223
cpu0_STLB LOAD      ACCESS:     996000  HIT:     995053  MISS:        947
cpu0_STLB RFO       ACCESS:     136086  HIT:     135810  MISS:        276
cpu0_STLB PREFETCH  ACCESS:          0  HIT:          0  MISS:          0
cpu0_STLB WRITEBACK ACCESS:          0  HIT:          0  MISS:          0
cpu0_L1D TOTAL     ACCESS:   11256551  HIT:    9073061  MISS:    2183490
cpu0_L1D LOAD      ACCESS:    8897486  HIT:    6898215  MISS:    1999271
cpu0_L1D RFO       ACCESS:    2357842  HIT:    2174846  MISS:     182996
cpu0_L1D PREFETCH  ACCESS:          0  HIT:          0  MISS:          0
cpu0_L1D WRITEBACK ACCESS:          0  HIT:          0  MISS:          0
cpu0_L2C TOTAL     ACCESS:    2811825  HIT:    2648771  MISS:     163054
cpu0_L2C LOAD      ACCESS:    2431968  HIT:    2289673  MISS:     142295
cpu0_L2C RFO       ACCESS:     182815  HIT:     162790  MISS:      20025
cpu0_L2C PREFETCH  ACCESS:          0  HIT:          0  MISS:          0
cpu0_L2C WRITEBACK ACCESS:     195819  HIT:     195747  MISS:         72
LLC TOTAL     ACCESS:     181000  HIT:     101504  MISS:      79496
LLC LOAD      ACCESS:     142294  HIT:      80517  MISS:      61777
LLC RFO       ACCESS:      18025  HIT:        465  MISS:      17560
LLC PREFETCH  ACCESS:          0  HIT:          0  MISS:          0
LLC WRITEBACK ACCESS:      20019  HIT:      19868  MISS:        151
Heartbeat CPU 0 instructions: 82000000 cycles: 39083718 heartbeat IPC: 1.57545 cumulative IPC: 1.57038 (Simulation time: 1 hr 11 min 37 sec) 

Region of Interest Statistics
cpu0_DTLB TOTAL     ACCESS:    8496227  HIT:    7289256  MISS:    1206971
cpu0_DTLB LOAD      ACCESS:    7293726  HIT:    6231871  MISS:    1061855
cpu0_DTLB RFO       ACCESS:    1202501  HIT:    1057385  MISS:     145116
cpu0_DTLB PREFETCH  ACCESS:          0  HIT:          0  MISS:          0
cpu0_DTLB WRITEBACK ACCESS:          0  HIT:          0  MISS:          0
cpu0_ITLB TOTAL     ACCESS:     622022  HIT:     622022  MISS:          0
cpu0_ITLB LOAD      ACCESS:     622022  HIT:     622022  MISS:          0
cpu0_ITLB RFO       ACCESS:          0  HIT:          0  MISS:          0
cpu0_ITLB PREFETCH  ACCESS:          0  HIT:          0  MISS:          0
cpu0_ITLB WRITEBACK ACCESS:          0  HIT:          0  MISS:          0
cpu0_L1I TOTAL     ACCESS:    3134106  HIT:    2672161  MISS:     461945
cpu0_L1I LOAD      ACCESS:    3134106  HIT:    2672161  MISS:     461945
cpu0_L1I RFO       ACCESS:          0  HIT:          0  MISS:          0
cpu0_L1I PREFETCH  ACCESS:          0  HIT:          0  MISS:          0
cpu0_L1I WRITEBACK ACCESS:          0  HIT:          0  MISS:          0
cpu0_STLB TOTAL     ACCESS:    1206971  HIT:    1205684  MISS:       1287
cpu0_STLB LOAD      ACCESS:    1061855  HIT:    1060844  MISS:       1011
cpu0_STLB RFO       ACCESS:     145116  HIT:     144840  MISS:        276
cpu0_STLB PREFETCH  ACCESS:          0  HIT:          0  MISS:          0
cpu0_STLB WRITEBACK ACCESS:          0  HIT:          0  MISS:          0
cpu0_L1D TOTAL     ACCESS:   12006923  HIT:    9677862  MISS:    2329061
cpu0_L1D LOAD      ACCESS:    9490596  HIT:    7358011  MISS:    2132585
cpu0_L1D RFO       ACCESS:    2515040  HIT:    2319851  MISS:     195189
cpu0_L1D PREFETCH  ACCESS:          0  HIT:          0  MISS:          0
cpu0_L1D WRITEBACK ACCESS:          0  HIT:          0  MISS:          0
cpu0_L2C TOTAL     ACCESS:    2999364  HIT:    2827125  MISS:     172239
cpu0_L2C LOAD      ACCESS:    2594227  HIT:    2443930  MISS:     150297
cpu0_L2C RFO       ACCESS:     194990  HIT:     173800  MISS:      21190
cpu0_L2C PREFETCH  ACCESS:          0  HIT:          0  MISS:          0
cpu0_L2C WRITEBACK ACCESS:     208860  HIT:     208788  MISS:         72
LLC TOTAL     ACCESS:     191501  HIT:     106725  MISS:      84776
LLC LOAD      ACCESS:     150296  HIT:      84404  MISS:      65892
LLC RFO       ACCESS:      19190  HIT:        465  MISS:      18725
LLC PREFETCH  ACCESS:          0  HIT:          0  MISS:          0
LLC WRITEBACK ACCESS:      21335  HIT:      21184  MISS:        151
Heartbeat CPU 0 instructions: 84000003 cycles: 40364063 heartbeat IPC: 1.56208 cumulative IPC: 1.56989 (Simulation time: 1 hr 13 min 19 sec) 

Region of Interest Statistics
cpu0_DTLB TOTAL     ACCESS:    9028481  HIT:    7746349  MISS:    1282132
cpu0_DTLB LOAD      ACCESS:    7750120  HIT:    6622154  MISS:    1127966
cpu0_DTLB RFO       ACCESS:    1278361  HIT:    1124195  MISS:     154166
cpu0_DTLB PREFETCH  ACCESS:          0  HIT:          0  MISS:          0
cpu0_DTLB WRITEBACK ACCESS:          0  HIT:          0  MISS:          0
cpu0_ITLB TOTAL     ACCESS:     660918  HIT:     660918  MISS:          0
cpu0_ITLB LOAD      ACCESS:     660918  HIT:     660918  MISS:          0
cpu0_ITLB RFO       ACCESS:          0  HIT:          0  MISS:          0
cpu0_ITLB PREFETCH  ACCESS:          0  HIT:          0  MISS:          0
cpu0_ITLB WRITEBACK ACCESS:          0  HIT:          0  MISS:          0
cpu0_L1I TOTAL     ACCESS:    3329874  HIT:    2839355  MISS:     490519
cpu0_L1I LOAD      ACCESS:    3329874  HIT:    2839355  MISS:     490519
cpu0_L1I RFO       ACCESS:          0  HIT:          0  MISS:          0
cpu0_L1I PREFETCH  ACCESS:          0  HIT:          0  MISS:          0
cpu0_L1I WRITEBACK ACCESS:          0  HIT:          0  MISS:          0
cpu0_STLB TOTAL     ACCESS:    1282132  HIT:    1280764  MISS:       1368
cpu0_STLB LOAD      ACCESS:    1127966  HIT:    1126899  MISS:       1067
cpu0_STLB RFO       ACCESS:     154166  HIT:     153865  MISS:        301
cpu0_STLB PREFETCH  ACCESS:          0  HIT:          0  MISS:          0
cpu0_STLB WRITEBACK ACCESS:          0  HIT:          0  MISS:          0
cpu0_L1D TOTAL     ACCESS:   12756999  HIT:   10282630  MISS:    2474369
cpu0_L1D LOAD      ACCESS:   10083487  HIT:    7817965  MISS:    2265522
cpu0_L1D RFO       ACCESS:    2672144  HIT:    2464665  MISS:     207479
cpu0_L1D PREFETCH  ACCESS:          0  HIT:          0  MISS:          0
cpu0_L1D WRITEBACK ACCESS:          0  HIT:          0  MISS:          0
cpu0_L2C TOTAL     ACCESS:    3186373  HIT:    3003180  MISS:     183193
cpu0_L2C LOAD      ACCESS:    2755727  HIT:    2596611  MISS:     159116
cpu0_L2C RFO       ACCESS:     207268  HIT:     183995  MISS:      23273
cpu0_L2C PREFETCH  ACCESS:          0  HIT:          0  MISS:          0
cpu0_L2C WRITEBACK ACCESS:     222010  HIT:     221938  MISS:         72
LLC TOTAL     ACCESS:     203869  HIT:     113738  MISS:      90131
LLC LOAD      ACCESS:     159115  HIT:      89043  MISS:      70072
LLC RFO       ACCESS:      20578  HIT:        678  MISS:      19900
LLC PREFETCH  ACCESS:          0  HIT:          0  MISS:          0
LLC WRITEBACK ACCESS:      23444  HIT:      23293  MISS:        151
Heartbeat CPU 0 instructions: 86000000 cycles: 41645531 heartbeat IPC: 1.56071 cumulative IPC: 1.56938 (Simulation time: 1 hr 15 min 7 sec) 

Region of Interest Statistics
cpu0_DTLB TOTAL     ACCESS:    9559534  HIT:    8201748  MISS:    1357786
cpu0_DTLB LOAD      ACCESS:    8205420  HIT:    7010848  MISS:    1194572
cpu0_DTLB RFO       ACCESS:    1354114  HIT:    1190900  MISS:     163214
cpu0_DTLB PREFETCH  ACCESS:          0  HIT:          0  MISS:          0
cpu0_DTLB WRITEBACK ACCESS:          0  HIT:          0  MISS:          0
cpu0_ITLB TOTAL     ACCESS:     699790  HIT:     699790  MISS:          0
cpu0_ITLB LOAD      ACCESS:     699790  HIT:     699790  MISS:          0
cpu0_ITLB RFO       ACCESS:          0  HIT:          0  MISS:          0
cpu0_ITLB PREFETCH  ACCESS:          0  HIT:          0  MISS:          0
cpu0_ITLB WRITEBACK ACCESS:          0  HIT:          0  MISS:          0
cpu0_L1I TOTAL     ACCESS:    3525758  HIT:    3006301  MISS:     519457
cpu0_L1I LOAD      ACCESS:    3525758  HIT:    3006301  MISS:     519457
cpu0_L1I RFO       ACCESS:          0  HIT:          0  MISS:          0
cpu0_L1I PREFETCH  ACCESS:          0  HIT:          0  MISS:          0
cpu0_L1I WRITEBACK ACCESS:          0  HIT:          0  MISS:          0
cpu0_STLB TOTAL     ACCESS:    1357786  HIT:    1356326  MISS:       1460
cpu0_STLB LOAD      ACCESS:    1194572  HIT:    1193438  MISS:       1134
cpu0_STLB RFO       ACCESS:     163214  HIT:     162888  MISS:        326
cpu0_STLB PREFETCH  ACCESS:          0  HIT:          0  MISS:          0
cpu0_STLB WRITEBACK ACCESS:          0  HIT:          0  MISS:          0
cpu0_L1D TOTAL     ACCESS:   13507330  HIT:   10887374  MISS:    2619956
cpu0_L1D LOAD      ACCESS:   10676541  HIT:    8277750  MISS:    2398791
cpu0_L1D RFO       ACCESS:    2829329  HIT:    2609624  MISS:     219705
cpu0_L1D PREFETCH  ACCESS:          0  HIT:          0  MISS:          0
cpu0_L1D WRITEBACK ACCESS:          0  HIT:          0  MISS:          0
cpu0_L2C TOTAL     ACCESS:    3373942  HIT:    3179348  MISS:     194594
cpu0_L2C LOAD      ACCESS:    2917916  HIT:    2749455  MISS:     168461
cpu0_L2C RFO       ACCESS:     219483  HIT:     194197  MISS:      25286
cpu0_L2C PREFETCH  ACCESS:          0  HIT:          0  MISS:          0
cpu0_L2C WRITEBACK ACCESS:     235083  HIT:     235011  MISS:         72
LLC TOTAL     ACCESS:     216644  HIT:     121175  MISS:      95469
LLC LOAD      ACCESS:     168460  HIT:      94235  MISS:      74225
LLC RFO       ACCESS:      21983  HIT:        911  MISS:      21072
LLC PREFETCH  ACCESS:          0  HIT:          0  MISS:          0
LLC WRITEBACK ACCESS:      25426  HIT:      25264  MISS:        162
Heartbeat CPU 0 instructions: 88000001 cycles: 42906529 heartbeat IPC: 1.58605 cumulative IPC: 1.57025 (Simulation time: 1 hr 17 min 2 sec) 

Region of Interest Statistics
cpu0_DTLB TOTAL     ACCESS:   10090060  HIT:    8656818  MISS:    1433242
cpu0_DTLB LOAD      ACCESS:    8661115  HIT:    7400137  MISS:    1260978
cpu0_DTLB RFO       ACCESS:    1428945  HIT:    1256681  MISS:     172264
cpu0_DTLB PREFETCH  ACCESS:          0  HIT:          0  MISS:          0
cpu0_DTLB WRITEBACK ACCESS:          0  HIT:          0  MISS:          0
cpu0_ITLB TOTAL     ACCESS:     738653  HIT:     738653  MISS:          0
cpu0_ITLB LOAD      ACCESS:     738653  HIT:     738653  MISS:          0
cpu0_ITLB RFO       ACCESS:          0  HIT:          0  MISS:          0
cpu0_ITLB PREFETCH  ACCESS:          0  HIT:          0  MISS:          0
cpu0_ITLB WRITEBACK ACCESS:          0  HIT:          0  MISS:          0
cpu0_L1I TOTAL     ACCESS:    3721665  HIT:    3173310  MISS:     548355
cpu0_L1I LOAD      ACCESS:    3721665  HIT:    3173310  MISS:     548355
cpu0_L1I RFO       ACCESS:          0  HIT:          0  MISS:          0
cpu0_L1I PREFETCH  ACCESS:          0  HIT:          0  MISS:          0
cpu0_L1I WRITEBACK ACCESS:          0  HIT:          0  MISS:          0
cpu0_STLB TOTAL     ACCESS:    1433242  HIT:    1431722  MISS:       1520
cpu0_STLB LOAD      ACCESS:    1260978  HIT:    1259784  MISS:       1194
cpu0_STLB RFO       ACCESS:     172264  HIT:     171938  MISS:        326
cpu0_STLB PREFETCH  ACCESS:          0  HIT:          0  MISS:          0
cpu0_STLB WRITEBACK ACCESS:          0  HIT:          0  MISS:          0
cpu0_L1D TOTAL     ACCESS:   14257631  HIT:   11492188  MISS:    2765443
cpu0_L1D LOAD      ACCESS:   11269597  HIT:    8737589  MISS:    2532008
cpu0_L1D RFO       ACCESS:    2986514  HIT:    2754599  MISS:     231915
cpu0_L1D PREFETCH  ACCESS:          0  HIT:          0  MISS:          0
cpu0_L1D WRITEBACK ACCESS:          0  HIT:          0  MISS:          0
cpu0_L2C TOTAL     ACCESS:    3561374  HIT:    3356711  MISS:     204663
cpu0_L2C LOAD      ACCESS:    3080009  HIT:    2902638  MISS:     177371
cpu0_L2C RFO       ACCESS:     231675  HIT:     205236  MISS:      26439
cpu0_L2C PREFETCH  ACCESS:          0  HIT:          0  MISS:          0
cpu0_L2C WRITEBACK ACCESS:     248170  HIT:     248098  MISS:         72
LLC TOTAL     ACCESS:     227681  HIT:     127016  MISS:     100665
LLC LOAD      ACCESS:     177370  HIT:      99111  MISS:      78259
LLC RFO       ACCESS:      23136  HIT:        911  MISS:      22225
LLC PREFETCH  ACCESS:          0  HIT:          0  MISS:          0
LLC WRITEBACK ACCESS:      26394  HIT:      26223  MISS:        171
Heartbeat CPU 0 instructions: 90000001 cycles: 44194325 heartbeat IPC: 1.55304 cumulative IPC: 1.56938 (Simulation time: 1 hr 19 min 0 sec) 

Region of Interest Statistics
cpu0_DTLB TOTAL     ACCESS:   10621560  HIT:    9112774  MISS:    1508786
cpu0_DTLB LOAD      ACCESS:    9117727  HIT:    7790273  MISS:    1327454
cpu0_DTLB RFO       ACCESS:    1503833  HIT:    1322501  MISS:     181332
cpu0_DTLB PREFETCH  ACCESS:          0  HIT:          0  MISS:          0
cpu0_DTLB WRITEBACK ACCESS:          0  HIT:          0  MISS:          0
cpu0_ITLB TOTAL     ACCESS:     777496  HIT:     777496  MISS:          0
cpu0_ITLB LOAD      ACCESS:     777496  HIT:     777496  MISS:          0
cpu0_ITLB RFO       ACCESS:          0  HIT:          0  MISS:          0
cpu0_ITLB PREFETCH  ACCESS:          0  HIT:          0  MISS:          0
cpu0_ITLB WRITEBACK ACCESS:          0  HIT:          0  MISS:          0
cpu0_L1I TOTAL     ACCESS:    3917429  HIT:    3340627  MISS:     576802
cpu0_L1I LOAD      ACCESS:    3917429  HIT:    3340627  MISS:     576802
cpu0_L1I RFO       ACCESS:          0  HIT:          0  MISS:          0
cpu0_L1I PREFETCH  ACCESS:          0  HIT:          0  MISS:          0
cpu0_L1I WRITEBACK ACCESS:          0  HIT:          0  MISS:          0
cpu0_STLB TOTAL     ACCESS:    1508786  HIT:    1507181  MISS:       1605
cpu0_STLB LOAD      ACCESS:    1327454  HIT:    1326200  MISS:       1254
cpu0_STLB RFO       ACCESS:     181332  HIT:     180981  MISS:        351
cpu0_STLB PREFETCH  ACCESS:          0  HIT:          0  MISS:          0
cpu0_STLB WRITEBACK ACCESS:          0  HIT:          0  MISS:          0
cpu0_L1D TOTAL     ACCESS:   15008308  HIT:   12097179  MISS:    2911129
cpu0_L1D LOAD      ACCESS:   11862905  HIT:    9197466  MISS:    2665439
cpu0_L1D RFO       ACCESS:    3143798  HIT:    2899713  MISS:     244085
cpu0_L1D PREFETCH  ACCESS:          0  HIT:          0  MISS:          0
cpu0_L1D WRITEBACK ACCESS:          0  HIT:          0  MISS:          0
cpu0_L2C TOTAL     ACCESS:    3748448  HIT:    3532902  MISS:     215546
cpu0_L2C LOAD      ACCESS:    3241865  HIT:    3054838  MISS:     187027
cpu0_L2C RFO       ACCESS:     243832  HIT:     216193  MISS:      27639
cpu0_L2C PREFETCH  ACCESS:          0  HIT:          0  MISS:          0
cpu0_L2C WRITEBACK ACCESS:     261146  HIT:     261074  MISS:         72
LLC TOTAL     ACCESS:     239764  HIT:     133531  MISS:     106233
LLC LOAD      ACCESS:     187026  HIT:     104399  MISS:      82627
LLC RFO       ACCESS:      24336  HIT:        911  MISS:      23425
LLC PREFETCH  ACCESS:          0  HIT:          0  MISS:          0
LLC WRITEBACK ACCESS:      27594  HIT:      27423  MISS:        171
Heartbeat CPU 0 instructions: 92000002 cycles: 45462880 heartbeat IPC: 1.5766 cumulative IPC: 1.56972 (Simulation time: 1 hr 20 min 57 sec) 

Region of Interest Statistics
cpu0_DTLB TOTAL     ACCESS:   11152717  HIT:    9568470  MISS:    1584247
cpu0_DTLB LOAD      ACCESS:    9573897  HIT:    8180087  MISS:    1393810
cpu0_DTLB RFO       ACCESS:    1578820  HIT:    1388383  MISS:     190437
cpu0_DTLB PREFETCH  ACCESS:          0  HIT:          0  MISS:          0
cpu0_DTLB WRITEBACK ACCESS:          0  HIT:          0  MISS:          0
cpu0_ITLB TOTAL     ACCESS:     816353  HIT:     816353  MISS:          0
cpu0_ITLB LOAD      ACCESS:     816353  HIT:     816353  MISS:          0
cpu0_ITLB RFO       ACCESS:          0  HIT:          0  MISS:          0
cpu0_ITLB PREFETCH  ACCESS:          0  HIT:          0  MISS:          0
cpu0_ITLB WRITEBACK ACCESS:          0  HIT:          0  MISS:          0
cpu0_L1I TOTAL     ACCESS:    4113252  HIT:    3507673  MISS:     605579
cpu0_L1I LOAD      ACCESS:    4113252  HIT:    3507673  MISS:     605579
cpu0_L1I RFO       ACCESS:          0  HIT:          0  MISS:          0
cpu0_L1I PREFETCH  ACCESS:          0  HIT:          0  MISS:          0
cpu0_L1I WRITEBACK ACCESS:          0  HIT:          0  MISS:          0
cpu0_STLB TOTAL     ACCESS:    1584247  HIT:    1582546  MISS:       1701
cpu0_STLB LOAD      ACCESS:    1393810  HIT:    1392485  MISS:       1325
cpu0_STLB RFO       ACCESS:     190437  HIT:     190061  MISS:        376
cpu0_STLB PREFETCH  ACCESS:          0  HIT:          0  MISS:          0
cpu0_STLB WRITEBACK ACCESS:          0  HIT:          0  MISS:          0
cpu0_L1D TOTAL     ACCESS:   15759047  HIT:   12702442  MISS:    3056605
cpu0_L1D LOAD      ACCESS:   12456423  HIT:    9657898  MISS:    2798525
cpu0_L1D RFO       ACCESS:    3300923  HIT:    3044544  MISS:     256379
cpu0_L1D PREFETCH  ACCESS:          0  HIT:          0  MISS:          0
cpu0_L1D WRITEBACK ACCESS:          0  HIT:          0  MISS:          0
cpu0_L2C TOTAL     ACCESS:    3935772  HIT:    3709413  MISS:     226359
cpu0_L2C LOAD      ACCESS:    3403712  HIT:    3207072  MISS:     196640
cpu0_L2C RFO       ACCESS:     256119  HIT:     227330  MISS:      28789
cpu0_L2C PREFETCH  ACCESS:          0  HIT:          0  MISS:          0
cpu0_L2C WRITEBACK ACCESS:     274240  HIT:     274160  MISS:         80
LLC TOTAL     ACCESS:     251719  HIT:     140193  MISS:     111526
LLC LOAD      ACCESS:     196639  HIT:     109876  MISS:      86763
LLC RFO       ACCESS:      25486  HIT:        911  MISS:      24575
LLC PREFETCH  ACCESS:          0  HIT:          0  MISS:          0
LLC WRITEBACK ACCESS:      28744  HIT:      28566  MISS:        178
Heartbeat CPU 0 instructions: 94000001 cycles: 46730136 heartbeat IPC: 1.57821 cumulative IPC: 1.57011 (Simulation time: 1 hr 22 min 53 sec) 

Region of Interest Statistics
cpu0_DTLB TOTAL     ACCESS:   11683084  HIT:   10023560  MISS:    1659524
cpu0_DTLB LOAD      ACCESS:   10029213  HIT:    8569156  MISS:    1460057
cpu0_DTLB RFO       ACCESS:    1653871  HIT:    1454404  MISS:     199467
cpu0_DTLB PREFETCH  ACCESS:          0  HIT:          0  MISS:          0
cpu0_DTLB WRITEBACK ACCESS:          0  HIT:          0  MISS:          0
cpu0_ITLB TOTAL     ACCESS:     855155  HIT:     855155  MISS:          0
cpu0_ITLB LOAD      ACCESS:     855155  HIT:     855155  MISS:          0
cpu0_ITLB RFO       ACCESS:          0  HIT:          0  MISS:          0
cpu0_ITLB PREFETCH  ACCESS:          0  HIT:          0  MISS:          0
cpu0_ITLB WRITEBACK ACCESS:          0  HIT:          0  MISS:          0
cpu0_L1I TOTAL     ACCESS:    4309087  HIT:    3674495  MISS:     634592
cpu0_L1I LOAD      ACCESS:    4309087  HIT:    3674495  MISS:     634592
cpu0_L1I RFO       ACCESS:          0  HIT:          0  MISS:          0
cpu0_L1I PREFETCH  ACCESS:          0  HIT:          0  MISS:          0
cpu0_L1I WRITEBACK ACCESS:          0  HIT:          0  MISS:          0
cpu0_STLB TOTAL     ACCESS:    1659524  HIT:    1657735  MISS:       1789
cpu0_STLB LOAD      ACCESS:    1460057  HIT:    1458669  MISS:       1388
cpu0_STLB RFO       ACCESS:     199467  HIT:     199066  MISS:        401
cpu0_STLB PREFETCH  ACCESS:          0  HIT:          0  MISS:          0
cpu0_STLB WRITEBACK ACCESS:          0  HIT:          0  MISS:          0
cpu0_L1D TOTAL     ACCESS:   16509240  HIT:   13307093  MISS:    3202147
cpu0_L1D LOAD      ACCESS:   13049319  HIT:   10117552  MISS:    2931767
cpu0_L1D RFO       ACCESS:    3458132  HIT:    3189541  MISS:     268591
cpu0_L1D PREFETCH  ACCESS:          0  HIT:          0  MISS:          0
cpu0_L1D WRITEBACK ACCESS:          0  HIT:          0  MISS:          0
cpu0_L2C TOTAL     ACCESS:    4123374  HIT:    3886076  MISS:     237298
cpu0_L2C LOAD      ACCESS:    3565948  HIT:    3359598  MISS:     206350
cpu0_L2C RFO       ACCESS:     268319  HIT:     238355  MISS:      29964
cpu0_L2C PREFETCH  ACCESS:          0  HIT:          0  MISS:          0
cpu0_L2C WRITEBACK ACCESS:     287318  HIT:     287229  MISS:         89
LLC TOTAL     ACCESS:     263729  HIT:     147010  MISS:     116719
LLC LOAD      ACCESS:     206349  HIT:     115569  MISS:      90780
LLC RFO       ACCESS:      26661  HIT:        911  MISS:      25750
LLC PREFETCH  ACCESS:          0  HIT:          0  MISS:          0
LLC WRITEBACK ACCESS:      29824  HIT:      29645  MISS:        179
Heartbeat CPU 0 instructions: 96000000 cycles: 47999391 heartbeat IPC: 1.57573 cumulative IPC: 1.57035 (Simulation time: 1 hr 24 min 47 sec) 

Region of Interest Statistics
cpu0_DTLB TOTAL     ACCESS:   12214213  HIT:   10479590  MISS:    1734623
cpu0_DTLB LOAD      ACCESS:   10485340  HIT:    8959235  MISS:    1526105
cpu0_DTLB RFO       ACCESS:    1728873  HIT:    1520355  MISS:     208518
cpu0_DTLB PREFETCH  ACCESS:          0  HIT:          0  MISS:          0
cpu0_DTLB WRITEBACK ACCESS:          0  HIT:          0  MISS:          0
cpu0_ITLB TOTAL     ACCESS:     894070  HIT:     894070  MISS:          0
cpu0_ITLB LOAD      ACCESS:     894070  HIT:     894070  MISS:          0
cpu0_ITLB RFO       ACCESS:          0  HIT:          0  MISS:          0
cpu0_ITLB PREFETCH  ACCESS:          0  HIT:          0  MISS:          0
cpu0_ITLB WRITEBACK ACCESS:          0  HIT:          0  MISS:          0
cpu0_L1I TOTAL     ACCESS:    4505052  HIT:    3841358  MISS:     663694
cpu0_L1I LOAD      ACCESS:    4505052  HIT:    3841358  MISS:     663694
cpu0_L1I RFO       ACCESS:          0  HIT:          0  MISS:          0
cpu0_L1I PREFETCH  ACCESS:          0  HIT:          0  MISS:          0
cpu0_L1I WRITEBACK ACCESS:          0  HIT:          0  MISS:          0
cpu0_STLB TOTAL     ACCESS:    1734623  HIT:    1732770  MISS:       1853
cpu0_STLB LOAD      ACCESS:    1526105  HIT:    1524653  MISS:       1452
cpu0_STLB RFO       ACCESS:     208518  HIT:     208117  MISS:        401
cpu0_STLB PREFETCH  ACCESS:          0  HIT:          0  MISS:          0
cpu0_STLB WRITEBACK ACCESS:          0  HIT:          0  MISS:          0
cpu0_L1D TOTAL     ACCESS:   17259588  HIT:   13911958  MISS:    3347630
cpu0_L1D LOAD      ACCESS:   13642433  HIT:   10577398  MISS:    3065035
cpu0_L1D RFO       ACCESS:    3615302  HIT:    3334560  MISS:     280742
cpu0_L1D PREFETCH  ACCESS:          0  HIT:          0  MISS:          0
cpu0_L1D WRITEBACK ACCESS:          0  HIT:          0  MISS:          0
cpu0_L2C TOTAL     ACCESS:    4310889  HIT:    4062465  MISS:     248424
cpu0_L2C LOAD      ACCESS:    3728298  HIT:    3512026  MISS:     216272
cpu0_L2C RFO       ACCESS:     280449  HIT:     249310  MISS:      31139
cpu0_L2C PREFETCH  ACCESS:          0  HIT:          0  MISS:          0
cpu0_L2C WRITEBACK ACCESS:     300289  HIT:     300182  MISS:        107
LLC TOTAL     ACCESS:     276255  HIT:     154311  MISS:     121944
LLC LOAD      ACCESS:     216271  HIT:     121443  MISS:      94828
LLC RFO       ACCESS:      27836  HIT:        911  MISS:      26925
LLC PREFETCH  ACCESS:          0  HIT:          0  MISS:          0
LLC WRITEBACK ACCESS:      31242  HIT:      31061  MISS:        181
Heartbeat CPU 0 instructions: 98000003 cycles: 49266638 heartbeat IPC: 1.57823 cumulative IPC: 1.57068 (Simulation time: 1 hr 26 min 40 sec) 

Region of Interest Statistics
cpu0_DTLB TOTAL     ACCESS:   12745377  HIT:   10935577  MISS:    1809800
cpu0_DTLB LOAD      ACCESS:   10941644  HIT:    9349500  MISS:    1592144
cpu0_DTLB RFO       ACCESS:    1803733  HIT:    1586077  MISS:     217656
cpu0_DTLB PREFETCH  ACCESS:          0  HIT:          0  MISS:          0
cpu0_DTLB WRITEBACK ACCESS:          0  HIT:          0  MISS:          0
cpu0_ITLB TOTAL     ACCESS:     932987  HIT:     932987  MISS:          0
cpu0_ITLB LOAD      ACCESS:     932987  HIT:     932987  MISS:          0
cpu0_ITLB RFO       ACCESS:          0  HIT:          0  MISS:          0
cpu0_ITLB PREFETCH  ACCESS:          0  HIT:          0  MISS:          0
cpu0_ITLB WRITEBACK ACCESS:          0  HIT:          0  MISS:          0
cpu0_L1I TOTAL     ACCESS:    4701003  HIT:    4008448  MISS:     692555
cpu0_L1I LOAD      ACCESS:    4701003  HIT:    4008448  MISS:     692555
cpu0_L1I RFO       ACCESS:          0  HIT:          0  MISS:          0
cpu0_L1I PREFETCH  ACCESS:          0  HIT:          0  MISS:          0
cpu0_L1I WRITEBACK ACCESS:          0  HIT:          0  MISS:          0
cpu0_STLB TOTAL     ACCESS:    1809800  HIT:    1807862  MISS:       1938
cpu0_STLB LOAD      ACCESS:    1592144  HIT:    1590632  MISS:       1512
cpu0_STLB RFO       ACCESS:     217656  HIT:     217230  MISS:        426
cpu0_STLB PREFETCH  ACCESS:          0  HIT:          0  MISS:          0
cpu0_STLB WRITEBACK ACCESS:          0  HIT:          0  MISS:          0
cpu0_L1D TOTAL     ACCESS:   18010239  HIT:   14517034  MISS:    3493205
cpu0_L1D LOAD      ACCESS:   14235794  HIT:   11037473  MISS:    3198321
cpu0_L1D RFO       ACCESS:    3772507  HIT:    3479561  MISS:     292946
cpu0_L1D PREFETCH  ACCESS:          0  HIT:          0  MISS:          0
cpu0_L1D WRITEBACK ACCESS:          0  HIT:          0  MISS:          0
cpu0_L2C TOTAL     ACCESS:    4498329  HIT:    4239864  MISS:     258465
cpu0_L2C LOAD      ACCESS:    3890436  HIT:    3665324  MISS:     225112
cpu0_L2C RFO       ACCESS:     292641  HIT:     260352  MISS:      32289
cpu0_L2C PREFETCH  ACCESS:          0  HIT:          0  MISS:          0
cpu0_L2C WRITEBACK ACCESS:     313314  HIT:     313204  MISS:        110
LLC TOTAL     ACCESS:     287455  HIT:     160256  MISS:     127199
LLC LOAD      ACCESS:     225111  HIT:     126207  MISS:      98904
LLC RFO       ACCESS:      28986  HIT:        911  MISS:      28075
LLC PREFETCH  ACCESS:          0  HIT:          0  MISS:          0
LLC WRITEBACK ACCESS:      32404  HIT:      32194  MISS:        210
Heartbeat CPU 0 instructions: 100000001 cycles: 50534203 heartbeat IPC: 1.57783 cumulative IPC: 1.57096 (Simulation time: 1 hr 28 min 36 sec) 

Region of Interest Statistics
cpu0_DTLB TOTAL     ACCESS:   13276028  HIT:   11391130  MISS:    1884898
cpu0_DTLB LOAD      ACCESS:   11397219  HIT:    9739035  MISS:    1658184
cpu0_DTLB RFO       ACCESS:    1878809  HIT:    1652095  MISS:     226714
cpu0_DTLB PREFETCH  ACCESS:          0  HIT:          0  MISS:          0
cpu0_DTLB WRITEBACK ACCESS:          0  HIT:          0  MISS:          0
cpu0_ITLB TOTAL     ACCESS:     971911  HIT:     971911  MISS:          0
cpu0_ITLB LOAD      ACCESS:     971911  HIT:     971911  MISS:          0
cpu0_ITLB RFO       ACCESS:          0  HIT:          0  MISS:          0
cpu0_ITLB PREFETCH  ACCESS:          0  HIT:          0  MISS:          0
cpu0_ITLB WRITEBACK ACCESS:          0  HIT:          0  MISS:          0
cpu0_L1I TOTAL     ACCESS:    4897074  HIT:    4175561  MISS:     721513
cpu0_L1I LOAD      ACCESS:    4897074  HIT:    4175561  MISS:     721513
cpu0_L1I RFO       ACCESS:          0  HIT:          0  MISS:          0
cpu0_L1I PREFETCH  ACCESS:          0  HIT:          0  MISS:          0
cpu0_L1I WRITEBACK ACCESS:          0  HIT:          0  MISS:          0
cpu0_STLB TOTAL     ACCESS:    1884898  HIT:    1882868  MISS:       2030
cpu0_STLB LOAD      ACCESS:    1658184  HIT:    1656605  MISS:       1579
cpu0_STLB RFO       ACCESS:     226714  HIT:     226263  MISS:        451
cpu0_STLB PREFETCH  ACCESS:          0  HIT:          0  MISS:          0
cpu0_STLB WRITEBACK ACCESS:          0  HIT:          0  MISS:          0
cpu0_L1D TOTAL     ACCESS:   18760361  HIT:   15121387  MISS:    3638974
cpu0_L1D LOAD      ACCESS:   14828691  HIT:   11496884  MISS:    3331807
cpu0_L1D RFO       ACCESS:    3929640  HIT:    3624503  MISS:     305137
cpu0_L1D PREFETCH  ACCESS:          0  HIT:          0  MISS:          0
cpu0_L1D WRITEBACK ACCESS:          0  HIT:          0  MISS:          0
cpu0_L2C TOTAL     ACCESS:    4686086  HIT:    4417579  MISS:     268507
cpu0_L2C LOAD      ACCESS:    4052863  HIT:    3818949  MISS:     233914
cpu0_L2C RFO       ACCESS:     304825  HIT:     271347  MISS:      33478
cpu0_L2C PREFETCH  ACCESS:          0  HIT:          0  MISS:          0
cpu0_L2C WRITEBACK ACCESS:     326368  HIT:     326253  MISS:        115
LLC TOTAL     ACCESS:     298603  HIT:     166153  MISS:     132450
LLC LOAD      ACCESS:     233913  HIT:     130957  MISS:     102956
LLC RFO       ACCESS:      30168  HIT:        918  MISS:      29250
LLC PREFETCH  ACCESS:          0  HIT:          0  MISS:          0
LLC WRITEBACK ACCESS:      33522  HIT:      33288  MISS:        234
Heartbeat CPU 0 instructions: 102000004 cycles: 51816806 heartbeat IPC: 1.55933 cumulative IPC: 1.57051 (Simulation time: 1 hr 30 min 34 sec) 

Region of Interest Statistics
cpu0_DTLB TOTAL     ACCESS:   13806466  HIT:   11846086  MISS:    1960380
cpu0_DTLB LOAD      ACCESS:   11852747  HIT:   10128187  MISS:    1724560
cpu0_DTLB RFO       ACCESS:    1953719  HIT:    1717899  MISS:     235820
cpu0_DTLB PREFETCH  ACCESS:          0  HIT:          0  MISS:          0
cpu0_DTLB WRITEBACK ACCESS:          0  HIT:          0  MISS:          0
cpu0_ITLB TOTAL     ACCESS:    1010804  HIT:    1010804  MISS:          0
cpu0_ITLB LOAD      ACCESS:    1010804  HIT:    1010804  MISS:          0
cpu0_ITLB RFO       ACCESS:          0  HIT:          0  MISS:          0
cpu0_ITLB PREFETCH  ACCESS:          0  HIT:          0  MISS:          0
cpu0_ITLB WRITEBACK ACCESS:          0  HIT:          0  MISS:          0
cpu0_L1I TOTAL     ACCESS:    5093081  HIT:    4342690  MISS:     750391
cpu0_L1I LOAD      ACCESS:    5093081  HIT:    4342690  MISS:     750391
cpu0_L1I RFO       ACCESS:          0  HIT:          0  MISS:          0
cpu0_L1I PREFETCH  ACCESS:          0  HIT:          0  MISS:          0
cpu0_L1I WRITEBACK ACCESS:          0  HIT:          0  MISS:          0
cpu0_STLB TOTAL     ACCESS:    1960380  HIT:    1958258  MISS:       2122
cpu0_STLB LOAD      ACCESS:    1724560  HIT:    1722914  MISS:       1646
cpu0_STLB RFO       ACCESS:     235820  HIT:     235344  MISS:        476
cpu0_STLB PREFETCH  ACCESS:          0  HIT:          0  MISS:          0
cpu0_STLB WRITEBACK ACCESS:          0  HIT:          0  MISS:          0
cpu0_L1D TOTAL     ACCESS:   19509971  HIT:   15725437  MISS:    3784534
cpu0_L1D LOAD      ACCESS:   15420967  HIT:   11955862  MISS:    3465105
cpu0_L1D RFO       ACCESS:    4086882  HIT:    3769575  MISS:     317307
cpu0_L1D PREFETCH  ACCESS:          0  HIT:          0  MISS:          0
cpu0_L1D WRITEBACK ACCESS:          0  HIT:          0  MISS:          0
cpu0_L2C TOTAL     ACCESS:    4873546  HIT:    4593675  MISS:     279871
cpu0_L2C LOAD      ACCESS:    4215022  HIT:    3970989  MISS:     244033
cpu0_L2C RFO       ACCESS:     316985  HIT:     282307  MISS:      34678
cpu0_L2C PREFETCH  ACCESS:          0  HIT:          0  MISS:          0
cpu0_L2C WRITEBACK ACCESS:     339417  HIT:     339302  MISS:        115
LLC TOTAL     ACCESS:     311035  HIT:     173162  MISS:     137873
LLC LOAD      ACCESS:     244032  HIT:     136861  MISS:     107171
LLC RFO       ACCESS:      31368  HIT:        919  MISS:      30449
LLC PREFETCH  ACCESS:          0  HIT:          0  MISS:          0
LLC WRITEBACK ACCESS:      34590  HIT:      34347  MISS:        243
Heartbeat CPU 0 instructions: 104000004 cycles: 53086133 heartbeat IPC: 1.57564 cumulative IPC: 1.5707 (Simulation time: 1 hr 32 min 36 sec) 

Region of Interest Statistics
cpu0_DTLB TOTAL     ACCESS:   14336969  HIT:   12301118  MISS:    2035851
cpu0_DTLB LOAD      ACCESS:   12308540  HIT:   10517679  MISS:    1790861
cpu0_DTLB RFO       ACCESS:    2028429  HIT:    1783439  MISS:     244990
cpu0_DTLB PREFETCH  ACCESS:          0  HIT:          0  MISS:          0
cpu0_DTLB WRITEBACK ACCESS:          0  HIT:          0  MISS:          0
cpu0_ITLB TOTAL     ACCESS:    1049723  HIT:    1049723  MISS:          0
cpu0_ITLB LOAD      ACCESS:    1049723  HIT:    1049723  MISS:          0
cpu0_ITLB RFO       ACCESS:          0  HIT:          0  MISS:          0
cpu0_ITLB PREFETCH  ACCESS:          0  HIT:          0  MISS:          0
cpu0_ITLB WRITEBACK ACCESS:          0  HIT:          0  MISS:          0
cpu0_L1I TOTAL     ACCESS:    5289142  HIT:    4509445  MISS:     779697
cpu0_L1I LOAD      ACCESS:    5289142  HIT:    4509445  MISS:     779697
cpu0_L1I RFO       ACCESS:          0  HIT:          0  MISS:          0
cpu0_L1I PREFETCH  ACCESS:          0  HIT:          0  MISS:          0
cpu0_L1I WRITEBACK ACCESS:          0  HIT:          0  MISS:          0
cpu0_STLB TOTAL     ACCESS:    2035851  HIT:    2033676  MISS:       2175
cpu0_STLB LOAD      ACCESS:    1790861  HIT:    1789162  MISS:       1699
cpu0_STLB RFO       ACCESS:     244990  HIT:     244514  MISS:        476
cpu0_STLB PREFETCH  ACCESS:          0  HIT:          0  MISS:          0
cpu0_STLB WRITEBACK ACCESS:          0  HIT:          0  MISS:          0
cpu0_L1D TOTAL     ACCESS:   20261257  HIT:   16331300  MISS:    3929957
cpu0_L1D LOAD      ACCESS:   16014989  HIT:   12416641  MISS:    3598348
cpu0_L1D RFO       ACCESS:    4244093  HIT:    3914659  MISS:     329434
cpu0_L1D PREFETCH  ACCESS:          0  HIT:          0  MISS:          0
cpu0_L1D WRITEBACK ACCESS:          0  HIT:          0  MISS:          0
cpu0_L2C TOTAL     ACCESS:    5061243  HIT:    4770284  MISS:     290959
cpu0_L2C LOAD      ACCESS:    4377549  HIT:    4123595  MISS:     253954
cpu0_L2C RFO       ACCESS:     329097  HIT:     293268  MISS:      35829
cpu0_L2C PREFETCH  ACCESS:          0  HIT:          0  MISS:          0
cpu0_L2C WRITEBACK ACCESS:     352422  HIT:     352307  MISS:        115
LLC TOTAL     ACCESS:     323373  HIT:     180291  MISS:     143082
LLC LOAD      ACCESS:     253953  HIT:     142736  MISS:     111217
LLC RFO       ACCESS:      32519  HIT:        919  MISS:      31600
LLC PREFETCH  ACCESS:          0  HIT:          0  MISS:          0
LLC WRITEBACK ACCESS:      35840  HIT:      35585  MISS:        255
Heartbeat CPU 0 instructions: 106000003 cycles: 54360582 heartbeat IPC: 1.5693 cumulative IPC: 1.57065 (Simulation time: 1 hr 34 min 33 sec) 

Region of Interest Statistics
cpu0_DTLB TOTAL     ACCESS:   14868159  HIT:   12757316  MISS:    2110843
cpu0_DTLB LOAD      ACCESS:   12764806  HIT:   10907980  MISS:    1856826
cpu0_DTLB RFO       ACCESS:    2103353  HIT:    1849336  MISS:     254017
cpu0_DTLB PREFETCH  ACCESS:          0  HIT:          0  MISS:          0
cpu0_DTLB WRITEBACK ACCESS:          0  HIT:          0  MISS:          0
cpu0_ITLB TOTAL     ACCESS:    1088571  HIT:    1088571  MISS:          0
cpu0_ITLB LOAD      ACCESS:    1088571  HIT:    1088571  MISS:          0
cpu0_ITLB RFO       ACCESS:          0  HIT:          0  MISS:          0
cpu0_ITLB PREFETCH  ACCESS:          0  HIT:          0  MISS:          0
cpu0_ITLB WRITEBACK ACCESS:          0  HIT:          0  MISS:          0
cpu0_L1I TOTAL     ACCESS:    5485019  HIT:    4676330  MISS:     808689
cpu0_L1I LOAD      ACCESS:    5485019  HIT:    4676330  MISS:     808689
cpu0_L1I RFO       ACCESS:          0  HIT:          0  MISS:          0
cpu0_L1I PREFETCH  ACCESS:          0  HIT:          0  MISS:          0
cpu0_L1I WRITEBACK ACCESS:          0  HIT:          0  MISS:          0
cpu0_STLB TOTAL     ACCESS:    2110843  HIT:    2108572  MISS:       2271
cpu0_STLB LOAD      ACCESS:    1856826  HIT:    1855056  MISS:       1770
cpu0_STLB RFO       ACCESS:     254017  HIT:     253516  MISS:        501
cpu0_STLB PREFETCH  ACCESS:          0  HIT:          0  MISS:          0
cpu0_STLB WRITEBACK ACCESS:          0  HIT:          0  MISS:          0
cpu0_L1D TOTAL     ACCESS:   21011103  HIT:   16935749  MISS:    4075354
cpu0_L1D LOAD      ACCESS:   16607472  HIT:   12876034  MISS:    3731438
cpu0_L1D RFO       ACCESS:    4401360  HIT:    4059715  MISS:     341645
cpu0_L1D PREFETCH  ACCESS:          0  HIT:          0  MISS:          0
cpu0_L1D WRITEBACK ACCESS:          0  HIT:          0  MISS:          0
cpu0_L2C TOTAL     ACCESS:    5248635  HIT:    4947351  MISS:     301284
cpu0_L2C LOAD      ACCESS:    4539618  HIT:    4276563  MISS:     263055
cpu0_L2C RFO       ACCESS:     341295  HIT:     304291  MISS:      37004
cpu0_L2C PREFETCH  ACCESS:          0  HIT:          0  MISS:          0
cpu0_L2C WRITEBACK ACCESS:     365451  HIT:     365336  MISS:        115
[...]
cpu0_ITLB LOAD      ACCESS:   29159778  HIT:   29159778  MISS:          0
cpu0_ITLB RFO       ACCESS:          0  HIT:          0  MISS:          0
cpu0_ITLB PREFETCH  ACCESS:          0  HIT:          0  MISS:          0
cpu0_ITLB WRITEBACK ACCESS:          0  HIT:          0  MISS:          0
cpu0_L1I TOTAL     ACCESS:  146926758  HIT:  125225832  MISS:   21700926
cpu0_L1I LOAD      ACCESS:  146926758  HIT:  125225832  MISS:   21700926
cpu0_L1I RFO       ACCESS:          0  HIT:          0  MISS:          0
cpu0_L1I PREFETCH  ACCESS:          0  HIT:          0  MISS:          0
cpu0_L1I WRITEBACK ACCESS:          0  HIT:          0  MISS:          0
cpu0_STLB TOTAL     ACCESS:   56575299  HIT:   56512845  MISS:      62454
cpu0_STLB LOAD      ACCESS:   49774020  HIT:   49725495  MISS:      48525
cpu0_STLB RFO       ACCESS:    6801279  HIT:    6787350  MISS:      13929
cpu0_STLB PREFETCH  ACCESS:          0  HIT:          0  MISS:          0
cpu0_STLB WRITEBACK ACCESS:          0  HIT:          0  MISS:          0
cpu0_L1D TOTAL     ACCESS:  562765018  HIT:  453586463  MISS:  109178555
cpu0_L1D LOAD      ACCESS:  444815045  HIT:  344853872  MISS:   99961173
cpu0_L1D RFO       ACCESS:  117888166  HIT:  108732097  MISS:    9156069
cpu0_L1D PREFETCH  ACCESS:          0  HIT:          0  MISS:          0
cpu0_L1D WRITEBACK ACCESS:          0  HIT:          0  MISS:          0
cpu0_L2C TOTAL     ACCESS:  140651346  HIT:  132621353  MISS:    8029993
cpu0_L2C LOAD      ACCESS:  121648134  HIT:  114592233  MISS:    7055901
cpu0_L2C RFO       ACCESS:    9146662  HIT:    8204115  MISS:     942547
cpu0_L2C PREFETCH  ACCESS:          0  HIT:          0  MISS:          0
cpu0_L2C WRITEBACK ACCESS:    9795237  HIT:    9792636  MISS:       2601
LLC TOTAL     ACCESS:    8924975  HIT:    4920067  MISS:    4004908
LLC LOAD      ACCESS:    7055870  HIT:    3933825  MISS:    3122045
LLC RFO       ACCESS:     895050  HIT:      17000  MISS:     878050
LLC PREFETCH  ACCESS:          0  HIT:          0  MISS:          0
LLC WRITEBACK ACCESS:     945111  HIT:     940431  MISS:       4680
Finished CPU 0 instructions: 1500000001 cycles: 955670078 cumulative IPC: 1.56958 (Simulation time: 19 hr 29 min 45 sec) 

ChampSim completed all CPUs

Region of Interest Statistics

CPU 0 cumulative IPC: 1.56958 instructions: 1500000001 cycles: 955670078
cpu0_DTLB TOTAL     ACCESS:  398233114  HIT:  341657815  MISS:   56575299
cpu0_DTLB LOAD      ACCESS:  341937220  HIT:  292163200  MISS:   49774020
cpu0_DTLB RFO       ACCESS:   56295894  HIT:   49494615  MISS:    6801279
cpu0_DTLB PREFETCH  ACCESS:          0  HIT:          0  MISS:          0
cpu0_DTLB WRITEBACK ACCESS:          0  HIT:          0  MISS:          0
cpu0_DTLB TRANSLATION ACCESS:          0  HIT:          0  MISS:          0
cpu0_DTLB PREFETCH  REQUESTED:          0  ISSUED:          0  USEFUL:          0  USELESS:          0
cpu0_DTLB AVERAGE MISS LATENCY: 9.62263 cycles
cpu0_ITLB TOTAL     ACCESS:   29159778  HIT:   29159778  MISS:          0
cpu0_ITLB LOAD      ACCESS:   29159778  HIT:   29159778  MISS:          0
cpu0_ITLB RFO       ACCESS:          0  HIT:          0  MISS:          0
cpu0_ITLB PREFETCH  ACCESS:          0  HIT:          0  MISS:          0
cpu0_ITLB WRITEBACK ACCESS:          0  HIT:          0  MISS:          0
cpu0_ITLB TRANSLATION ACCESS:          0  HIT:          0  MISS:          0
cpu0_ITLB PREFETCH  REQUESTED:          0  ISSUED:          0  USEFUL:          0  USELESS:          0
cpu0_ITLB AVERAGE MISS LATENCY: -nan cycles
cpu0_L1I TOTAL     ACCESS:  146926758  HIT:  125225832  MISS:   21700926
cpu0_L1I LOAD      ACCESS:  146926758  HIT:  125225832  MISS:   21700926
cpu0_L1I RFO       ACCESS:          0  HIT:          0  MISS:          0
cpu0_L1I PREFETCH  ACCESS:          0  HIT:          0  MISS:          0
cpu0_L1I WRITEBACK ACCESS:          0  HIT:          0  MISS:          0
cpu0_L1I TRANSLATION ACCESS:          0  HIT:          0  MISS:          0
cpu0_L1I PREFETCH  REQUESTED:          0  ISSUED:          0  USEFUL:          0  USELESS:          0
cpu0_L1I AVERAGE MISS LATENCY: 11.2132 cycles
cpu0_STLB TOTAL     ACCESS:   56575299  HIT:   56512845  MISS:      62454
cpu0_STLB LOAD      ACCESS:   49774020  HIT:   49725495  MISS:      48525
cpu0_STLB RFO       ACCESS:    6801279  HIT:    6787350  MISS:      13929
cpu0_STLB PREFETCH  ACCESS:          0  HIT:          0  MISS:          0
cpu0_STLB WRITEBACK ACCESS:          0  HIT:          0  MISS:          0
cpu0_STLB TRANSLATION ACCESS:          0  HIT:          0  MISS:          0
cpu0_STLB PREFETCH  REQUESTED:          0  ISSUED:          0  USEFUL:          0  USELESS:          0
cpu0_STLB AVERAGE MISS LATENCY: 198.859 cycles
cpu0_L1D TOTAL     ACCESS:  562765018  HIT:  453586463  MISS:  109178555
cpu0_L1D LOAD      ACCESS:  444815045  HIT:  344853872  MISS:   99961173
cpu0_L1D RFO       ACCESS:  117888166  HIT:  108732097  MISS:    9156069
cpu0_L1D PREFETCH  ACCESS:          0  HIT:          0  MISS:          0
cpu0_L1D WRITEBACK ACCESS:          0  HIT:          0  MISS:          0
cpu0_L1D TRANSLATION ACCESS:      61807  HIT:        494  MISS:      61313
cpu0_L1D PREFETCH  REQUESTED:          0  ISSUED:          0  USEFUL:          0  USELESS:          0
cpu0_L1D AVERAGE MISS LATENCY: 48.6739 cycles
cpu0_L2C TOTAL     ACCESS:  140651347  HIT:  132621354  MISS:    8029993
cpu0_L2C LOAD      ACCESS:  121648135  HIT:  114592234  MISS:    7055901
cpu0_L2C RFO       ACCESS:    9146662  HIT:    8204115  MISS:     942547
cpu0_L2C PREFETCH  ACCESS:          0  HIT:          0  MISS:          0
cpu0_L2C WRITEBACK ACCESS:    9795237  HIT:    9792636  MISS:       2601
cpu0_L2C TRANSLATION ACCESS:      61313  HIT:      32369  MISS:      28944
cpu0_L2C PREFETCH  REQUESTED:          0  ISSUED:          0  USEFUL:          0  USELESS:          0
cpu0_L2C AVERAGE MISS LATENCY: 502.179 cycles
LLC TOTAL     ACCESS:    8924975  HIT:    4920067  MISS:    4004908
LLC LOAD      ACCESS:    7055870  HIT:    3933825  MISS:    3122045
LLC RFO       ACCESS:     895050  HIT:      17000  MISS:     878050
LLC PREFETCH  ACCESS:          0  HIT:          0  MISS:          0
LLC WRITEBACK ACCESS:     945111  HIT:     940431  MISS:       4680
LLC TRANSLATION ACCESS:      28944  HIT:      28811  MISS:        133
LLC PREFETCH  REQUESTED:          0  ISSUED:          0  USEFUL:          0  USELESS:          0
LLC AVERAGE MISS LATENCY: 965.031 cycles
~~~~~~~~~~Reuse Distance Profiler output~~~~~~~~~~
0	14010128	2451664
1	8703664	3355424
2	8067552	4345568
3	9657888	6809232
4	11320160	8066544
5	11418288	9586976
6	11163056	9195744
7	11002544	9528832
8	10938688	8953952
9	10638032	9033600
10	10844176	8988672
11	10071040	8042192
12	8762784	6996416
13	9169024	7245584
14	8064544	6287712
15	7040496	5633856
16	6851536	5519504
17	7480000	5529328
18	7241840	6005728
19	6335360	5301440
20	6079872	4899360
21	5643712	4382352
22	5975824	4846240
23	5864016	4750528
24	5602064	4416432
25	5667600	4462784
26	5597056	4486960
27	4926784	4045504
28	4979952	4113376
29	5175056	4246384
30	4802128	4096576
31	4561920	4086128
32	4145296	3599792
33	3867904	3278320
34	3781408	3159120
35	4107152	3181296
36	4479952	3698304
37	4352000	3661280
38	4096880	3252176
39	3993696	3384704
40	3738576	3151360
41	3820912	3158416
42	3627840	2903168
43	3323136	2639184
44	3093024	2482080
45	3185776	2557328
46	3055264	2539104
47	2901296	2379328
48	2953776	2311312
49	2660400	2167584
50	2689680	2182176
51	2825920	2280208
52	2563792	2068544
53	2601456	2178096
54	2537728	2137216
55	2562576	2215328
56	2317760	1936080
57	2199904	1874320
58	2207712	1900096
59	2185728	1849664
60	2170672	1794912
61	2074736	1776032
62	1963952	1698224
63	1868160	1594176
64	3160480	2778160
66	2689216	2361376
68	2488976	2082304
70	2664624	2074704
72	2686144	2144128
74	2462080	2019440
76	2380768	2131648
78	2456624	2248560
80	2280608	1986720
82	1841856	1529968
84	1561488	1316512
86	1534512	1286496
88	1567488	1260080
90	1501936	1121648
92	1513392	1027808
94	1220928	797888
96	1144368	776176
98	1345408	976352
100	1328816	959664
102	1172880	845504
104	1163872	755552
106	935216	610400
108	773408	527008
110	618160	439856
112	735184	532192
114	989472	751072
116	1077280	874400
118	1053680	848176
120	1040528	835088
122	893248	685328
124	776960	545360
126	648688	431952
128	1317536	803040
132	1443488	746624
136	1151200	670304
140	1043152	672096
144	1586432	1078448
148	1535312	1026832
152	1452960	998176
156	1423024	979264
160	1312704	846752
164	1186192	764096
168	1122512	700992
172	1135536	757760
176	1025856	664320
180	852400	596224
184	637472	414400
188	706192	458688
192	622704	469968
196	563712	474192
200	671280	590832
204	634272	563424
208	499296	421616
212	347008	275056
216	348944	253232
220	535488	358800
224	733760	455712
228	651744	434960
232	587728	418480
236	504032	421232
240	406064	340272
244	454320	349200
248	425616	313120
252	429696	294576
256	1296640	1165120
264	838048	756688
272	347856	286128
280	363008	264880
288	425040	248800
296	402480	309024
304	720544	431360
312	844112	495904
320	604032	378288
328	336608	227904
336	281200	154944
344	373088	270432
352	414048	312048
360	780176	681776
368	576928	486608
376	748480	629136
384	605104	516048
392	405872	297312
400	380304	224112
408	221360	137296
416	263744	161536
424	328960	159712
432	304016	174512
440	219216	142528
448	207024	92960
456	183824	79088
464	225040	116048
472	337584	186480
480	371856	242864
488	307744	196432
496	328880	203136
504	312576	207776
512	530160	365104
528	441104	285456
544	287216	233440
560	407936	361872
576	185312	105520
592	424672	188528
608	435360	346432
624	460752	387088
640	415984	323552
656	230912	117008
672	320656	127440
688	312144	177312
704	230512	130960
720	495968	243056
736	311888	186928
752	284032	75888
768	206768	47776
784	155760	106480
800	179680	120592
816	166144	119024
832	219424	173904
848	236528	185408
864	262848	178928
880	331808	200848
896	295168	225440
912	282576	207104
928	531856	448480
944	402000	230976
960	310384	58336
976	196288	22880
992	83344	16336
1008	111712	12144
1024	311376	138992
1056	391872	188192
1088	571008	154192
1120	714848	210160
1152	1382400	561824
1184	1661824	974864
1216	986080	374992
1248	736032	395312
1280	670704	381840
1312	574336	237856
1344	728800	329088
1376	797360	423552
1408	452336	299760
1440	369280	274288
1472	470656	349632
1504	301328	224448
1536	465328	285792
1568	157920	58480
1600	446352	248800
1632	361392	297904
1664	569152	493872
1696	758848	596544
1728	734576	644016
1760	546928	386880
1792	469488	366080
1824	772976	714960
1856	1264320	1252560
1888	1603168	1565504
1920	3824816	3781488
1952	5989952	5898784
1984	10307904	10100096
2016	14793888	14067424
2048	48023888	43725600
2112	11603152	10720032
2176	1018992	989904
2240	2409072	2214832
2304	160	144
2368	32	32
2432	64	48
2496	32	32
2560	0	0
2624	0	0
2688	32	32
2752	0	0
2816	0	0
2880	0	0
2944	0	0
3008	0	0
3072	16	16
3136	0	0
3200	16	16
3264	0	0
3328	16	0
3392	0	0
3456	0	0
3520	0	0
3584	16	16
3648	16	16
3712	16	16
3776	0	0
3840	0	0
3904	32	32
3968	160	160
4032	864	848
4096	1216	1216
4224	160	144
4352	416	400
4480	576	576
4608	64	64
4736	0	0
4864	0	0
4992	0	0
5120	0	0
5248	0	0
5376	0	0
5504	0	0
5632	0	0
5760	0	0
5888	0	0
6016	224	224
6144	1168	1168
6272	272	272
6400	0	0
6528	0	0
6656	64	64
6784	48	48
6912	0	0
7040	0	0
7168	0	0
7296	0	0
7424	0	0
7552	0	0
7680	0	0
7808	0	0
7936	0	0
8064	80	80
8192	896	896
8448	0	0
8704	0	0
8960	32	32
9216	0	0
9472	0	0
9728	0	0
9984	240	240
10240	3008	3008
10496	32	32
10752	0	0
11008	48	48
11264	160	160
11520	0	0
11776	0	0
12032	16	16
12288	672	672
12544	0	0
12800	0	0
13056	0	0
13312	32	32
13568	32	32
13824	0	0
14080	32	32
14336	2176	2176
14592	144	144
14848	0	0
15104	0	0
15360	0	0
15616	128	128
15872	0	0
16128	0	0
16384	1792	1792
16896	0	0
17408	0	0
17920	144	144
18432	46336	46336
18944	0	0
19456	0	0
19968	2016	2016
20480	364064	364064
20992	112	112
21504	0	0
22016	528	528
22528	12176	12176
23040	48	48
23552	0	0
24064	32	32
24576	1072	1072
25088	0	0
25600	0	0
26112	0	0
26624	512	512
27136	16	16
27648	0	0
28160	0	0
28672	256	256
29184	16	16
29696	0	0
30208	0	0
30720	752	752
31232	80	80
31744	0	0
32256	0	0
32768	1824	1824
33792	32	32
34816	5520	5520
35840	64	64
36864	768	768
37888	80	80
38912	320	320
39936	16	16
40960	304	304
41984	16	16
43008	208	208
44032	0	0
45056	32	32
46080	0	0
47104	32	32
48128	0	0
49152	272	272
50176	0	0
51200	128	128
52224	0	0
53248	672	672
54272	0	0
55296	11808	11808
56320	64	64
57344	32	32
58368	0	0
59392	0	0
60416	224	224
61440	0	0
62464	0	0
63488	0	0
64512	0	0
65536	0	0
67584	32	32
69632	0	0
71680	0	0
73728	0	0
75776	3856	3856
77824	0	0
79872	0	0
81920	96	96
83968	0	0
86016	0	0
88064	0	0
90112	0	0
92160	0	0
94208	0	0
96256	0	0
98304	0	0
100352	0	0
102400	0	0
104448	0	0
106496	0	0
108544	0	0
110592	0	0
112640	0	0
114688	0	0
116736	0	0
118784	0	0
120832	0	0
122880	0	0
124928	0	0
126976	0	0
129024	0	0
131072	0	0
135168	0	0
139264	0	0
143360	0	0
147456	0	0
151552	0	0
155648	0	0
159744	0	0
163840	0	0
167936	0	0
172032	0	0
176128	0	0
180224	0	0
184320	0	0
188416	0	0
192512	0	0
196608	0	0
200704	0	0
204800	0	0
208896	0	0
212992	0	0
217088	0	0
221184	0	0
225280	0	0
229376	0	0
233472	0	0
237568	0	0
241664	0	0
245760	0	0
249856	0	0
253952	0	0
258048	0	0
262144	0	0
270336	0	0
278528	0	0
286720	0	0
294912	0	0
303104	16	16
311296	1872	1872
319488	4471360	4471360
327680	3466528	3466528
335872	300512	300512
344064	50336	50336
352256	200800	200800
360448	17008	17008
368640	5216	5216
376832	176	176
385024	160	160
393216	32	32
401408	112	112
409600	64	64
417792	32	32
425984	16	16
434176	0	0
442368	0	0
450560	0	0
458752	0	0
466944	0	0
475136	0	0
483328	0	0
491520	0	0
499712	0	0
507904	0	0
516096	0	0
524288	0	0
540672	0	0
557056	0	0
573440	0	0
589824	0	0
606208	0	0
622592	0	0
638976	384	384
655360	432	432
671744	1936	1936
688128	1680	1680
704512	1216	1216
720896	192	192
737280	176	176
753664	112	112
770048	48	48
786432	0	0
802816	0	0
819200	0	0
835584	0	0
851968	0	0
868352	0	0
884736	0	0
901120	0	0
917504	0	0
933888	0	0
950272	0	0
966656	0	0
983040	112	112
999424	272	272
1015808	1056	1056
1032192	1520	1520
1048576	1120	1120
1081344	112	112
1114112	64	64
1146880	32	32
1179648	0	0
1212416	0	0
1245184	0	0
1277952	0	0
1310720	0	0
1343488	1408	1408
1376256	1136	1136
1409024	272	272
1441792	48	48
1474560	64	64
1507328	48	48
1540096	0	0
1572864	0	0
1605632	0	0
1638400	0	0
1671168	784	784
1703936	2208	2208
1736704	1024	1024
1769472	64	64
1802240	0	0
1835008	32	32
1867776	80	80
1900544	64	64
1933312	0	0
1966080	0	0
1998848	128	128
2031616	1120	1120
2064384	688	688
2097152	144	144
2162688	32	32
2228224	64	64
2293760	0	0
2359296	1488	1488
2424832	560	560
2490368	0	0
2555904	0	0
2621440	48	48
2686976	288	288
2752512	560	560
2818048	16	16
2883584	0	0
2949120	32	32
3014656	320	320
3080192	1200	1200
3145728	0	0
3211264	0	0
3276800	0	0
3342336	48	48
3407872	6176	6176
3473408	0	0
3538944	0	0
3604480	0	0
3670016	0	0
3735552	80	80
3801088	176	176
3866624	0	0
3932160	0	0
3997696	0	0
4063232	0	0
4128768	64	64
4194304	0	0
4325376	0	0
4456448	64	64
4587520	0	0
4718592	64	64
4849664	64	64
4980736	0	0
5111808	32	32
5242880	0	0
5373952	16	16
5505024	16	16
5636096	0	0
5767168	32	32
5898240	0	0
6029312	0	0
6160384	0	0
6291456	0	0
6422528	0	0
6553600	16	16
6684672	0	0
6815744	0	0
6946816	0	0
7077888	0	0
7208960	0	0
7340032	0	0
7471104	0	0
7602176	0	0
7733248	0	0
7864320	0	0
7995392	0	0
8126464	0	0
8257536	0	0
8388608	32	32
8650752	0	0
8912896	0	0
9175040	0	0
9437184	0	0
9699328	0	0
9961472	0	0
10223616	0	0
10485760	0	0
10747904	0	0
11010048	0	0
11272192	0	0
11534336	0	0
11796480	0	0
12058624	0	0
12320768	0	0
12582912	0	0
12845056	0	0
13107200	0	0
13369344	0	0
13631488	0	0
13893632	0	0
14155776	0	0
14417920	0	0
14680064	0	0
14942208	0	0
15204352	0	0
15466496	0	0
15728640	0	0
15990784	0	0
16252928	0	0
16515072	0	0
16777216	0	0
17301504	0	0
17825792	0	0
18350080	0	0
18874368	0	0
19398656	0	0
19922944	0	0
20447232	0	0
20971520	0	0
21495808	0	0
22020096	0	0
22544384	0	0
23068672	0	0
23592960	0	0
24117248	0	0
24641536	0	0
25165824	0	0
25690112	0	0
26214400	0	0
26738688	0	0
27262976	0	0
27787264	0	0
28311552	0	0
28835840	0	0
29360128	0	0
29884416	0	0
30408704	0	0
30932992	0	0
31457280	0	0
31981568	0	0
32505856	0	0
33030144	0	0
33554432	0	0
34603008	0	0
35651584	0	0
36700160	0	0
37748736	0	0
38797312	0	0
39845888	0	0
40894464	16	0
41943040	0	0
42991616	0	0
44040192	0	0
45088768	0	0
46137344	0	0
47185920	0	0
48234496	0	0
49283072	0	0
50331648	16	16
51380224	64	64
52428800	16	16
53477376	48	48
54525952	16	16
55574528	1673872	1673872
56623104	323648	323648
57671680	8720	8720
58720256	640	640
59768832	0	0
60817408	0	0
61865984	0	0
62914560	0	0
63963136	0	0
65011712	0	0
66060288	0	0
67108864	0	0
69206016	0	0
71303168	0	0
73400320	0	0
75497472	0	0
77594624	0	0
79691776	0	0
81788928	0	0
83886080	48	16
85983232	0	0
88080384	0	0
90177536	0	0
92274688	0	0
94371840	0	0
96468992	0	0
98566144	0	0
100663296	0	0
102760448	0	0
104857600	0	0
106954752	0	0
109051904	0	0
111149056	16	16
113246208	0	0
115343360	0	0
117440512	0	0
119537664	0	0
121634816	0	0
123731968	0	0
125829120	0	0
127926272	0	0
130023424	0	0
132120576	0	0
134217728	0	0
138412032	0	0
142606336	0	0
146800640	0	0
150994944	0	0
155189248	0	0
159383552	0	0
163577856	16	16
167772160	0	0
171966464	0	0
176160768	0	0
180355072	0	0
184549376	0	0
188743680	0	0
192937984	0	0
197132288	0	0
201326592	0	0
205520896	0	0
209715200	0	0
213909504	0	0
218103808	0	0
222298112	0	0
226492416	0	0
230686720	0	0
234881024	0	0
239075328	0	0
243269632	0	0
247463936	0	0
251658240	0	0
255852544	0	0
260046848	0	0
264241152	0	0
268435456	0	0
276824064	0	0
285212672	0	0
293601280	0	0
301989888	0	0
310378496	0	0
318767104	0	0
327155712	0	0
335544320	0	0
343932928	0	0
352321536	0	0
360710144	0	0
369098752	0	0
377487360	0	0
385875968	0	0
394264576	0	0
402653184	0	0
411041792	0	0
419430400	0	0
427819008	64	16
436207616	0	0
444596224	0	0
452984832	0	0
461373440	0	0
469762048	0	0
478150656	0	0
486539264	0	0
494927872	0	0
503316480	0	0
511705088	0	0
520093696	0	0
528482304	0	0
536870912	0	0
553648128	0	0
570425344	0	0
587202560	0	0
603979776	0	0
620756992	0	0
637534208	0	0
654311424	0	0
671088640	0	0
687865856	0	0
704643072	0	0
721420288	0	0
738197504	0	0
754974720	0	0
771751936	0	0
788529152	0	0
805306368	0	0
822083584	0	0
838860800	0	0
855638016	0	0
872415232	0	0
889192448	0	0
905969664	0	0
922746880	0	0
939524096	0	0
956301312	0	0
973078528	0	0
989855744	0	0
1006632960	0	0
1023410176	0	0
1040187392	0	0
1056964608	0	0
1073741824	0	0
1107296256	0	0
1140850688	0	0
1174405120	0	0
1207959552	0	0
1241513984	0	0
1275068416	0	0
1308622848	0	0
1342177280	0	0
1375731712	0	0
1409286144	0	0
1442840576	0	0
1476395008	0	0
1509949440	0	0
1543503872	0	0
1577058304	0	0
1610612736	0	0
1644167168	0	0
1677721600	0	0
1711276032	0	0
1744830464	0	0
1778384896	0	0
1811939328	0	0
1845493760	0	0
1879048192	0	0
1912602624	0	0
1946157056	0	0
1979711488	0	0
2013265920	0	0
2046820352	0	0
2080374784	0	0
2113929216	0	0
2147483648	0	0
2214592512	0	0
2281701376	0	0
2348810240	0	0
2415919104	0	0
2483027968	0	0
2550136832	0	0
2617245696	0	0
2684354560	0	0
2751463424	0	0
2818572288	0	0
2885681152	0	0
2952790016	0	0
3019898880	0	0
3087007744	0	0
3154116608	0	0
3221225472	0	0
3288334336	0	0
3355443200	0	0
3422552064	0	0
3489660928	0	0
3556769792	0	0
3623878656	0	0
3690987520	0	0
3758096384	0	0
3825205248	0	0
3892314112	0	0
3959422976	0	0
4026531840	0	0
4093640704	0	0
4160749568	0	0
4227858432	0	0
~~~~~~~~~~Reuse Distance Profiler output end~~~~~~~~~~

Sampler size:130075

DRAM Statistics
 CHANNEL 0
 RQ ROW_BUFFER_HIT:        241  ROW_BUFFER_MISS:    3999974
 DBUS AVG_CONGESTED_CYCLE:    3.99962
 WQ ROW_BUFFER_HIT:      17149  ROW_BUFFER_MISS:     861623  FULL:          0


CPU 0 Branch Prediction Accuracy: 99.9626% MPKI: 0.00331333 Average ROB Occupancy at Mispredict: 63.1171
Branch type MPKI
BRANCH_DIRECT_JUMP: 6.66667e-07
BRANCH_INDIRECT: 1.33333e-06
BRANCH_CONDITIONAL: 0.00330733
BRANCH_DIRECT_CALL: 2e-06
BRANCH_INDIRECT_CALL: 0
BRANCH_RETURN: 2e-06

