
*** ChampSim Multicore Out-of-Order Simulator ***

Warmup Instructions: 50000000
Simulation Instructions: 1500000000
Number of CPUs: 1
Off-chip DRAM Size: 4 GiB Channels: 1 Width: 64-bit Data Rate: 3200 MT/s

VirtualMemory physical capacity: 8588881920 num_ppages: 2096895
VirtualMemory page size: 4096 log2_page_size: 12

CPU 0 runs /s/traces/champsim_traces/607.cactuBSSN_s-2421B.champsimtrace.xz
CPU 0 Bimodal branch predictor
Basic BTB sets: 1024 ways: 8 indirect buffer size: 4096 RAS size: 64
Initializing LRU.
Initializing LRU.
Initializing LRU.
Initializing LRU.
Initializing rdLRU.
Initializing LRU.
Heartbeat CPU 0 instructions: 2000001 cycles: 740084 heartbeat IPC: 2.7024 cumulative IPC: 2.7024 (Simulation time: 0 hr 1 min 59 sec) 
Heartbeat CPU 0 instructions: 4000003 cycles: 1480354 heartbeat IPC: 2.70172 cumulative IPC: 2.70206 (Simulation time: 0 hr 3 min 44 sec) 
Heartbeat CPU 0 instructions: 6000000 cycles: 2219918 heartbeat IPC: 2.70429 cumulative IPC: 2.7028 (Simulation time: 0 hr 5 min 13 sec) 
Heartbeat CPU 0 instructions: 8000001 cycles: 2960179 heartbeat IPC: 2.70175 cumulative IPC: 2.70254 (Simulation time: 0 hr 7 min 4 sec) 
Heartbeat CPU 0 instructions: 10000001 cycles: 3699741 heartbeat IPC: 2.7043 cumulative IPC: 2.70289 (Simulation time: 0 hr 8 min 54 sec) 
Heartbeat CPU 0 instructions: 12000002 cycles: 4438569 heartbeat IPC: 2.70699 cumulative IPC: 2.70357 (Simulation time: 0 hr 10 min 54 sec) 
Heartbeat CPU 0 instructions: 14000001 cycles: 5178509 heartbeat IPC: 2.70292 cumulative IPC: 2.70348 (Simulation time: 0 hr 12 min 50 sec) 
Heartbeat CPU 0 instructions: 16000001 cycles: 5918427 heartbeat IPC: 2.703 cumulative IPC: 2.70342 (Simulation time: 0 hr 14 min 36 sec) 
Heartbeat CPU 0 instructions: 18000000 cycles: 6658375 heartbeat IPC: 2.70289 cumulative IPC: 2.70336 (Simulation time: 0 hr 16 min 14 sec) 
Heartbeat CPU 0 instructions: 20000004 cycles: 7398276 heartbeat IPC: 2.70307 cumulative IPC: 2.70333 (Simulation time: 0 hr 18 min 10 sec) 
Heartbeat CPU 0 instructions: 22000002 cycles: 8138227 heartbeat IPC: 2.70288 cumulative IPC: 2.70329 (Simulation time: 0 hr 20 min 14 sec) 
Heartbeat CPU 0 instructions: 24000001 cycles: 8878117 heartbeat IPC: 2.7031 cumulative IPC: 2.70328 (Simulation time: 0 hr 22 min 17 sec) 
Heartbeat CPU 0 instructions: 26000002 cycles: 9618052 heartbeat IPC: 2.70294 cumulative IPC: 2.70325 (Simulation time: 0 hr 24 min 7 sec) 
Heartbeat CPU 0 instructions: 28000000 cycles: 10357937 heartbeat IPC: 2.70312 cumulative IPC: 2.70324 (Simulation time: 0 hr 26 min 3 sec) 
Heartbeat CPU 0 instructions: 30000002 cycles: 11097902 heartbeat IPC: 2.70283 cumulative IPC: 2.70321 (Simulation time: 0 hr 28 min 1 sec) 
Heartbeat CPU 0 instructions: 32000000 cycles: 11837757 heartbeat IPC: 2.70323 cumulative IPC: 2.70321 (Simulation time: 0 hr 29 min 53 sec) 
Heartbeat CPU 0 instructions: 34000000 cycles: 12577718 heartbeat IPC: 2.70285 cumulative IPC: 2.70319 (Simulation time: 0 hr 31 min 52 sec) 
Heartbeat CPU 0 instructions: 36000002 cycles: 13317577 heartbeat IPC: 2.70322 cumulative IPC: 2.70319 (Simulation time: 0 hr 33 min 45 sec) 
Heartbeat CPU 0 instructions: 38000002 cycles: 14057603 heartbeat IPC: 2.70261 cumulative IPC: 2.70316 (Simulation time: 0 hr 35 min 43 sec) 
Heartbeat CPU 0 instructions: 40000002 cycles: 14797507 heartbeat IPC: 2.70305 cumulative IPC: 2.70316 (Simulation time: 0 hr 37 min 36 sec) 
Heartbeat CPU 0 instructions: 42000002 cycles: 15537519 heartbeat IPC: 2.70266 cumulative IPC: 2.70313 (Simulation time: 0 hr 39 min 31 sec) 
Heartbeat CPU 0 instructions: 44000003 cycles: 16277397 heartbeat IPC: 2.70315 cumulative IPC: 2.70314 (Simulation time: 0 hr 41 min 30 sec) 
Heartbeat CPU 0 instructions: 46000001 cycles: 17017366 heartbeat IPC: 2.70281 cumulative IPC: 2.70312 (Simulation time: 0 hr 43 min 24 sec) 
Heartbeat CPU 0 instructions: 48000000 cycles: 17757171 heartbeat IPC: 2.70341 cumulative IPC: 2.70313 (Simulation time: 0 hr 45 min 18 sec) 
Heartbeat CPU 0 instructions: 50000003 cycles: 18497143 heartbeat IPC: 2.70281 cumulative IPC: 2.70312 (Simulation time: 0 hr 47 min 9 sec) 

Warmup complete CPU 0 instructions: 50000003 cycles: 18497143 (Simulation time: 0 hr 47 min 9 sec) 

Heartbeat CPU 0 instructions: 52000000 cycles: 19988113 heartbeat IPC: 1.34141 cumulative IPC: 1.34141 (Simulation time: 0 hr 49 min 34 sec) 

Region of Interest Statistics
cpu0_DTLB TOTAL     ACCESS:     471416  HIT:     398205  MISS:      73211
cpu0_DTLB LOAD      ACCESS:     406787  HIT:     342132  MISS:      64655
cpu0_DTLB RFO       ACCESS:      64629  HIT:      56073  MISS:       8556
cpu0_DTLB PREFETCH  ACCESS:          0  HIT:          0  MISS:          0
cpu0_DTLB WRITEBACK ACCESS:          0  HIT:          0  MISS:          0
cpu0_ITLB TOTAL     ACCESS:      49915  HIT:      49867  MISS:         48
cpu0_ITLB LOAD      ACCESS:      49915  HIT:      49867  MISS:         48
cpu0_ITLB RFO       ACCESS:          0  HIT:          0  MISS:          0
cpu0_ITLB PREFETCH  ACCESS:          0  HIT:          0  MISS:          0
cpu0_ITLB WRITEBACK ACCESS:          0  HIT:          0  MISS:          0
cpu0_L1I TOTAL     ACCESS:     195758  HIT:     178981  MISS:      16777
cpu0_L1I LOAD      ACCESS:     195758  HIT:     178981  MISS:      16777
cpu0_L1I RFO       ACCESS:          0  HIT:          0  MISS:          0
cpu0_L1I PREFETCH  ACCESS:          0  HIT:          0  MISS:          0
cpu0_L1I WRITEBACK ACCESS:          0  HIT:          0  MISS:          0
cpu0_STLB TOTAL     ACCESS:      73259  HIT:      72815  MISS:        444
cpu0_STLB LOAD      ACCESS:      64703  HIT:      64287  MISS:        416
cpu0_STLB RFO       ACCESS:       8556  HIT:       8528  MISS:         28
cpu0_STLB PREFETCH  ACCESS:          0  HIT:          0  MISS:          0
cpu0_STLB WRITEBACK ACCESS:          0  HIT:          0  MISS:          0
cpu0_L1D TOTAL     ACCESS:     722986  HIT:     584909  MISS:     138077
cpu0_L1D LOAD      ACCESS:     562593  HIT:     436194  MISS:     126399
cpu0_L1D RFO       ACCESS:     160089  HIT:     148534  MISS:      11555
cpu0_L1D PREFETCH  ACCESS:          0  HIT:          0  MISS:          0
cpu0_L1D WRITEBACK ACCESS:          0  HIT:          0  MISS:          0
cpu0_L2C TOTAL     ACCESS:     167154  HIT:     156640  MISS:      10514
cpu0_L2C LOAD      ACCESS:     143156  HIT:     133821  MISS:       9335
cpu0_L2C RFO       ACCESS:      11549  HIT:      10441  MISS:       1108
cpu0_L2C PREFETCH  ACCESS:          0  HIT:          0  MISS:          0
cpu0_L2C WRITEBACK ACCESS:      12326  HIT:      12324  MISS:          2
LLC TOTAL     ACCESS:      11755  HIT:       4375  MISS:       7380
LLC LOAD      ACCESS:       9335  HIT:       3284  MISS:       6051
LLC RFO       ACCESS:       1108  HIT:          0  MISS:       1108
LLC PREFETCH  ACCESS:          0  HIT:          0  MISS:          0
LLC WRITEBACK ACCESS:       1243  HIT:       1061  MISS:        182
Heartbeat CPU 0 instructions: 54000004 cycles: 22010243 heartbeat IPC: 0.989058 cumulative IPC: 1.1386 (Simulation time: 0 hr 52 min 22 sec) 

Region of Interest Statistics
cpu0_DTLB TOTAL     ACCESS:     834939  HIT:     611007  MISS:     223932
cpu0_DTLB LOAD      ACCESS:     662952  HIT:     450215  MISS:     212737
cpu0_DTLB RFO       ACCESS:     171987  HIT:     160792  MISS:      11195
cpu0_DTLB PREFETCH  ACCESS:          0  HIT:          0  MISS:          0
cpu0_DTLB WRITEBACK ACCESS:          0  HIT:          0  MISS:          0
cpu0_ITLB TOTAL     ACCESS:      87810  HIT:      87760  MISS:         50
cpu0_ITLB LOAD      ACCESS:      87810  HIT:      87760  MISS:         50
cpu0_ITLB RFO       ACCESS:          0  HIT:          0  MISS:          0
cpu0_ITLB PREFETCH  ACCESS:          0  HIT:          0  MISS:          0
cpu0_ITLB WRITEBACK ACCESS:          0  HIT:          0  MISS:          0
cpu0_L1I TOTAL     ACCESS:     397228  HIT:     380384  MISS:      16844
cpu0_L1I LOAD      ACCESS:     397228  HIT:     380384  MISS:      16844
cpu0_L1I RFO       ACCESS:          0  HIT:          0  MISS:          0
cpu0_L1I PREFETCH  ACCESS:          0  HIT:          0  MISS:          0
cpu0_L1I WRITEBACK ACCESS:          0  HIT:          0  MISS:          0
cpu0_STLB TOTAL     ACCESS:     223982  HIT:     223311  MISS:        671
cpu0_STLB LOAD      ACCESS:     212787  HIT:     212144  MISS:        643
cpu0_STLB RFO       ACCESS:      11195  HIT:      11167  MISS:         28
cpu0_STLB PREFETCH  ACCESS:          0  HIT:          0  MISS:          0
cpu0_STLB WRITEBACK ACCESS:          0  HIT:          0  MISS:          0
cpu0_L1D TOTAL     ACCESS:    1283739  HIT:     915162  MISS:     368577
cpu0_L1D LOAD      ACCESS:     899384  HIT:     551316  MISS:     348068
cpu0_L1D RFO       ACCESS:     383824  HIT:     363635  MISS:      20189
cpu0_L1D PREFETCH  ACCESS:          0  HIT:          0  MISS:          0
cpu0_L1D WRITEBACK ACCESS:          0  HIT:          0  MISS:          0
cpu0_L2C TOTAL     ACCESS:     412371  HIT:     377712  MISS:      34659
cpu0_L2C LOAD      ACCESS:     364848  HIT:     331542  MISS:      33306
cpu0_L2C RFO       ACCESS:      20169  HIT:      18956  MISS:       1213
cpu0_L2C PREFETCH  ACCESS:          0  HIT:          0  MISS:          0
cpu0_L2C WRITEBACK ACCESS:      27034  HIT:      27031  MISS:          3
LLC TOTAL     ACCESS:      38132  HIT:      11584  MISS:      26548
LLC LOAD      ACCESS:      33286  HIT:       8341  MISS:      24945
LLC RFO       ACCESS:       1213  HIT:        105  MISS:       1108
LLC PREFETCH  ACCESS:          0  HIT:          0  MISS:          0
LLC WRITEBACK ACCESS:       3496  HIT:       3055  MISS:        441
Heartbeat CPU 0 instructions: 56000003 cycles: 23970255 heartbeat IPC: 1.0204 cumulative IPC: 1.09627 (Simulation time: 0 hr 55 min 7 sec) 

Region of Interest Statistics
cpu0_DTLB TOTAL     ACCESS:    1198039  HIT:     823287  MISS:     374752
cpu0_DTLB LOAD      ACCESS:     918171  HIT:     557320  MISS:     360851
cpu0_DTLB RFO       ACCESS:     279868  HIT:     265967  MISS:      13901
cpu0_DTLB PREFETCH  ACCESS:          0  HIT:          0  MISS:          0
cpu0_DTLB WRITEBACK ACCESS:          0  HIT:          0  MISS:          0
cpu0_ITLB TOTAL     ACCESS:     125660  HIT:     125610  MISS:         50
cpu0_ITLB LOAD      ACCESS:     125660  HIT:     125610  MISS:         50
cpu0_ITLB RFO       ACCESS:          0  HIT:          0  MISS:          0
cpu0_ITLB PREFETCH  ACCESS:          0  HIT:          0  MISS:          0
cpu0_ITLB WRITEBACK ACCESS:          0  HIT:          0  MISS:          0
cpu0_L1I TOTAL     ACCESS:     598628  HIT:     581784  MISS:      16844
cpu0_L1I LOAD      ACCESS:     598628  HIT:     581784  MISS:      16844
cpu0_L1I RFO       ACCESS:          0  HIT:          0  MISS:          0
cpu0_L1I PREFETCH  ACCESS:          0  HIT:          0  MISS:          0
cpu0_L1I WRITEBACK ACCESS:          0  HIT:          0  MISS:          0
cpu0_STLB TOTAL     ACCESS:     374802  HIT:     373881  MISS:        921
cpu0_STLB LOAD      ACCESS:     360901  HIT:     360008  MISS:        893
cpu0_STLB RFO       ACCESS:      13901  HIT:      13873  MISS:         28
cpu0_STLB PREFETCH  ACCESS:          0  HIT:          0  MISS:          0
cpu0_STLB WRITEBACK ACCESS:          0  HIT:          0  MISS:          0
cpu0_L1D TOTAL     ACCESS:    1844128  HIT:    1244721  MISS:     599407
cpu0_L1D LOAD      ACCESS:    1235776  HIT:     665983  MISS:     569793
cpu0_L1D RFO       ACCESS:     607571  HIT:     578502  MISS:      29069
cpu0_L1D PREFETCH  ACCESS:          0  HIT:          0  MISS:          0
cpu0_L1D WRITEBACK ACCESS:          0  HIT:          0  MISS:          0
cpu0_L2C TOTAL     ACCESS:     657786  HIT:     600991  MISS:      56795
cpu0_L2C LOAD      ACCESS:     586531  HIT:     531252  MISS:      55279
cpu0_L2C RFO       ACCESS:      29027  HIT:      27710  MISS:       1317
cpu0_L2C PREFETCH  ACCESS:          0  HIT:          0  MISS:          0
cpu0_L2C WRITEBACK ACCESS:      41683  HIT:      41680  MISS:          3
LLC TOTAL     ACCESS:      62442  HIT:      20193  MISS:      42249
LLC LOAD      ACCESS:      55237  HIT:      14597  MISS:      40640
LLC RFO       ACCESS:       1316  HIT:        208  MISS:       1108
LLC PREFETCH  ACCESS:          0  HIT:          0  MISS:          0
LLC WRITEBACK ACCESS:       5693  HIT:       5251  MISS:        442
Heartbeat CPU 0 instructions: 58000001 cycles: 25925874 heartbeat IPC: 1.02269 cumulative IPC: 1.0769 (Simulation time: 0 hr 57 min 46 sec) 

Region of Interest Statistics
cpu0_DTLB TOTAL     ACCESS:    1560164  HIT:    1034575  MISS:     525589
cpu0_DTLB LOAD      ACCESS:    1172979  HIT:     664138  MISS:     508841
cpu0_DTLB RFO       ACCESS:     387185  HIT:     370437  MISS:      16748
cpu0_DTLB PREFETCH  ACCESS:          0  HIT:          0  MISS:          0
cpu0_DTLB WRITEBACK ACCESS:          0  HIT:          0  MISS:          0
cpu0_ITLB TOTAL     ACCESS:     163640  HIT:     163590  MISS:         50
cpu0_ITLB LOAD      ACCESS:     163640  HIT:     163590  MISS:         50
cpu0_ITLB RFO       ACCESS:          0  HIT:          0  MISS:          0
cpu0_ITLB PREFETCH  ACCESS:          0  HIT:          0  MISS:          0
cpu0_ITLB WRITEBACK ACCESS:          0  HIT:          0  MISS:          0
cpu0_L1I TOTAL     ACCESS:     799626  HIT:     782782  MISS:      16844
cpu0_L1I LOAD      ACCESS:     799626  HIT:     782782  MISS:      16844
cpu0_L1I RFO       ACCESS:          0  HIT:          0  MISS:          0
cpu0_L1I PREFETCH  ACCESS:          0  HIT:          0  MISS:          0
cpu0_L1I WRITEBACK ACCESS:          0  HIT:          0  MISS:          0
cpu0_STLB TOTAL     ACCESS:     525639  HIT:     524493  MISS:       1146
cpu0_STLB LOAD      ACCESS:     508891  HIT:     507773  MISS:       1118
cpu0_STLB RFO       ACCESS:      16748  HIT:      16720  MISS:         28
cpu0_STLB PREFETCH  ACCESS:          0  HIT:          0  MISS:          0
cpu0_STLB WRITEBACK ACCESS:          0  HIT:          0  MISS:          0
cpu0_L1D TOTAL     ACCESS:    2403572  HIT:    1574278  MISS:     829294
cpu0_L1D LOAD      ACCESS:    1571759  HIT:     780302  MISS:     791457
cpu0_L1D RFO       ACCESS:     830807  HIT:     793720  MISS:      37087
cpu0_L1D PREFETCH  ACCESS:          0  HIT:          0  MISS:          0
cpu0_L1D WRITEBACK ACCESS:          0  HIT:          0  MISS:          0
cpu0_L2C TOTAL     ACCESS:     901687  HIT:     822210  MISS:      79477
cpu0_L2C LOAD      ACCESS:     808166  HIT:     730301  MISS:      77865
cpu0_L2C RFO       ACCESS:      37028  HIT:      35672  MISS:       1356
cpu0_L2C PREFETCH  ACCESS:          0  HIT:          0  MISS:          0
cpu0_L2C WRITEBACK ACCESS:      55743  HIT:      55736  MISS:          7
LLC TOTAL     ACCESS:      87180  HIT:      29415  MISS:      57765
LLC LOAD      ACCESS:      77823  HIT:      21690  MISS:      56133
LLC RFO       ACCESS:       1355  HIT:        247  MISS:       1108
LLC PREFETCH  ACCESS:          0  HIT:          0  MISS:          0
LLC WRITEBACK ACCESS:       7753  HIT:       7301  MISS:        452
Heartbeat CPU 0 instructions: 60000003 cycles: 27892614 heartbeat IPC: 1.01691 cumulative IPC: 1.06434 (Simulation time: 1 hr 0 min 26 sec) 

Region of Interest Statistics
cpu0_DTLB TOTAL     ACCESS:    1923651  HIT:    1247102  MISS:     676549
cpu0_DTLB LOAD      ACCESS:    1428024  HIT:     771389  MISS:     656635
cpu0_DTLB RFO       ACCESS:     495627  HIT:     475713  MISS:      19914
cpu0_DTLB PREFETCH  ACCESS:          0  HIT:          0  MISS:          0
cpu0_DTLB WRITEBACK ACCESS:          0  HIT:          0  MISS:          0
cpu0_ITLB TOTAL     ACCESS:     201592  HIT:     201542  MISS:         50
cpu0_ITLB LOAD      ACCESS:     201592  HIT:     201542  MISS:         50
cpu0_ITLB RFO       ACCESS:          0  HIT:          0  MISS:          0
cpu0_ITLB PREFETCH  ACCESS:          0  HIT:          0  MISS:          0
cpu0_ITLB WRITEBACK ACCESS:          0  HIT:          0  MISS:          0
cpu0_L1I TOTAL     ACCESS:    1000996  HIT:     984152  MISS:      16844
cpu0_L1I LOAD      ACCESS:    1000996  HIT:     984152  MISS:      16844
cpu0_L1I RFO       ACCESS:          0  HIT:          0  MISS:          0
cpu0_L1I PREFETCH  ACCESS:          0  HIT:          0  MISS:          0
cpu0_L1I WRITEBACK ACCESS:          0  HIT:          0  MISS:          0
cpu0_STLB TOTAL     ACCESS:     676599  HIT:     675203  MISS:       1396
cpu0_STLB LOAD      ACCESS:     656685  HIT:     655317  MISS:       1368
cpu0_STLB RFO       ACCESS:      19914  HIT:      19886  MISS:         28
cpu0_STLB PREFETCH  ACCESS:          0  HIT:          0  MISS:          0
cpu0_STLB WRITEBACK ACCESS:          0  HIT:          0  MISS:          0
cpu0_L1D TOTAL     ACCESS:    2963323  HIT:    1903566  MISS:    1059757
cpu0_L1D LOAD      ACCESS:    1907792  HIT:     894774  MISS:    1013018
cpu0_L1D RFO       ACCESS:    1054275  HIT:    1008518  MISS:      45757
cpu0_L1D PREFETCH  ACCESS:          0  HIT:          0  MISS:          0
cpu0_L1D WRITEBACK ACCESS:          0  HIT:          0  MISS:          0
cpu0_L2C TOTAL     ACCESS:    1146331  HIT:    1045754  MISS:     100577
cpu0_L2C LOAD      ACCESS:    1029695  HIT:     930811  MISS:      98884
cpu0_L2C RFO       ACCESS:      45679  HIT:      44310  MISS:       1369
cpu0_L2C PREFETCH  ACCESS:          0  HIT:          0  MISS:          0
cpu0_L2C WRITEBACK ACCESS:      69975  HIT:      69967  MISS:          8
LLC TOTAL     ACCESS:     110140  HIT:      36744  MISS:      73396
LLC LOAD      ACCESS:      98841  HIT:      27122  MISS:      71719
LLC RFO       ACCESS:       1368  HIT:        260  MISS:       1108
LLC PREFETCH  ACCESS:          0  HIT:          0  MISS:          0
LLC WRITEBACK ACCESS:       9615  HIT:       9161  MISS:        454
Heartbeat CPU 0 instructions: 62000002 cycles: 29856410 heartbeat IPC: 1.01844 cumulative IPC: 1.05641 (Simulation time: 1 hr 3 min 13 sec) 

Region of Interest Statistics
cpu0_DTLB TOTAL     ACCESS:    2285809  HIT:    1458498  MISS:     827311
cpu0_DTLB LOAD      ACCESS:    1683301  HIT:     879028  MISS:     804273
cpu0_DTLB RFO       ACCESS:     602508  HIT:     579470  MISS:      23038
cpu0_DTLB PREFETCH  ACCESS:          0  HIT:          0  MISS:          0
cpu0_DTLB WRITEBACK ACCESS:          0  HIT:          0  MISS:          0
cpu0_ITLB TOTAL     ACCESS:     239556  HIT:     239506  MISS:         50
cpu0_ITLB LOAD      ACCESS:     239556  HIT:     239506  MISS:         50
cpu0_ITLB RFO       ACCESS:          0  HIT:          0  MISS:          0
cpu0_ITLB PREFETCH  ACCESS:          0  HIT:          0  MISS:          0
cpu0_ITLB WRITEBACK ACCESS:          0  HIT:          0  MISS:          0
cpu0_L1I TOTAL     ACCESS:    1202263  HIT:    1185419  MISS:      16844
cpu0_L1I LOAD      ACCESS:    1202263  HIT:    1185419  MISS:      16844
cpu0_L1I RFO       ACCESS:          0  HIT:          0  MISS:          0
cpu0_L1I PREFETCH  ACCESS:          0  HIT:          0  MISS:          0
cpu0_L1I WRITEBACK ACCESS:          0  HIT:          0  MISS:          0
cpu0_STLB TOTAL     ACCESS:     827361  HIT:     825740  MISS:       1621
cpu0_STLB LOAD      ACCESS:     804323  HIT:     802730  MISS:       1593
cpu0_STLB RFO       ACCESS:      23038  HIT:      23010  MISS:         28
cpu0_STLB PREFETCH  ACCESS:          0  HIT:          0  MISS:          0
cpu0_STLB WRITEBACK ACCESS:          0  HIT:          0  MISS:          0
cpu0_L1D TOTAL     ACCESS:    3522495  HIT:    2233001  MISS:    1289494
cpu0_L1D LOAD      ACCESS:    2243390  HIT:    1009006  MISS:    1234384
cpu0_L1D RFO       ACCESS:    1277624  HIT:    1223703  MISS:      53921
cpu0_L1D PREFETCH  ACCESS:          0  HIT:          0  MISS:          0
cpu0_L1D WRITEBACK ACCESS:          0  HIT:          0  MISS:          0
cpu0_L2C TOTAL     ACCESS:    1389908  HIT:    1265816  MISS:     124092
cpu0_L2C LOAD      ACCESS:    1251013  HIT:    1128710  MISS:     122303
cpu0_L2C RFO       ACCESS:      53819  HIT:      52383  MISS:       1436
cpu0_L2C PREFETCH  ACCESS:          0  HIT:          0  MISS:          0
cpu0_L2C WRITEBACK ACCESS:      83887  HIT:      83879  MISS:          8
LLC TOTAL     ACCESS:     135725  HIT:      46790  MISS:      88935
LLC LOAD      ACCESS:     122256  HIT:      35015  MISS:      87241
LLC RFO       ACCESS:       1435  HIT:        327  MISS:       1108
LLC PREFETCH  ACCESS:          0  HIT:          0  MISS:          0
LLC WRITEBACK ACCESS:      11689  HIT:      11235  MISS:        454
Heartbeat CPU 0 instructions: 64000003 cycles: 31817789 heartbeat IPC: 1.01969 cumulative IPC: 1.051 (Simulation time: 1 hr 5 min 45 sec) 

Region of Interest Statistics
cpu0_DTLB TOTAL     ACCESS:    2647078  HIT:    1668995  MISS:     978083
cpu0_DTLB LOAD      ACCESS:    1938659  HIT:     986873  MISS:     951786
cpu0_DTLB RFO       ACCESS:     708419  HIT:     682122  MISS:      26297
cpu0_DTLB PREFETCH  ACCESS:          0  HIT:          0  MISS:          0
cpu0_DTLB WRITEBACK ACCESS:          0  HIT:          0  MISS:          0
cpu0_ITLB TOTAL     ACCESS:     277472  HIT:     277422  MISS:         50
cpu0_ITLB LOAD      ACCESS:     277472  HIT:     277422  MISS:         50
cpu0_ITLB RFO       ACCESS:          0  HIT:          0  MISS:          0
cpu0_ITLB PREFETCH  ACCESS:          0  HIT:          0  MISS:          0
cpu0_ITLB WRITEBACK ACCESS:          0  HIT:          0  MISS:          0
cpu0_L1I TOTAL     ACCESS:    1403357  HIT:    1386513  MISS:      16844
cpu0_L1I LOAD      ACCESS:    1403357  HIT:    1386513  MISS:      16844
cpu0_L1I RFO       ACCESS:          0  HIT:          0  MISS:          0
cpu0_L1I PREFETCH  ACCESS:          0  HIT:          0  MISS:          0
cpu0_L1I WRITEBACK ACCESS:          0  HIT:          0  MISS:          0
cpu0_STLB TOTAL     ACCESS:     978133  HIT:     976262  MISS:       1871
cpu0_STLB LOAD      ACCESS:     951836  HIT:     949993  MISS:       1843
cpu0_STLB RFO       ACCESS:      26297  HIT:      26269  MISS:         28
cpu0_STLB PREFETCH  ACCESS:          0  HIT:          0  MISS:          0
cpu0_STLB WRITEBACK ACCESS:          0  HIT:          0  MISS:          0
cpu0_L1D TOTAL     ACCESS:    4082355  HIT:    2562327  MISS:    1520028
cpu0_L1D LOAD      ACCESS:    2579397  HIT:    1123538  MISS:    1455859
cpu0_L1D RFO       ACCESS:    1501227  HIT:    1438470  MISS:      62757
cpu0_L1D PREFETCH  ACCESS:          0  HIT:          0  MISS:          0
cpu0_L1D WRITEBACK ACCESS:          0  HIT:          0  MISS:          0
cpu0_L2C TOTAL     ACCESS:    1634595  HIT:    1485278  MISS:     149317
cpu0_L2C LOAD      ACCESS:    1472462  HIT:    1325055  MISS:     147407
cpu0_L2C RFO       ACCESS:      62637  HIT:      61129  MISS:       1508
cpu0_L2C PREFETCH  ACCESS:          0  HIT:          0  MISS:          0
cpu0_L2C WRITEBACK ACCESS:      98084  HIT:      98075  MISS:          9
LLC TOTAL     ACCESS:     163054  HIT:      58145  MISS:     104909
LLC LOAD      ACCESS:     147360  HIT:      44166  MISS:     103194
LLC RFO       ACCESS:       1507  HIT:        399  MISS:       1108
LLC PREFETCH  ACCESS:          0  HIT:          0  MISS:          0
LLC WRITEBACK ACCESS:      13794  HIT:      13339  MISS:        455
Heartbeat CPU 0 instructions: 66000003 cycles: 33782114 heartbeat IPC: 1.01816 cumulative IPC: 1.04678 (Simulation time: 1 hr 8 min 32 sec) 

Region of Interest Statistics
cpu0_DTLB TOTAL     ACCESS:    3009499  HIT:    1880642  MISS:    1128857
cpu0_DTLB LOAD      ACCESS:    2193169  HIT:    1093966  MISS:    1099203
cpu0_DTLB RFO       ACCESS:     816330  HIT:     786676  MISS:      29654
cpu0_DTLB PREFETCH  ACCESS:          0  HIT:          0  MISS:          0
cpu0_DTLB WRITEBACK ACCESS:          0  HIT:          0  MISS:          0
cpu0_ITLB TOTAL     ACCESS:     315395  HIT:     315345  MISS:         50
cpu0_ITLB LOAD      ACCESS:     315395  HIT:     315345  MISS:         50
cpu0_ITLB RFO       ACCESS:          0  HIT:          0  MISS:          0
cpu0_ITLB PREFETCH  ACCESS:          0  HIT:          0  MISS:          0
cpu0_ITLB WRITEBACK ACCESS:          0  HIT:          0  MISS:          0
cpu0_L1I TOTAL     ACCESS:    1604698  HIT:    1587854  MISS:      16844
cpu0_L1I LOAD      ACCESS:    1604698  HIT:    1587854  MISS:      16844
cpu0_L1I RFO       ACCESS:          0  HIT:          0  MISS:          0
cpu0_L1I PREFETCH  ACCESS:          0  HIT:          0  MISS:          0
cpu0_L1I WRITEBACK ACCESS:          0  HIT:          0  MISS:          0
cpu0_STLB TOTAL     ACCESS:    1128907  HIT:    1126786  MISS:       2121
cpu0_STLB LOAD      ACCESS:    1099253  HIT:    1097160  MISS:       2093
cpu0_STLB RFO       ACCESS:      29654  HIT:      29626  MISS:         28
cpu0_STLB PREFETCH  ACCESS:          0  HIT:          0  MISS:          0
cpu0_STLB WRITEBACK ACCESS:          0  HIT:          0  MISS:          0
cpu0_L1D TOTAL     ACCESS:    4641727  HIT:    2891426  MISS:    1750301
cpu0_L1D LOAD      ACCESS:    2915148  HIT:    1237735  MISS:    1677413
cpu0_L1D RFO       ACCESS:    1724598  HIT:    1653347  MISS:      71251
cpu0_L1D PREFETCH  ACCESS:          0  HIT:          0  MISS:          0
cpu0_L1D WRITEBACK ACCESS:          0  HIT:          0  MISS:          0
cpu0_L2C TOTAL     ACCESS:    1878880  HIT:    1707566  MISS:     171314
cpu0_L2C LOAD      ACCESS:    1693983  HIT:    1524662  MISS:     169321
cpu0_L2C RFO       ACCESS:      71109  HIT:      69590  MISS:       1519
cpu0_L2C PREFETCH  ACCESS:          0  HIT:          0  MISS:          0
cpu0_L2C WRITEBACK ACCESS:     112151  HIT:     112139  MISS:         12
LLC TOTAL     ACCESS:     186972  HIT:      66017  MISS:     120955
LLC LOAD      ACCESS:     169274  HIT:      50069  MISS:     119205
LLC RFO       ACCESS:       1517  HIT:        409  MISS:       1108
LLC PREFETCH  ACCESS:          0  HIT:          0  MISS:          0
LLC WRITEBACK ACCESS:      15719  HIT:      15253  MISS:        466
Heartbeat CPU 0 instructions: 68000004 cycles: 35744220 heartbeat IPC: 1.01931 cumulative IPC: 1.04366 (Simulation time: 1 hr 11 min 4 sec) 

Region of Interest Statistics
cpu0_DTLB TOTAL     ACCESS:    3371120  HIT:    2091548  MISS:    1279572
cpu0_DTLB LOAD      ACCESS:    2448436  HIT:    1201678  MISS:    1246758
cpu0_DTLB RFO       ACCESS:     922684  HIT:     889870  MISS:      32814
cpu0_DTLB PREFETCH  ACCESS:          0  HIT:          0  MISS:          0
cpu0_DTLB WRITEBACK ACCESS:          0  HIT:          0  MISS:          0
cpu0_ITLB TOTAL     ACCESS:     353306  HIT:     353256  MISS:         50
cpu0_ITLB LOAD      ACCESS:     353306  HIT:     353256  MISS:         50
cpu0_ITLB RFO       ACCESS:          0  HIT:          0  MISS:          0
cpu0_ITLB PREFETCH  ACCESS:          0  HIT:          0  MISS:          0
cpu0_ITLB WRITEBACK ACCESS:          0  HIT:          0  MISS:          0
cpu0_L1I TOTAL     ACCESS:    1805968  HIT:    1789124  MISS:      16844
cpu0_L1I LOAD      ACCESS:    1805968  HIT:    1789124  MISS:      16844
cpu0_L1I RFO       ACCESS:          0  HIT:          0  MISS:          0
cpu0_L1I PREFETCH  ACCESS:          0  HIT:          0  MISS:          0
cpu0_L1I WRITEBACK ACCESS:          0  HIT:          0  MISS:          0
cpu0_STLB TOTAL     ACCESS:    1279622  HIT:    1277276  MISS:       2346
cpu0_STLB LOAD      ACCESS:    1246808  HIT:    1244490  MISS:       2318
cpu0_STLB RFO       ACCESS:      32814  HIT:      32786  MISS:         28
cpu0_STLB PREFETCH  ACCESS:          0  HIT:          0  MISS:          0
cpu0_STLB WRITEBACK ACCESS:          0  HIT:          0  MISS:          0
cpu0_L1D TOTAL     ACCESS:    5201792  HIT:    3221022  MISS:    1980770
cpu0_L1D LOAD      ACCESS:    3251081  HIT:    1352243  MISS:    1898838
cpu0_L1D RFO       ACCESS:    1948505  HIT:    1868415  MISS:      80090
cpu0_L1D PREFETCH  ACCESS:          0  HIT:          0  MISS:          0
cpu0_L1D WRITEBACK ACCESS:          0  HIT:          0  MISS:          0
cpu0_L2C TOTAL     ACCESS:    2123595  HIT:    1926216  MISS:     197379
cpu0_L2C LOAD      ACCESS:    1915377  HIT:    1720132  MISS:     195245
cpu0_L2C RFO       ACCESS:      79919  HIT:      78338  MISS:       1581
cpu0_L2C PREFETCH  ACCESS:          0  HIT:          0  MISS:          0
cpu0_L2C WRITEBACK ACCESS:     126457  HIT:     126435  MISS:         22
LLC TOTAL     ACCESS:     215581  HIT:      78793  MISS:     136788
LLC LOAD      ACCESS:     195192  HIT:      60178  MISS:     135014
LLC RFO       ACCESS:       1568  HIT:        460  MISS:       1108
LLC PREFETCH  ACCESS:          0  HIT:          0  MISS:          0
LLC WRITEBACK ACCESS:      18290  HIT:      17802  MISS:        488
Heartbeat CPU 0 instructions: 70000001 cycles: 37695487 heartbeat IPC: 1.02497 cumulative IPC: 1.04176 (Simulation time: 1 hr 13 min 39 sec) 

Region of Interest Statistics
cpu0_DTLB TOTAL     ACCESS:    3732014  HIT:    2301474  MISS:    1430540
cpu0_DTLB LOAD      ACCESS:    2703988  HIT:    1309736  MISS:    1394252
cpu0_DTLB RFO       ACCESS:    1028026  HIT:     991738  MISS:      36288
cpu0_DTLB PREFETCH  ACCESS:          0  HIT:          0  MISS:          0
cpu0_DTLB WRITEBACK ACCESS:          0  HIT:          0  MISS:          0
cpu0_ITLB TOTAL     ACCESS:     391159  HIT:     391109  MISS:         50
cpu0_ITLB LOAD      ACCESS:     391159  HIT:     391109  MISS:         50
cpu0_ITLB RFO       ACCESS:          0  HIT:          0  MISS:          0
cpu0_ITLB PREFETCH  ACCESS:          0  HIT:          0  MISS:          0
cpu0_ITLB WRITEBACK ACCESS:          0  HIT:          0  MISS:          0
cpu0_L1I TOTAL     ACCESS:    2007179  HIT:    1990335  MISS:      16844
cpu0_L1I LOAD      ACCESS:    2007179  HIT:    1990335  MISS:      16844
cpu0_L1I RFO       ACCESS:          0  HIT:          0  MISS:          0
cpu0_L1I PREFETCH  ACCESS:          0  HIT:          0  MISS:          0
cpu0_L1I WRITEBACK ACCESS:          0  HIT:          0  MISS:          0
cpu0_STLB TOTAL     ACCESS:    1430590  HIT:    1427994  MISS:       2596
cpu0_STLB LOAD      ACCESS:    1394302  HIT:    1391734  MISS:       2568
cpu0_STLB RFO       ACCESS:      36288  HIT:      36260  MISS:         28
cpu0_STLB PREFETCH  ACCESS:          0  HIT:          0  MISS:          0
cpu0_STLB WRITEBACK ACCESS:          0  HIT:          0  MISS:          0
cpu0_L1D TOTAL     ACCESS:    5761838  HIT:    3550199  MISS:    2211639
cpu0_L1D LOAD      ACCESS:    3586819  HIT:    1467103  MISS:    2119716
cpu0_L1D RFO       ACCESS:    2172563  HIT:    2082714  MISS:      89849
cpu0_L1D PREFETCH  ACCESS:          0  HIT:          0  MISS:          0
cpu0_L1D WRITEBACK ACCESS:          0  HIT:          0  MISS:          0
cpu0_L2C TOTAL     ACCESS:    2368617  HIT:    2141142  MISS:     227475
cpu0_L2C LOAD      ACCESS:    2136230  HIT:    1911126  MISS:     225104
cpu0_L2C RFO       ACCESS:      89652  HIT:      87924  MISS:       1728
cpu0_L2C PREFETCH  ACCESS:          0  HIT:          0  MISS:          0
cpu0_L2C WRITEBACK ACCESS:     140661  HIT:     140633  MISS:         28
LLC TOTAL     ACCESS:     247986  HIT:      95331  MISS:     152655
LLC LOAD      ACCESS:     225043  HIT:      74172  MISS:     150871
LLC RFO       ACCESS:       1711  HIT:        603  MISS:       1108
LLC PREFETCH  ACCESS:          0  HIT:          0  MISS:          0
LLC WRITEBACK ACCESS:      20617  HIT:      20122  MISS:        495
Heartbeat CPU 0 instructions: 72000004 cycles: 39652040 heartbeat IPC: 1.02221 cumulative IPC: 1.03995 (Simulation time: 1 hr 16 min 17 sec) 

Region of Interest Statistics
cpu0_DTLB TOTAL     ACCESS:    4091307  HIT:    2509906  MISS:    1581401
cpu0_DTLB LOAD      ACCESS:    2959943  HIT:    1417835  MISS:    1542108
cpu0_DTLB RFO       ACCESS:    1131364  HIT:    1092071  MISS:      39293
cpu0_DTLB PREFETCH  ACCESS:          0  HIT:          0  MISS:          0
cpu0_DTLB WRITEBACK ACCESS:          0  HIT:          0  MISS:          0
cpu0_ITLB TOTAL     ACCESS:     429029  HIT:     428979  MISS:         50
cpu0_ITLB LOAD      ACCESS:     429029  HIT:     428979  MISS:         50
cpu0_ITLB RFO       ACCESS:          0  HIT:          0  MISS:          0
cpu0_ITLB PREFETCH  ACCESS:          0  HIT:          0  MISS:          0
cpu0_ITLB WRITEBACK ACCESS:          0  HIT:          0  MISS:          0
cpu0_L1I TOTAL     ACCESS:    2208790  HIT:    2191946  MISS:      16844
cpu0_L1I LOAD      ACCESS:    2208790  HIT:    2191946  MISS:      16844
cpu0_L1I RFO       ACCESS:          0  HIT:          0  MISS:          0
cpu0_L1I PREFETCH  ACCESS:          0  HIT:          0  MISS:          0
cpu0_L1I WRITEBACK ACCESS:          0  HIT:          0  MISS:          0
cpu0_STLB TOTAL     ACCESS:    1581451  HIT:    1578630  MISS:       2821
cpu0_STLB LOAD      ACCESS:    1542158  HIT:    1539365  MISS:       2793
cpu0_STLB RFO       ACCESS:      39293  HIT:      39265  MISS:         28
cpu0_STLB PREFETCH  ACCESS:          0  HIT:          0  MISS:          0
cpu0_STLB WRITEBACK ACCESS:          0  HIT:          0  MISS:          0
cpu0_L1D TOTAL     ACCESS:    6322121  HIT:    3880337  MISS:    2441784
cpu0_L1D LOAD      ACCESS:    3923432  HIT:    1582335  MISS:    2341097
cpu0_L1D RFO       ACCESS:    2396008  HIT:    2297601  MISS:      98407
cpu0_L1D PREFETCH  ACCESS:          0  HIT:          0  MISS:          0
cpu0_L1D WRITEBACK ACCESS:          0  HIT:          0  MISS:          0
cpu0_L2C TOTAL     ACCESS:    2612779  HIT:    2353736  MISS:     259043
cpu0_L2C LOAD      ACCESS:    2357594  HIT:    2101673  MISS:     255921
cpu0_L2C RFO       ACCESS:      98180  HIT:      95780  MISS:       2400
cpu0_L2C PREFETCH  ACCESS:          0  HIT:          0  MISS:          0
cpu0_L2C WRITEBACK ACCESS:     154725  HIT:     154696  MISS:         29
LLC TOTAL     ACCESS:     282817  HIT:     114483  MISS:     168334
LLC LOAD      ACCESS:     255746  HIT:      89204  MISS:     166542
LLC RFO       ACCESS:       2375  HIT:       1267  MISS:       1108
LLC PREFETCH  ACCESS:          0  HIT:          0  MISS:          0
LLC WRITEBACK ACCESS:      24003  HIT:      23503  MISS:        500
Heartbeat CPU 0 instructions: 74000000 cycles: 41625065 heartbeat IPC: 1.01367 cumulative IPC: 1.03771 (Simulation time: 1 hr 18 min 56 sec) 

Region of Interest Statistics
cpu0_DTLB TOTAL     ACCESS:    4452642  HIT:    2720443  MISS:    1732199
cpu0_DTLB LOAD      ACCESS:    3214674  HIT:    1525057  MISS:    1689617
cpu0_DTLB RFO       ACCESS:    1237968  HIT:    1195386  MISS:      42582
cpu0_DTLB PREFETCH  ACCESS:          0  HIT:          0  MISS:          0
cpu0_DTLB WRITEBACK ACCESS:          0  HIT:          0  MISS:          0
cpu0_ITLB TOTAL     ACCESS:     466744  HIT:     466694  MISS:         50
cpu0_ITLB LOAD      ACCESS:     466744  HIT:     466694  MISS:         50
cpu0_ITLB RFO       ACCESS:          0  HIT:          0  MISS:          0
cpu0_ITLB PREFETCH  ACCESS:          0  HIT:          0  MISS:          0
cpu0_ITLB WRITEBACK ACCESS:          0  HIT:          0  MISS:          0
cpu0_L1I TOTAL     ACCESS:    2410482  HIT:    2393638  MISS:      16844
cpu0_L1I LOAD      ACCESS:    2410482  HIT:    2393638  MISS:      16844
cpu0_L1I RFO       ACCESS:          0  HIT:          0  MISS:          0
cpu0_L1I PREFETCH  ACCESS:          0  HIT:          0  MISS:          0
cpu0_L1I WRITEBACK ACCESS:          0  HIT:          0  MISS:          0
cpu0_STLB TOTAL     ACCESS:    1732249  HIT:    1729178  MISS:       3071
cpu0_STLB LOAD      ACCESS:    1689667  HIT:    1686624  MISS:       3043
cpu0_STLB RFO       ACCESS:      42582  HIT:      42554  MISS:         28
cpu0_STLB PREFETCH  ACCESS:          0  HIT:          0  MISS:          0
cpu0_STLB WRITEBACK ACCESS:          0  HIT:          0  MISS:          0
cpu0_L1D TOTAL     ACCESS:    6882489  HIT:    4210002  MISS:    2672487
cpu0_L1D LOAD      ACCESS:    4259791  HIT:    1697160  MISS:    2562631
cpu0_L1D RFO       ACCESS:    2619767  HIT:    2512414  MISS:     107353
cpu0_L1D PREFETCH  ACCESS:          0  HIT:          0  MISS:          0
cpu0_L1D WRITEBACK ACCESS:          0  HIT:          0  MISS:          0
cpu0_L2C TOTAL     ACCESS:    2857771  HIT:    2575136  MISS:     282635
cpu0_L2C LOAD      ACCESS:    2579085  HIT:    2299675  MISS:     279410
cpu0_L2C RFO       ACCESS:     107111  HIT:     104661  MISS:       2450
cpu0_L2C PREFETCH  ACCESS:          0  HIT:          0  MISS:          0
cpu0_L2C WRITEBACK ACCESS:     169072  HIT:     169041  MISS:         31
LLC TOTAL     ACCESS:     308556  HIT:     124082  MISS:     184474
LLC LOAD      ACCESS:     279204  HIT:      96534  MISS:     182670
LLC RFO       ACCESS:       2423  HIT:       1315  MISS:       1108
LLC PREFETCH  ACCESS:          0  HIT:          0  MISS:          0
LLC WRITEBACK ACCESS:      26185  HIT:      25677  MISS:        508
Heartbeat CPU 0 instructions: 76000000 cycles: 43590751 heartbeat IPC: 1.01746 cumulative IPC: 1.03612 (Simulation time: 1 hr 21 min 31 sec) 

Region of Interest Statistics
cpu0_DTLB TOTAL     ACCESS:    4814706  HIT:    2931690  MISS:    1883016
cpu0_DTLB LOAD      ACCESS:    3469742  HIT:    1632330  MISS:    1837412
cpu0_DTLB RFO       ACCESS:    1344964  HIT:    1299360  MISS:      45604
cpu0_DTLB PREFETCH  ACCESS:          0  HIT:          0  MISS:          0
cpu0_DTLB WRITEBACK ACCESS:          0  HIT:          0  MISS:          0
cpu0_ITLB TOTAL     ACCESS:     504644  HIT:     504594  MISS:         50
cpu0_ITLB LOAD      ACCESS:     504644  HIT:     504594  MISS:         50
cpu0_ITLB RFO       ACCESS:          0  HIT:          0  MISS:          0
cpu0_ITLB PREFETCH  ACCESS:          0  HIT:          0  MISS:          0
cpu0_ITLB WRITEBACK ACCESS:          0  HIT:          0  MISS:          0
cpu0_L1I TOTAL     ACCESS:    2611872  HIT:    2595028  MISS:      16844
cpu0_L1I LOAD      ACCESS:    2611872  HIT:    2595028  MISS:      16844
cpu0_L1I RFO       ACCESS:          0  HIT:          0  MISS:          0
cpu0_L1I PREFETCH  ACCESS:          0  HIT:          0  MISS:          0
cpu0_L1I WRITEBACK ACCESS:          0  HIT:          0  MISS:          0
cpu0_STLB TOTAL     ACCESS:    1883066  HIT:    1879745  MISS:       3321
cpu0_STLB LOAD      ACCESS:    1837462  HIT:    1834169  MISS:       3293
cpu0_STLB RFO       ACCESS:      45604  HIT:      45576  MISS:         28
cpu0_STLB PREFETCH  ACCESS:          0  HIT:          0  MISS:          0
cpu0_STLB WRITEBACK ACCESS:          0  HIT:          0  MISS:          0
cpu0_L1D TOTAL     ACCESS:    7441842  HIT:    4538925  MISS:    2902917
cpu0_L1D LOAD      ACCESS:    4595397  HIT:    1811145  MISS:    2784252
cpu0_L1D RFO       ACCESS:    2843264  HIT:    2727327  MISS:     115937
cpu0_L1D PREFETCH  ACCESS:          0  HIT:          0  MISS:          0
cpu0_L1D WRITEBACK ACCESS:          0  HIT:          0  MISS:          0
cpu0_L2C TOTAL     ACCESS:    3102404  HIT:    2794823  MISS:     307581
cpu0_L2C LOAD      ACCESS:    2800660  HIT:    2496529  MISS:     304131
cpu0_L2C RFO       ACCESS:     115681  HIT:     113050  MISS:       2631
cpu0_L2C PREFETCH  ACCESS:          0  HIT:          0  MISS:          0
cpu0_L2C WRITEBACK ACCESS:     183335  HIT:     183304  MISS:         31
LLC TOTAL     ACCESS:     335834  HIT:     135326  MISS:     200508
LLC LOAD      ACCESS:     303789  HIT:     105085  MISS:     198704
LLC RFO       ACCESS:       2600  HIT:       1492  MISS:       1108
LLC PREFETCH  ACCESS:          0  HIT:          0  MISS:          0
LLC WRITEBACK ACCESS:      28657  HIT:      28149  MISS:        508
Heartbeat CPU 0 instructions: 78000003 cycles: 45526570 heartbeat IPC: 1.03316 cumulative IPC: 1.03591 (Simulation time: 1 hr 23 min 56 sec) 

Region of Interest Statistics
cpu0_DTLB TOTAL     ACCESS:    5175201  HIT:    3141450  MISS:    2033751
cpu0_DTLB LOAD      ACCESS:    3725400  HIT:    1740383  MISS:    1985017
cpu0_DTLB RFO       ACCESS:    1449801  HIT:    1401067  MISS:      48734
cpu0_DTLB PREFETCH  ACCESS:          0  HIT:          0  MISS:          0
cpu0_DTLB WRITEBACK ACCESS:          0  HIT:          0  MISS:          0
cpu0_ITLB TOTAL     ACCESS:     542573  HIT:     542523  MISS:         50
cpu0_ITLB LOAD      ACCESS:     542573  HIT:     542523  MISS:         50
cpu0_ITLB RFO       ACCESS:          0  HIT:          0  MISS:          0
cpu0_ITLB PREFETCH  ACCESS:          0  HIT:          0  MISS:          0
cpu0_ITLB WRITEBACK ACCESS:          0  HIT:          0  MISS:          0
cpu0_L1I TOTAL     ACCESS:    2813137  HIT:    2796293  MISS:      16844
cpu0_L1I LOAD      ACCESS:    2813137  HIT:    2796293  MISS:      16844
cpu0_L1I RFO       ACCESS:          0  HIT:          0  MISS:          0
cpu0_L1I PREFETCH  ACCESS:          0  HIT:          0  MISS:          0
cpu0_L1I WRITEBACK ACCESS:          0  HIT:          0  MISS:          0
cpu0_STLB TOTAL     ACCESS:    2033801  HIT:    2030255  MISS:       3546
cpu0_STLB LOAD      ACCESS:    1985067  HIT:    1981549  MISS:       3518
cpu0_STLB RFO       ACCESS:      48734  HIT:      48706  MISS:         28
cpu0_STLB PREFETCH  ACCESS:          0  HIT:          0  MISS:          0
cpu0_STLB WRITEBACK ACCESS:          0  HIT:          0  MISS:          0
cpu0_L1D TOTAL     ACCESS:    8001867  HIT:    4868974  MISS:    3132893
cpu0_L1D LOAD      ACCESS:    4931913  HIT:    1926402  MISS:    3005511
cpu0_L1D RFO       ACCESS:    3066548  HIT:    2942099  MISS:     124449
cpu0_L1D PREFETCH  ACCESS:          0  HIT:          0  MISS:          0
cpu0_L1D WRITEBACK ACCESS:          0  HIT:          0  MISS:          0
cpu0_L2C TOTAL     ACCESS:    3346113  HIT:    3010614  MISS:     335499
cpu0_L2C LOAD      ACCESS:    3021880  HIT:    2690240  MISS:     331640
cpu0_L2C RFO       ACCESS:     124183  HIT:     121201  MISS:       2982
cpu0_L2C PREFETCH  ACCESS:          0  HIT:          0  MISS:          0
cpu0_L2C WRITEBACK ACCESS:     197117  HIT:     197085  MISS:         32
LLC TOTAL     ACCESS:     366717  HIT:     150756  MISS:     215961
LLC LOAD      ACCESS:     331003  HIT:     116849  MISS:     214154
LLC RFO       ACCESS:       2931  HIT:       1823  MISS:       1108
LLC PREFETCH  ACCESS:          0  HIT:          0  MISS:          0
LLC WRITEBACK ACCESS:      31938  HIT:      31427  MISS:        511
Heartbeat CPU 0 instructions: 80000002 cycles: 47467390 heartbeat IPC: 1.03049 cumulative IPC: 1.03555 (Simulation time: 1 hr 26 min 37 sec) 

Region of Interest Statistics
cpu0_DTLB TOTAL     ACCESS:    5536263  HIT:    3351525  MISS:    2184738
cpu0_DTLB LOAD      ACCESS:    3980329  HIT:    1847536  MISS:    2132793
cpu0_DTLB RFO       ACCESS:    1555934  HIT:    1503989  MISS:      51945
cpu0_DTLB PREFETCH  ACCESS:          0  HIT:          0  MISS:          0
cpu0_DTLB WRITEBACK ACCESS:          0  HIT:          0  MISS:          0
cpu0_ITLB TOTAL     ACCESS:     580643  HIT:     580593  MISS:         50
cpu0_ITLB LOAD      ACCESS:     580643  HIT:     580593  MISS:         50
cpu0_ITLB RFO       ACCESS:          0  HIT:          0  MISS:          0
cpu0_ITLB PREFETCH  ACCESS:          0  HIT:          0  MISS:          0
cpu0_ITLB WRITEBACK ACCESS:          0  HIT:          0  MISS:          0
cpu0_L1I TOTAL     ACCESS:    3014195  HIT:    2997351  MISS:      16844
cpu0_L1I LOAD      ACCESS:    3014195  HIT:    2997351  MISS:      16844
cpu0_L1I RFO       ACCESS:          0  HIT:          0  MISS:          0
cpu0_L1I PREFETCH  ACCESS:          0  HIT:          0  MISS:          0
cpu0_L1I WRITEBACK ACCESS:          0  HIT:          0  MISS:          0
cpu0_STLB TOTAL     ACCESS:    2184788  HIT:    2180992  MISS:       3796
cpu0_STLB LOAD      ACCESS:    2132843  HIT:    2129075  MISS:       3768
cpu0_STLB RFO       ACCESS:      51945  HIT:      51917  MISS:         28
cpu0_STLB PREFETCH  ACCESS:          0  HIT:          0  MISS:          0
cpu0_STLB WRITEBACK ACCESS:          0  HIT:          0  MISS:          0
cpu0_L1D TOTAL     ACCESS:    8562190  HIT:    5198736  MISS:    3363454
cpu0_L1D LOAD      ACCESS:    5268123  HIT:    2041122  MISS:    3227001
cpu0_L1D RFO       ACCESS:    3290411  HIT:    3157123  MISS:     133288
cpu0_L1D PREFETCH  ACCESS:          0  HIT:          0  MISS:          0
cpu0_L1D WRITEBACK ACCESS:          0  HIT:          0  MISS:          0
cpu0_L2C TOTAL     ACCESS:    3590842  HIT:    3227780  MISS:     363062
cpu0_L2C LOAD      ACCESS:    3243342  HIT:    2884320  MISS:     359022
cpu0_L2C RFO       ACCESS:     132998  HIT:     129912  MISS:       3086
cpu0_L2C PREFETCH  ACCESS:          0  HIT:          0  MISS:          0
cpu0_L2C WRITEBACK ACCESS:     211337  HIT:     211305  MISS:         32
LLC TOTAL     ACCESS:     396761  HIT:     164995  MISS:     231766
LLC LOAD      ACCESS:     358350  HIT:     128395  MISS:     229955
LLC RFO       ACCESS:       3027  HIT:       1918  MISS:       1109
LLC PREFETCH  ACCESS:          0  HIT:          0  MISS:          0
LLC WRITEBACK ACCESS:      34462  HIT:      33950  MISS:        512
Heartbeat CPU 0 instructions: 82000004 cycles: 49424308 heartbeat IPC: 1.02202 cumulative IPC: 1.03469 (Simulation time: 1 hr 29 min 11 sec) 

Region of Interest Statistics
cpu0_DTLB TOTAL     ACCESS:    5894909  HIT:    3559424  MISS:    2335485
cpu0_DTLB LOAD      ACCESS:    4234598  HIT:    1953958  MISS:    2280640
cpu0_DTLB RFO       ACCESS:    1660311  HIT:    1605466  MISS:      54845
cpu0_DTLB PREFETCH  ACCESS:          0  HIT:          0  MISS:          0
cpu0_DTLB WRITEBACK ACCESS:          0  HIT:          0  MISS:          0
cpu0_ITLB TOTAL     ACCESS:     618723  HIT:     618673  MISS:         50
cpu0_ITLB LOAD      ACCESS:     618723  HIT:     618673  MISS:         50
cpu0_ITLB RFO       ACCESS:          0  HIT:          0  MISS:          0
cpu0_ITLB PREFETCH  ACCESS:          0  HIT:          0  MISS:          0
cpu0_ITLB WRITEBACK ACCESS:          0  HIT:          0  MISS:          0
cpu0_L1I TOTAL     ACCESS:    3214908  HIT:    3198064  MISS:      16844
cpu0_L1I LOAD      ACCESS:    3214908  HIT:    3198064  MISS:      16844
cpu0_L1I RFO       ACCESS:          0  HIT:          0  MISS:          0
cpu0_L1I PREFETCH  ACCESS:          0  HIT:          0  MISS:          0
cpu0_L1I WRITEBACK ACCESS:          0  HIT:          0  MISS:          0
cpu0_STLB TOTAL     ACCESS:    2335535  HIT:    2331514  MISS:       4021
cpu0_STLB LOAD      ACCESS:    2280690  HIT:    2276697  MISS:       3993
cpu0_STLB RFO       ACCESS:      54845  HIT:      54817  MISS:         28
cpu0_STLB PREFETCH  ACCESS:          0  HIT:          0  MISS:          0
cpu0_STLB WRITEBACK ACCESS:          0  HIT:          0  MISS:          0
cpu0_L1D TOTAL     ACCESS:    9122747  HIT:    5528764  MISS:    3593983
cpu0_L1D LOAD      ACCESS:    5604783  HIT:    2156119  MISS:    3448664
cpu0_L1D RFO       ACCESS:    3514083  HIT:    3372137  MISS:     141946
cpu0_L1D PREFETCH  ACCESS:          0  HIT:          0  MISS:          0
cpu0_L1D WRITEBACK ACCESS:          0  HIT:          0  MISS:          0
cpu0_L2C TOTAL     ACCESS:    3835812  HIT:    3438957  MISS:     396855
cpu0_L2C LOAD      ACCESS:    3464980  HIT:    3072358  MISS:     392622
cpu0_L2C RFO       ACCESS:     141626  HIT:     138385  MISS:       3241
cpu0_L2C PREFETCH  ACCESS:          0  HIT:          0  MISS:          0
cpu0_L2C WRITEBACK ACCESS:     225833  HIT:     225800  MISS:         33
LLC TOTAL     ACCESS:     433307  HIT:     185600  MISS:     247707
LLC LOAD      ACCESS:     391933  HIT:     146043  MISS:     245890
LLC RFO       ACCESS:       3182  HIT:       2073  MISS:       1109
LLC PREFETCH  ACCESS:          0  HIT:          0  MISS:          0
LLC WRITEBACK ACCESS:      37233  HIT:      36719  MISS:        514
Heartbeat CPU 0 instructions: 84000002 cycles: 51362196 heartbeat IPC: 1.03205 cumulative IPC: 1.03453 (Simulation time: 1 hr 31 min 54 sec) 

Region of Interest Statistics
cpu0_DTLB TOTAL     ACCESS:    6254391  HIT:    3768169  MISS:    2486222
cpu0_DTLB LOAD      ACCESS:    4488900  HIT:    2060752  MISS:    2428148
cpu0_DTLB RFO       ACCESS:    1765491  HIT:    1707417  MISS:      58074
cpu0_DTLB PREFETCH  ACCESS:          0  HIT:          0  MISS:          0
cpu0_DTLB WRITEBACK ACCESS:          0  HIT:          0  MISS:          0
cpu0_ITLB TOTAL     ACCESS:     656771  HIT:     656721  MISS:         50
cpu0_ITLB LOAD      ACCESS:     656771  HIT:     656721  MISS:         50
cpu0_ITLB RFO       ACCESS:          0  HIT:          0  MISS:          0
cpu0_ITLB PREFETCH  ACCESS:          0  HIT:          0  MISS:          0
cpu0_ITLB WRITEBACK ACCESS:          0  HIT:          0  MISS:          0
cpu0_L1I TOTAL     ACCESS:    3415962  HIT:    3399118  MISS:      16844
cpu0_L1I LOAD      ACCESS:    3415962  HIT:    3399118  MISS:      16844
cpu0_L1I RFO       ACCESS:          0  HIT:          0  MISS:          0
cpu0_L1I PREFETCH  ACCESS:          0  HIT:          0  MISS:          0
cpu0_L1I WRITEBACK ACCESS:          0  HIT:          0  MISS:          0
cpu0_STLB TOTAL     ACCESS:    2486272  HIT:    2482001  MISS:       4271
cpu0_STLB LOAD      ACCESS:    2428198  HIT:    2423955  MISS:       4243
cpu0_STLB RFO       ACCESS:      58074  HIT:      58046  MISS:         28
cpu0_STLB PREFETCH  ACCESS:          0  HIT:          0  MISS:          0
cpu0_STLB WRITEBACK ACCESS:          0  HIT:          0  MISS:          0
cpu0_L1D TOTAL     ACCESS:    9682266  HIT:    5858113  MISS:    3824153
cpu0_L1D LOAD      ACCESS:    5940704  HIT:    2270596  MISS:    3670108
cpu0_L1D RFO       ACCESS:    3737431  HIT:    3586984  MISS:     150447
cpu0_L1D PREFETCH  ACCESS:          0  HIT:          0  MISS:          0
cpu0_L1D WRITEBACK ACCESS:          0  HIT:          0  MISS:          0
cpu0_L2C TOTAL     ACCESS:    4079980  HIT:    3655890  MISS:     424090
cpu0_L2C LOAD      ACCESS:    3686404  HIT:    3266679  MISS:     419725
cpu0_L2C RFO       ACCESS:     150114  HIT:     146790  MISS:       3324
cpu0_L2C PREFETCH  ACCESS:          0  HIT:          0  MISS:          0
cpu0_L2C WRITEBACK ACCESS:     239864  HIT:     239831  MISS:         33
LLC TOTAL     ACCESS:     462697  HIT:     199314  MISS:     263383
LLC LOAD      ACCESS:     419010  HIT:     157445  MISS:     261565
LLC RFO       ACCESS:       3265  HIT:       2156  MISS:       1109
LLC PREFETCH  ACCESS:          0  HIT:          0  MISS:          0
LLC WRITEBACK ACCESS:      39414  HIT:      38900  MISS:        514
Heartbeat CPU 0 instructions: 86000001 cycles: 53325354 heartbeat IPC: 1.01877 cumulative IPC: 1.03364 (Simulation time: 1 hr 34 min 32 sec) 

Region of Interest Statistics
cpu0_DTLB TOTAL     ACCESS:    6616210  HIT:    3979263  MISS:    2636947
cpu0_DTLB LOAD      ACCESS:    4743413  HIT:    2167705  MISS:    2575708
cpu0_DTLB RFO       ACCESS:    1872797  HIT:    1811558  MISS:      61239
cpu0_DTLB PREFETCH  ACCESS:          0  HIT:          0  MISS:          0
cpu0_DTLB WRITEBACK ACCESS:          0  HIT:          0  MISS:          0
cpu0_ITLB TOTAL     ACCESS:     694778  HIT:     694728  MISS:         50
cpu0_ITLB LOAD      ACCESS:     694778  HIT:     694728  MISS:         50
cpu0_ITLB RFO       ACCESS:          0  HIT:          0  MISS:          0
cpu0_ITLB PREFETCH  ACCESS:          0  HIT:          0  MISS:          0
cpu0_ITLB WRITEBACK ACCESS:          0  HIT:          0  MISS:          0
cpu0_L1I TOTAL     ACCESS:    3617168  HIT:    3600324  MISS:      16844
cpu0_L1I LOAD      ACCESS:    3617168  HIT:    3600324  MISS:      16844
cpu0_L1I RFO       ACCESS:          0  HIT:          0  MISS:          0
cpu0_L1I PREFETCH  ACCESS:          0  HIT:          0  MISS:          0
cpu0_L1I WRITEBACK ACCESS:          0  HIT:          0  MISS:          0
cpu0_STLB TOTAL     ACCESS:    2636997  HIT:    2632476  MISS:       4521
cpu0_STLB LOAD      ACCESS:    2575758  HIT:    2571265  MISS:       4493
cpu0_STLB RFO       ACCESS:      61239  HIT:      61211  MISS:         28
cpu0_STLB PREFETCH  ACCESS:          0  HIT:          0  MISS:          0
cpu0_STLB WRITEBACK ACCESS:          0  HIT:          0  MISS:          0
cpu0_L1D TOTAL     ACCESS:   10242143  HIT:    6187680  MISS:    4054463
cpu0_L1D LOAD      ACCESS:    6276709  HIT:    2385221  MISS:    3891488
cpu0_L1D RFO       ACCESS:    3961053  HIT:    3801902  MISS:     159151
cpu0_L1D PREFETCH  ACCESS:          0  HIT:          0  MISS:          0
cpu0_L1D WRITEBACK ACCESS:          0  HIT:          0  MISS:          0
cpu0_L2C TOTAL     ACCESS:    4324462  HIT:    3878562  MISS:     445900
cpu0_L2C LOAD      ACCESS:    3907738  HIT:    3466315  MISS:     441423
cpu0_L2C RFO       ACCESS:     158809  HIT:     155416  MISS:       3393
cpu0_L2C PREFETCH  ACCESS:          0  HIT:          0  MISS:          0
cpu0_L2C WRITEBACK ACCESS:     254091  HIT:     254058  MISS:         33
LLC TOTAL     ACCESS:     486741  HIT:     207473  MISS:     279268
LLC LOAD      ACCESS:     440676  HIT:     163242  MISS:     277434
LLC RFO       ACCESS:       3333  HIT:       2224  MISS:       1109
LLC PREFETCH  ACCESS:          0  HIT:          0  MISS:          0
LLC WRITEBACK ACCESS:      41681  HIT:      41156  MISS:        525
Heartbeat CPU 0 instructions: 88000000 cycles: 55270701 heartbeat IPC: 1.02809 cumulative IPC: 1.03335 (Simulation time: 1 hr 37 min 18 sec) 

Region of Interest Statistics
cpu0_DTLB TOTAL     ACCESS:    6976254  HIT:    4188518  MISS:    2787736
cpu0_DTLB LOAD      ACCESS:    4998126  HIT:    2275076  MISS:    2723050
cpu0_DTLB RFO       ACCESS:    1978128  HIT:    1913442  MISS:      64686
cpu0_DTLB PREFETCH  ACCESS:          0  HIT:          0  MISS:          0
cpu0_DTLB WRITEBACK ACCESS:          0  HIT:          0  MISS:          0
cpu0_ITLB TOTAL     ACCESS:     732851  HIT:     732801  MISS:         50
cpu0_ITLB LOAD      ACCESS:     732851  HIT:     732801  MISS:         50
cpu0_ITLB RFO       ACCESS:          0  HIT:          0  MISS:          0
cpu0_ITLB PREFETCH  ACCESS:          0  HIT:          0  MISS:          0
cpu0_ITLB WRITEBACK ACCESS:          0  HIT:          0  MISS:          0
cpu0_L1I TOTAL     ACCESS:    3818440  HIT:    3801596  MISS:      16844
cpu0_L1I LOAD      ACCESS:    3818440  HIT:    3801596  MISS:      16844
cpu0_L1I RFO       ACCESS:          0  HIT:          0  MISS:          0
cpu0_L1I PREFETCH  ACCESS:          0  HIT:          0  MISS:          0
cpu0_L1I WRITEBACK ACCESS:          0  HIT:          0  MISS:          0
cpu0_STLB TOTAL     ACCESS:    2787786  HIT:    2783040  MISS:       4746
cpu0_STLB LOAD      ACCESS:    2723100  HIT:    2718382  MISS:       4718
cpu0_STLB RFO       ACCESS:      64686  HIT:      64658  MISS:         28
cpu0_STLB PREFETCH  ACCESS:          0  HIT:          0  MISS:          0
cpu0_STLB WRITEBACK ACCESS:          0  HIT:          0  MISS:          0
cpu0_L1D TOTAL     ACCESS:   10802582  HIT:    6517697  MISS:    4284885
cpu0_L1D LOAD      ACCESS:    6613212  HIT:    2500281  MISS:    4112931
cpu0_L1D RFO       ACCESS:    4184764  HIT:    4016840  MISS:     167924
cpu0_L1D PREFETCH  ACCESS:          0  HIT:          0  MISS:          0
cpu0_L1D WRITEBACK ACCESS:          0  HIT:          0  MISS:          0
cpu0_L2C TOTAL     ACCESS:    4568949  HIT:    4094746  MISS:     474203
cpu0_L2C LOAD      ACCESS:    4129152  HIT:    3659789  MISS:     469363
cpu0_L2C RFO       ACCESS:     167558  HIT:     163860  MISS:       3698
cpu0_L2C PREFETCH  ACCESS:          0  HIT:          0  MISS:          0
cpu0_L2C WRITEBACK ACCESS:     268209  HIT:     268172  MISS:         37
LLC TOTAL     ACCESS:     517699  HIT:     222428  MISS:     295271
LLC LOAD      ACCESS:     468600  HIT:     175170  MISS:     293430
LLC RFO       ACCESS:       3633  HIT:       2524  MISS:       1109
LLC PREFETCH  ACCESS:          0  HIT:          0  MISS:          0
LLC WRITEBACK ACCESS:      44361  HIT:      43833  MISS:        528
Heartbeat CPU 0 instructions: 90000000 cycles: 57224022 heartbeat IPC: 1.0239 cumulative IPC: 1.03287 (Simulation time: 1 hr 40 min 1 sec) 

Region of Interest Statistics
cpu0_DTLB TOTAL     ACCESS:    7338980  HIT:    4400268  MISS:    2938712
cpu0_DTLB LOAD      ACCESS:    5252987  HIT:    2382383  MISS:    2870604
cpu0_DTLB RFO       ACCESS:    2085993  HIT:    2017885  MISS:      68108
cpu0_DTLB PREFETCH  ACCESS:          0  HIT:          0  MISS:          0
cpu0_DTLB WRITEBACK ACCESS:          0  HIT:          0  MISS:          0
cpu0_ITLB TOTAL     ACCESS:     770853  HIT:     770803  MISS:         50
cpu0_ITLB LOAD      ACCESS:     770853  HIT:     770803  MISS:         50
cpu0_ITLB RFO       ACCESS:          0  HIT:          0  MISS:          0
cpu0_ITLB PREFETCH  ACCESS:          0  HIT:          0  MISS:          0
cpu0_ITLB WRITEBACK ACCESS:          0  HIT:          0  MISS:          0
cpu0_L1I TOTAL     ACCESS:    4019816  HIT:    4002972  MISS:      16844
cpu0_L1I LOAD      ACCESS:    4019816  HIT:    4002972  MISS:      16844
cpu0_L1I RFO       ACCESS:          0  HIT:          0  MISS:          0
cpu0_L1I PREFETCH  ACCESS:          0  HIT:          0  MISS:          0
cpu0_L1I WRITEBACK ACCESS:          0  HIT:          0  MISS:          0
cpu0_STLB TOTAL     ACCESS:    2938762  HIT:    2933766  MISS:       4996
cpu0_STLB LOAD      ACCESS:    2870654  HIT:    2865686  MISS:       4968
cpu0_STLB RFO       ACCESS:      68108  HIT:      68080  MISS:         28
cpu0_STLB PREFETCH  ACCESS:          0  HIT:          0  MISS:          0
cpu0_STLB WRITEBACK ACCESS:          0  HIT:          0  MISS:          0
cpu0_L1D TOTAL     ACCESS:   11362555  HIT:    6846984  MISS:    4515571
cpu0_L1D LOAD      ACCESS:    6949304  HIT:    2614805  MISS:    4334499
cpu0_L1D RFO       ACCESS:    4408395  HIT:    4231586  MISS:     176809
cpu0_L1D PREFETCH  ACCESS:          0  HIT:          0  MISS:          0
cpu0_L1D WRITEBACK ACCESS:          0  HIT:          0  MISS:          0
cpu0_L2C TOTAL     ACCESS:    4813826  HIT:    4315229  MISS:     498597
cpu0_L2C LOAD      ACCESS:    4350691  HIT:    3857122  MISS:     493569
cpu0_L2C RFO       ACCESS:     176424  HIT:     172612  MISS:       3812
cpu0_L2C PREFETCH  ACCESS:          0  HIT:          0  MISS:          0
cpu0_L2C WRITEBACK ACCESS:     282448  HIT:     282410  MISS:         38
LLC TOTAL     ACCESS:     544349  HIT:     233482  MISS:     310867
LLC LOAD      ACCESS:     492803  HIT:     183778  MISS:     309025
LLC RFO       ACCESS:       3745  HIT:       2636  MISS:       1109
LLC PREFETCH  ACCESS:          0  HIT:          0  MISS:          0
LLC WRITEBACK ACCESS:      46623  HIT:      46094  MISS:        529
Heartbeat CPU 0 instructions: 92000002 cycles: 59195533 heartbeat IPC: 1.01445 cumulative IPC: 1.03198 (Simulation time: 1 hr 42 min 47 sec) 

Region of Interest Statistics
cpu0_DTLB TOTAL     ACCESS:    7701038  HIT:    4611562  MISS:    3089476
cpu0_DTLB LOAD      ACCESS:    5507519  HIT:    2489188  MISS:    3018331
cpu0_DTLB RFO       ACCESS:    2193519  HIT:    2122374  MISS:      71145
cpu0_DTLB PREFETCH  ACCESS:          0  HIT:          0  MISS:          0
cpu0_DTLB WRITEBACK ACCESS:          0  HIT:          0  MISS:          0
cpu0_ITLB TOTAL     ACCESS:     808762  HIT:     808712  MISS:         50
cpu0_ITLB LOAD      ACCESS:     808762  HIT:     808712  MISS:         50
cpu0_ITLB RFO       ACCESS:          0  HIT:          0  MISS:          0
cpu0_ITLB PREFETCH  ACCESS:          0  HIT:          0  MISS:          0
cpu0_ITLB WRITEBACK ACCESS:          0  HIT:          0  MISS:          0
cpu0_L1I TOTAL     ACCESS:    4221418  HIT:    4204574  MISS:      16844
cpu0_L1I LOAD      ACCESS:    4221418  HIT:    4204574  MISS:      16844
cpu0_L1I RFO       ACCESS:          0  HIT:          0  MISS:          0
cpu0_L1I PREFETCH  ACCESS:          0  HIT:          0  MISS:          0
cpu0_L1I WRITEBACK ACCESS:          0  HIT:          0  MISS:          0
cpu0_STLB TOTAL     ACCESS:    3089526  HIT:    3084305  MISS:       5221
cpu0_STLB LOAD      ACCESS:    3018381  HIT:    3013188  MISS:       5193
cpu0_STLB RFO       ACCESS:      71145  HIT:      71117  MISS:         28
cpu0_STLB PREFETCH  ACCESS:          0  HIT:          0  MISS:          0
cpu0_STLB WRITEBACK ACCESS:          0  HIT:          0  MISS:          0
cpu0_L1D TOTAL     ACCESS:   11922441  HIT:    7176356  MISS:    4746085
cpu0_L1D LOAD      ACCESS:    7285372  HIT:    2729397  MISS:    4555975
cpu0_L1D RFO       ACCESS:    4631988  HIT:    4446349  MISS:     185639
cpu0_L1D PREFETCH  ACCESS:          0  HIT:          0  MISS:          0
cpu0_L1D WRITEBACK ACCESS:          0  HIT:          0  MISS:          0
cpu0_L2C TOTAL     ACCESS:    5058613  HIT:    4537027  MISS:     521586
cpu0_L2C LOAD      ACCESS:    4572131  HIT:    4055789  MISS:     516342
cpu0_L2C RFO       ACCESS:     185222  HIT:     181225  MISS:       3997
cpu0_L2C PREFETCH  ACCESS:          0  HIT:          0  MISS:          0
cpu0_L2C WRITEBACK ACCESS:     296789  HIT:     296751  MISS:         38
LLC TOTAL     ACCESS:     569496  HIT:     242595  MISS:     326901
LLC LOAD      ACCESS:     515539  HIT:     190483  MISS:     325056
LLC RFO       ACCESS:       3922  HIT:       2813  MISS:       1109
LLC PREFETCH  ACCESS:          0  HIT:          0  MISS:          0
LLC WRITEBACK ACCESS:      48826  HIT:      48294  MISS:        532
Heartbeat CPU 0 instructions: 94000004 cycles: 61142784 heartbeat IPC: 1.02709 cumulative IPC: 1.03176 (Simulation time: 1 hr 45 min 26 sec) 

Region of Interest Statistics
cpu0_DTLB TOTAL     ACCESS:    8062412  HIT:    4822223  MISS:    3240189
cpu0_DTLB LOAD      ACCESS:    5761815  HIT:    2595933  MISS:    3165882
cpu0_DTLB RFO       ACCESS:    2300597  HIT:    2226290  MISS:      74307
cpu0_DTLB PREFETCH  ACCESS:          0  HIT:          0  MISS:          0
cpu0_DTLB WRITEBACK ACCESS:          0  HIT:          0  MISS:          0
cpu0_ITLB TOTAL     ACCESS:     846698  HIT:     846648  MISS:         50
cpu0_ITLB LOAD      ACCESS:     846698  HIT:     846648  MISS:         50
cpu0_ITLB RFO       ACCESS:          0  HIT:          0  MISS:          0
cpu0_ITLB PREFETCH  ACCESS:          0  HIT:          0  MISS:          0
cpu0_ITLB WRITEBACK ACCESS:          0  HIT:          0  MISS:          0
cpu0_L1I TOTAL     ACCESS:    4422701  HIT:    4405857  MISS:      16844
cpu0_L1I LOAD      ACCESS:    4422701  HIT:    4405857  MISS:      16844
cpu0_L1I RFO       ACCESS:          0  HIT:          0  MISS:          0
cpu0_L1I PREFETCH  ACCESS:          0  HIT:          0  MISS:          0
cpu0_L1I WRITEBACK ACCESS:          0  HIT:          0  MISS:          0
cpu0_STLB TOTAL     ACCESS:    3240239  HIT:    3234768  MISS:       5471
cpu0_STLB LOAD      ACCESS:    3165932  HIT:    3160489  MISS:       5443
cpu0_STLB RFO       ACCESS:      74307  HIT:      74279  MISS:         28
cpu0_STLB PREFETCH  ACCESS:          0  HIT:          0  MISS:          0
cpu0_STLB WRITEBACK ACCESS:          0  HIT:          0  MISS:          0
cpu0_L1D TOTAL     ACCESS:   12482251  HIT:    7505922  MISS:    4976329
cpu0_L1D LOAD      ACCESS:    7621381  HIT:    2843994  MISS:    4777387
cpu0_L1D RFO       ACCESS:    4855539  HIT:    4661293  MISS:     194246
cpu0_L1D PREFETCH  ACCESS:          0  HIT:          0  MISS:          0
cpu0_L1D WRITEBACK ACCESS:          0  HIT:          0  MISS:          0
cpu0_L2C TOTAL     ACCESS:    5303033  HIT:    4757306  MISS:     545727
cpu0_L2C LOAD      ACCESS:    4793517  HIT:    4253129  MISS:     540388
cpu0_L2C RFO       ACCESS:     193816  HIT:     189756  MISS:       4060
cpu0_L2C PREFETCH  ACCESS:          0  HIT:          0  MISS:          0
cpu0_L2C WRITEBACK ACCESS:     311004  HIT:     310966  MISS:         38
LLC TOTAL     ACCESS:     595754  HIT:     252934  MISS:     342820
LLC LOAD      ACCESS:     539574  HIT:     198604  MISS:     340970
LLC RFO       ACCESS:       3979  HIT:       2868  MISS:       1111
LLC PREFETCH  ACCESS:          0  HIT:          0  MISS:          0
LLC WRITEBACK ACCESS:      50960  HIT:      50428  MISS:        532
Heartbeat CPU 0 instructions: 96000001 cycles: 63090420 heartbeat IPC: 1.02688 cumulative IPC: 1.03155 (Simulation time: 1 hr 48 min 9 sec) 

Region of Interest Statistics
cpu0_DTLB TOTAL     ACCESS:    8423839  HIT:    5032911  MISS:    3390928
cpu0_DTLB LOAD      ACCESS:    6016930  HIT:    2703356  MISS:    3313574
cpu0_DTLB RFO       ACCESS:    2406909  HIT:    2329555  MISS:      77354
cpu0_DTLB PREFETCH  ACCESS:          0  HIT:          0  MISS:          0
cpu0_DTLB WRITEBACK ACCESS:          0  HIT:          0  MISS:          0
cpu0_ITLB TOTAL     ACCESS:     884522  HIT:     884472  MISS:         50
cpu0_ITLB LOAD      ACCESS:     884522  HIT:     884472  MISS:         50
cpu0_ITLB RFO       ACCESS:          0  HIT:          0  MISS:          0
cpu0_ITLB PREFETCH  ACCESS:          0  HIT:          0  MISS:          0
cpu0_ITLB WRITEBACK ACCESS:          0  HIT:          0  MISS:          0
cpu0_L1I TOTAL     ACCESS:    4624149  HIT:    4607305  MISS:      16844
cpu0_L1I LOAD      ACCESS:    4624149  HIT:    4607305  MISS:      16844
cpu0_L1I RFO       ACCESS:          0  HIT:          0  MISS:          0
cpu0_L1I PREFETCH  ACCESS:          0  HIT:          0  MISS:          0
cpu0_L1I WRITEBACK ACCESS:          0  HIT:          0  MISS:          0
cpu0_STLB TOTAL     ACCESS:    3390978  HIT:    3385282  MISS:       5696
cpu0_STLB LOAD      ACCESS:    3313624  HIT:    3307956  MISS:       5668
cpu0_STLB RFO       ACCESS:      77354  HIT:      77326  MISS:         28
cpu0_STLB PREFETCH  ACCESS:          0  HIT:          0  MISS:          0
cpu0_STLB WRITEBACK ACCESS:          0  HIT:          0  MISS:          0
cpu0_L1D TOTAL     ACCESS:   13042138  HIT:    7835527  MISS:    5206611
cpu0_L1D LOAD      ACCESS:    7957493  HIT:    2958561  MISS:    4998932
cpu0_L1D RFO       ACCESS:    5079089  HIT:    4876313  MISS:     202776
cpu0_L1D PREFETCH  ACCESS:          0  HIT:          0  MISS:          0
cpu0_L1D WRITEBACK ACCESS:          0  HIT:          0  MISS:          0
cpu0_L2C TOTAL     ACCESS:    5547548  HIT:    4975889  MISS:     571659
cpu0_L2C LOAD      ACCESS:    5015031  HIT:    4448931  MISS:     566100
cpu0_L2C RFO       ACCESS:     202333  HIT:     198105  MISS:       4228
cpu0_L2C PREFETCH  ACCESS:          0  HIT:          0  MISS:          0
cpu0_L2C WRITEBACK ACCESS:     325281  HIT:     325242  MISS:         39
LLC TOTAL     ACCESS:     623963  HIT:     265578  MISS:     358385
LLC LOAD      ACCESS:     565266  HIT:     208744  MISS:     356522
LLC RFO       ACCESS:       4137  HIT:       3024  MISS:       1113
LLC PREFETCH  ACCESS:          0  HIT:          0  MISS:          0
LLC WRITEBACK ACCESS:      53268  HIT:      52736  MISS:        532
Heartbeat CPU 0 instructions: 98000003 cycles: 65048545 heartbeat IPC: 1.02139 cumulative IPC: 1.03112 (Simulation time: 1 hr 50 min 40 sec) 

Region of Interest Statistics
cpu0_DTLB TOTAL     ACCESS:    8785646  HIT:    5243838  MISS:    3541808
cpu0_DTLB LOAD      ACCESS:    6271156  HIT:    2810153  MISS:    3461003
cpu0_DTLB RFO       ACCESS:    2514490  HIT:    2433685  MISS:      80805
cpu0_DTLB PREFETCH  ACCESS:          0  HIT:          0  MISS:          0
cpu0_DTLB WRITEBACK ACCESS:          0  HIT:          0  MISS:          0
cpu0_ITLB TOTAL     ACCESS:     922425  HIT:     922375  MISS:         50
cpu0_ITLB LOAD      ACCESS:     922425  HIT:     922375  MISS:         50
cpu0_ITLB RFO       ACCESS:          0  HIT:          0  MISS:          0
cpu0_ITLB PREFETCH  ACCESS:          0  HIT:          0  MISS:          0
cpu0_ITLB WRITEBACK ACCESS:          0  HIT:          0  MISS:          0
cpu0_L1I TOTAL     ACCESS:    4825749  HIT:    4808905  MISS:      16844
cpu0_L1I LOAD      ACCESS:    4825749  HIT:    4808905  MISS:      16844
cpu0_L1I RFO       ACCESS:          0  HIT:          0  MISS:          0
cpu0_L1I PREFETCH  ACCESS:          0  HIT:          0  MISS:          0
cpu0_L1I WRITEBACK ACCESS:          0  HIT:          0  MISS:          0
cpu0_STLB TOTAL     ACCESS:    3541858  HIT:    3535912  MISS:       5946
cpu0_STLB LOAD      ACCESS:    3461053  HIT:    3455135  MISS:       5918
cpu0_STLB RFO       ACCESS:      80805  HIT:      80777  MISS:         28
cpu0_STLB PREFETCH  ACCESS:          0  HIT:          0  MISS:          0
cpu0_STLB WRITEBACK ACCESS:          0  HIT:          0  MISS:          0
cpu0_L1D TOTAL     ACCESS:   13602018  HIT:    8165056  MISS:    5436962
cpu0_L1D LOAD      ACCESS:    8293590  HIT:    3073148  MISS:    5220442
cpu0_L1D RFO       ACCESS:    5302622  HIT:    5091230  MISS:     211392
cpu0_L1D PREFETCH  ACCESS:          0  HIT:          0  MISS:          0
cpu0_L1D WRITEBACK ACCESS:          0  HIT:          0  MISS:          0
cpu0_L2C TOTAL     ACCESS:    5791971  HIT:    5197320  MISS:     594651
cpu0_L2C LOAD      ACCESS:    5236520  HIT:    4647560  MISS:     588960
cpu0_L2C RFO       ACCESS:     210926  HIT:     206629  MISS:       4297
cpu0_L2C PREFETCH  ACCESS:          0  HIT:          0  MISS:          0
cpu0_L2C WRITEBACK ACCESS:     339397  HIT:     339356  MISS:         41
LLC TOTAL     ACCESS:     648894  HIT:     275043  MISS:     373851
LLC LOAD      ACCESS:     588119  HIT:     216148  MISS:     371971
LLC RFO       ACCESS:       4206  HIT:       3093  MISS:       1113
LLC PREFETCH  ACCESS:          0  HIT:          0  MISS:          0
LLC WRITEBACK ACCESS:      55216  HIT:      54678  MISS:        538
Heartbeat CPU 0 instructions: 100000002 cycles: 67016155 heartbeat IPC: 1.01646 cumulative IPC: 1.03052 (Simulation time: 1 hr 53 min 27 sec) 

Region of Interest Statistics
cpu0_DTLB TOTAL     ACCESS:    9146817  HIT:    5454033  MISS:    3692784
cpu0_DTLB LOAD      ACCESS:    6525169  HIT:    2916476  MISS:    3608693
cpu0_DTLB RFO       ACCESS:    2621648  HIT:    2537557  MISS:      84091
cpu0_DTLB PREFETCH  ACCESS:          0  HIT:          0  MISS:          0
cpu0_DTLB WRITEBACK ACCESS:          0  HIT:          0  MISS:          0
cpu0_ITLB TOTAL     ACCESS:     960363  HIT:     960313  MISS:         50
cpu0_ITLB LOAD      ACCESS:     960363  HIT:     960313  MISS:         50
cpu0_ITLB RFO       ACCESS:          0  HIT:          0  MISS:          0
cpu0_ITLB PREFETCH  ACCESS:          0  HIT:          0  MISS:          0
cpu0_ITLB WRITEBACK ACCESS:          0  HIT:          0  MISS:          0
cpu0_L1I TOTAL     ACCESS:    5027359  HIT:    5010515  MISS:      16844
cpu0_L1I LOAD      ACCESS:    5027359  HIT:    5010515  MISS:      16844
cpu0_L1I RFO       ACCESS:          0  HIT:          0  MISS:          0
cpu0_L1I PREFETCH  ACCESS:          0  HIT:          0  MISS:          0
cpu0_L1I WRITEBACK ACCESS:          0  HIT:          0  MISS:          0
cpu0_STLB TOTAL     ACCESS:    3692834  HIT:    3686638  MISS:       6196
cpu0_STLB LOAD      ACCESS:    3608743  HIT:    3602575  MISS:       6168
cpu0_STLB RFO       ACCESS:      84091  HIT:      84063  MISS:         28
cpu0_STLB PREFETCH  ACCESS:          0  HIT:          0  MISS:          0
cpu0_STLB WRITEBACK ACCESS:          0  HIT:          0  MISS:          0
cpu0_L1D TOTAL     ACCESS:   14161966  HIT:    8494761  MISS:    5667205
cpu0_L1D LOAD      ACCESS:    8629932  HIT:    3187980  MISS:    5441952
cpu0_L1D RFO       ACCESS:    5525978  HIT:    5306086  MISS:     219892
cpu0_L1D PREFETCH  ACCESS:          0  HIT:          0  MISS:          0
cpu0_L1D WRITEBACK ACCESS:          0  HIT:          0  MISS:          0
cpu0_L2C TOTAL     ACCESS:    6036121  HIT:    5417233  MISS:     618888
cpu0_L2C LOAD      ACCESS:    5457983  HIT:    4844984  MISS:     612999
cpu0_L2C RFO       ACCESS:     219410  HIT:     215030  MISS:       4380
cpu0_L2C PREFETCH  ACCESS:          0  HIT:          0  MISS:          0
cpu0_L2C WRITEBACK ACCESS:     353367  HIT:     353326  MISS:         41
LLC TOTAL     ACCESS:     675377  HIT:     285772  MISS:     389605
LLC LOAD      ACCESS:     612149  HIT:     224434  MISS:     387715
LLC RFO       ACCESS:       4289  HIT:       3176  MISS:       1113
LLC PREFETCH  ACCESS:          0  HIT:          0  MISS:          0
LLC WRITEBACK ACCESS:      57471  HIT:      56930  MISS:        541
Heartbeat CPU 0 instructions: 102000002 cycles: 68968808 heartbeat IPC: 1.02425 cumulative IPC: 1.03028 (Simulation time: 1 hr 56 min 5 sec) 

Region of Interest Statistics
cpu0_DTLB TOTAL     ACCESS:    9508409  HIT:    5664907  MISS:    3843502
cpu0_DTLB LOAD      ACCESS:    6781686  HIT:    3025370  MISS:    3756316
cpu0_DTLB RFO       ACCESS:    2726723  HIT:    2639537  MISS:      87186
cpu0_DTLB PREFETCH  ACCESS:          0  HIT:          0  MISS:          0
cpu0_DTLB WRITEBACK ACCESS:          0  HIT:          0  MISS:          0
cpu0_ITLB TOTAL     ACCESS:     998402  HIT:     998352  MISS:         50
cpu0_ITLB LOAD      ACCESS:     998402  HIT:     998352  MISS:         50
cpu0_ITLB RFO       ACCESS:          0  HIT:          0  MISS:          0
cpu0_ITLB PREFETCH  ACCESS:          0  HIT:          0  MISS:          0
cpu0_ITLB WRITEBACK ACCESS:          0  HIT:          0  MISS:          0
cpu0_L1I TOTAL     ACCESS:    5228160  HIT:    5211316  MISS:      16844
cpu0_L1I LOAD      ACCESS:    5228160  HIT:    5211316  MISS:      16844
cpu0_L1I RFO       ACCESS:          0  HIT:          0  MISS:          0
cpu0_L1I PREFETCH  ACCESS:          0  HIT:          0  MISS:          0
cpu0_L1I WRITEBACK ACCESS:          0  HIT:          0  MISS:          0
cpu0_STLB TOTAL     ACCESS:    3843552  HIT:    3837156  MISS:       6396
cpu0_STLB LOAD      ACCESS:    3756366  HIT:    3749998  MISS:       6368
cpu0_STLB RFO       ACCESS:      87186  HIT:      87158  MISS:         28
cpu0_STLB PREFETCH  ACCESS:          0  HIT:          0  MISS:          0
cpu0_STLB WRITEBACK ACCESS:          0  HIT:          0  MISS:          0
cpu0_L1D TOTAL     ACCESS:   14721543  HIT:    8824883  MISS:    5896660
cpu0_L1D LOAD      ACCESS:    8966036  HIT:    3302739  MISS:    5663297
cpu0_L1D RFO       ACCESS:    5749251  HIT:    5521432  MISS:     227819
cpu0_L1D PREFETCH  ACCESS:          0  HIT:          0  MISS:          0
cpu0_L1D WRITEBACK ACCESS:          0  HIT:          0  MISS:          0
cpu0_L2C TOTAL     ACCESS:    6279430  HIT:    5632118  MISS:     647312
cpu0_L2C LOAD      ACCESS:    5679303  HIT:    5038247  MISS:     641056
cpu0_L2C RFO       ACCESS:     227301  HIT:     222629  MISS:       4672
cpu0_L2C PREFETCH  ACCESS:          0  HIT:          0  MISS:          0
cpu0_L2C WRITEBACK ACCESS:     367282  HIT:     367241  MISS:         41
LLC TOTAL     ACCESS:     706663  HIT:     301560  MISS:     405103
LLC LOAD      ACCESS:     639974  HIT:     236770  MISS:     403204
LLC RFO       ACCESS:       4565  HIT:       3452  MISS:       1113
LLC PREFETCH  ACCESS:          0  HIT:          0  MISS:          0
LLC WRITEBACK ACCESS:      60581  HIT:      60031  MISS:        550
Heartbeat CPU 0 instructions: 104000001 cycles: 70916865 heartbeat IPC: 1.02666 cumulative IPC: 1.03015 (Simulation time: 1 hr 58 min 53 sec) 

Region of Interest Statistics
cpu0_DTLB TOTAL     ACCESS:    9869857  HIT:    5875521  MISS:    3994336
cpu0_DTLB LOAD      ACCESS:    7038392  HIT:    3134210  MISS:    3904182
cpu0_DTLB RFO       ACCESS:    2831465  HIT:    2741311  MISS:      90154
cpu0_DTLB PREFETCH  ACCESS:          0  HIT:          0  MISS:          0
cpu0_DTLB WRITEBACK ACCESS:          0  HIT:          0  MISS:          0
cpu0_ITLB TOTAL     ACCESS:    1036285  HIT:    1036235  MISS:         50
cpu0_ITLB LOAD      ACCESS:    1036285  HIT:    1036235  MISS:         50
cpu0_ITLB RFO       ACCESS:          0  HIT:          0  MISS:          0
cpu0_ITLB PREFETCH  ACCESS:          0  HIT:          0  MISS:          0
cpu0_ITLB WRITEBACK ACCESS:          0  HIT:          0  MISS:          0
cpu0_L1I TOTAL     ACCESS:    5429469  HIT:    5412625  MISS:      16844
cpu0_L1I LOAD      ACCESS:    5429469  HIT:    5412625  MISS:      16844
cpu0_L1I RFO       ACCESS:          0  HIT:          0  MISS:          0
cpu0_L1I PREFETCH  ACCESS:          0  HIT:          0  MISS:          0
cpu0_L1I WRITEBACK ACCESS:          0  HIT:          0  MISS:          0
cpu0_STLB TOTAL     ACCESS:    3994387  HIT:    3987741  MISS:       6646
cpu0_STLB LOAD      ACCESS:    3904233  HIT:    3897615  MISS:       6618
cpu0_STLB RFO       ACCESS:      90154  HIT:      90126  MISS:         28
cpu0_STLB PREFETCH  ACCESS:          0  HIT:          0  MISS:          0
cpu0_STLB WRITEBACK ACCESS:          0  HIT:          0  MISS:          0
cpu0_L1D TOTAL     ACCESS:   15282082  HIT:    9154852  MISS:    6127230
cpu0_L1D LOAD      ACCESS:    9302605  HIT:    3417767  MISS:    5884838
cpu0_L1D RFO       ACCESS:    5972971  HIT:    5736353  MISS:     236618
cpu0_L1D PREFETCH  ACCESS:          0  HIT:          0  MISS:          0
cpu0_L1D WRITEBACK ACCESS:          0  HIT:          0  MISS:          0
cpu0_L2C TOTAL     ACCESS:    6524279  HIT:    5846687  MISS:     677592
cpu0_L2C LOAD      ACCESS:    5900810  HIT:    5229940  MISS:     670870
cpu0_L2C RFO       ACCESS:     236079  HIT:     231026  MISS:       5053
cpu0_L2C PREFETCH  ACCESS:          0  HIT:          0  MISS:          0
cpu0_L2C WRITEBACK ACCESS:     381616  HIT:     381574  MISS:         42
LLC TOTAL     ACCESS:     739837  HIT:     319016  MISS:     420821
LLC LOAD      ACCESS:     669676  HIT:     250765  MISS:     418911
LLC RFO       ACCESS:       4946  HIT:       3833  MISS:       1113
LLC PREFETCH  ACCESS:          0  HIT:          0  MISS:          0
LLC WRITEBACK ACCESS:      63588  HIT:      63030  MISS:        558
Heartbeat CPU 0 instructions: 106000000 cycles: 72869260 heartbeat IPC: 1.02438 cumulative IPC: 1.02994 (Simulation time: 2 hr 1 min 36 sec) 

Region of Interest Statistics
cpu0_DTLB TOTAL     ACCESS:   10230917  HIT:    6085827  MISS:    4145090
cpu0_DTLB LOAD      ACCESS:    7294173  HIT:    3242141  MISS:    4052032
cpu0_DTLB RFO       ACCESS:    2936744  HIT:    2843686  MISS:      93058
cpu0_DTLB PREFETCH  ACCESS:          0  HIT:          0  MISS:          0
cpu0_DTLB WRITEBACK ACCESS:          0  HIT:          0  MISS:          0
cpu0_ITLB TOTAL     ACCESS:    1074205  HIT:    1074155  MISS:         50
cpu0_ITLB LOAD      ACCESS:    1074205  HIT:    1074155  MISS:         50
cpu0_ITLB RFO       ACCESS:          0  HIT:          0  MISS:          0
cpu0_ITLB PREFETCH  ACCESS:          0  HIT:          0  MISS:          0
cpu0_ITLB WRITEBACK ACCESS:          0  HIT:          0  MISS:          0
cpu0_L1I TOTAL     ACCESS:    5630507  HIT:    5613663  MISS:      16844
cpu0_L1I LOAD      ACCESS:    5630507  HIT:    5613663  MISS:      16844
cpu0_L1I RFO       ACCESS:          0  HIT:          0  MISS:          0
cpu0_L1I PREFETCH  ACCESS:          0  HIT:          0  MISS:          0
cpu0_L1I WRITEBACK ACCESS:          0  HIT:          0  MISS:          0
cpu0_STLB TOTAL     ACCESS:    4145140  HIT:    4138244  MISS:       6896
cpu0_STLB LOAD      ACCESS:    4052082  HIT:    4045214  MISS:       6868
cpu0_STLB RFO       ACCESS:      93058  HIT:      93030  MISS:         28
cpu0_STLB PREFETCH  ACCESS:          0  HIT:          0  MISS:          0
cpu0_STLB WRITEBACK ACCESS:          0  HIT:          0  MISS:          0
cpu0_L1D TOTAL     ACCESS:   15841898  HIT:    9484385  MISS:    6357513
cpu0_L1D LOAD      ACCESS:    9638988  HIT:    3532533  MISS:    6106455
cpu0_L1D RFO       ACCESS:    6196154  HIT:    5951097  MISS:     245057
cpu0_L1D PREFETCH  ACCESS:          0  HIT:          0  MISS:          0
cpu0_L1D WRITEBACK ACCESS:          0  HIT:          0  MISS:          0
cpu0_L2C TOTAL     ACCESS:    6768580  HIT:    6061486  MISS:     707094
cpu0_L2C LOAD      ACCESS:    6122382  HIT:    5422328  MISS:     700054
cpu0_L2C RFO       ACCESS:     244508  HIT:     239191  MISS:       5317
cpu0_L2C PREFETCH  ACCESS:          0  HIT:          0  MISS:          0
cpu0_L2C WRITEBACK ACCESS:     395689  HIT:     395647  MISS:         42
[...]
Heartbeat CPU 0 instructions: 1550000001 cycles: 1485343544 heartbeat IPC: 1.02981 cumulative IPC: 1.0226 (Simulation time: 22 hr 55 min 38 sec) 

Region of Interest Statistics
cpu0_DTLB TOTAL     ACCESS:  271227909  HIT:  158203744  MISS:  113024165
cpu0_DTLB LOAD      ACCESS:  191507497  HIT:   80850903  MISS:  110656594
cpu0_DTLB RFO       ACCESS:   79720412  HIT:   77352841  MISS:    2367571
cpu0_DTLB PREFETCH  ACCESS:          0  HIT:          0  MISS:          0
cpu0_DTLB WRITEBACK ACCESS:          0  HIT:          0  MISS:          0
cpu0_ITLB TOTAL     ACCESS:   28472450  HIT:   28472400  MISS:         50
cpu0_ITLB LOAD      ACCESS:   28472450  HIT:   28472400  MISS:         50
cpu0_ITLB RFO       ACCESS:          0  HIT:          0  MISS:          0
cpu0_ITLB PREFETCH  ACCESS:          0  HIT:          0  MISS:          0
cpu0_ITLB WRITEBACK ACCESS:          0  HIT:          0  MISS:          0
cpu0_L1I TOTAL     ACCESS:  150965805  HIT:  150948961  MISS:      16844
cpu0_L1I LOAD      ACCESS:  150965805  HIT:  150948961  MISS:      16844
cpu0_L1I RFO       ACCESS:          0  HIT:          0  MISS:          0
cpu0_L1I PREFETCH  ACCESS:          0  HIT:          0  MISS:          0
cpu0_L1I WRITEBACK ACCESS:          0  HIT:          0  MISS:          0
cpu0_STLB TOTAL     ACCESS:  113024216  HIT:  112841181  MISS:     183035
cpu0_STLB LOAD      ACCESS:  110656645  HIT:  110473640  MISS:     183005
cpu0_STLB RFO       ACCESS:    2367571  HIT:    2367541  MISS:         30
cpu0_STLB PREFETCH  ACCESS:          0  HIT:          0  MISS:          0
cpu0_STLB WRITEBACK ACCESS:          0  HIT:          0  MISS:          0
cpu0_L1D TOTAL     ACCESS:  420130567  HIT:  247483495  MISS:  172647072
cpu0_L1D LOAD      ACCESS:  252386965  HIT:   86369053  MISS:  166017912
cpu0_L1D RFO       ACCESS:  167562715  HIT:  161095977  MISS:    6466738
cpu0_L1D PREFETCH  ACCESS:          0  HIT:          0  MISS:          0
cpu0_L1D WRITEBACK ACCESS:          0  HIT:          0  MISS:          0
cpu0_L2C TOTAL     ACCESS:  183238585  HIT:  163925349  MISS:   19313236
cpu0_L2C LOAD      ACCESS:  166010419  HIT:  146905018  MISS:   19105401
cpu0_L2C RFO       ACCESS:    6451736  HIT:    6289503  MISS:     162233
cpu0_L2C PREFETCH  ACCESS:          0  HIT:          0  MISS:          0
cpu0_L2C WRITEBACK ACCESS:   10614008  HIT:   10613122  MISS:        886
LLC TOTAL     ACCESS:   21100308  HIT:    9194803  MISS:   11905505
LLC LOAD      ACCESS:   19057658  HIT:    7165354  MISS:   11892304
LLC RFO       ACCESS:     156845  HIT:     155612  MISS:       1233
LLC PREFETCH  ACCESS:          0  HIT:          0  MISS:          0
LLC WRITEBACK ACCESS:    1841089  HIT:    1835988  MISS:       5101
Finished CPU 0 instructions: 1500000000 cycles: 1466846402 cumulative IPC: 1.0226 (Simulation time: 22 hr 55 min 38 sec) 

ChampSim completed all CPUs

Region of Interest Statistics

CPU 0 cumulative IPC: 1.0226 instructions: 1500000000 cycles: 1466846402
cpu0_DTLB TOTAL     ACCESS:  271227910  HIT:  158203744  MISS:  113024166
cpu0_DTLB LOAD      ACCESS:  191507498  HIT:   80850903  MISS:  110656595
cpu0_DTLB RFO       ACCESS:   79720412  HIT:   77352841  MISS:    2367571
cpu0_DTLB PREFETCH  ACCESS:          0  HIT:          0  MISS:          0
cpu0_DTLB WRITEBACK ACCESS:          0  HIT:          0  MISS:          0
cpu0_DTLB TRANSLATION ACCESS:          0  HIT:          0  MISS:          0
cpu0_DTLB PREFETCH  REQUESTED:          0  ISSUED:          0  USEFUL:          0  USELESS:          0
cpu0_DTLB AVERAGE MISS LATENCY: 9.91475 cycles
cpu0_ITLB TOTAL     ACCESS:   28472450  HIT:   28472400  MISS:         50
cpu0_ITLB LOAD      ACCESS:   28472450  HIT:   28472400  MISS:         50
cpu0_ITLB RFO       ACCESS:          0  HIT:          0  MISS:          0
cpu0_ITLB PREFETCH  ACCESS:          0  HIT:          0  MISS:          0
cpu0_ITLB WRITEBACK ACCESS:          0  HIT:          0  MISS:          0
cpu0_ITLB TRANSLATION ACCESS:          0  HIT:          0  MISS:          0
cpu0_ITLB PREFETCH  REQUESTED:          0  ISSUED:          0  USEFUL:          0  USELESS:          0
cpu0_ITLB AVERAGE MISS LATENCY: 237.6 cycles
cpu0_L1I TOTAL     ACCESS:  150965805  HIT:  150948961  MISS:      16844
cpu0_L1I LOAD      ACCESS:  150965805  HIT:  150948961  MISS:      16844
cpu0_L1I RFO       ACCESS:          0  HIT:          0  MISS:          0
cpu0_L1I PREFETCH  ACCESS:          0  HIT:          0  MISS:          0
cpu0_L1I WRITEBACK ACCESS:          0  HIT:          0  MISS:          0
cpu0_L1I TRANSLATION ACCESS:          0  HIT:          0  MISS:          0
cpu0_L1I PREFETCH  REQUESTED:          0  ISSUED:          0  USEFUL:          0  USELESS:          0
cpu0_L1I AVERAGE MISS LATENCY: 24.2242 cycles
cpu0_STLB TOTAL     ACCESS:  113024216  HIT:  112841181  MISS:     183035
cpu0_STLB LOAD      ACCESS:  110656645  HIT:  110473640  MISS:     183005
cpu0_STLB RFO       ACCESS:    2367571  HIT:    2367541  MISS:         30
cpu0_STLB PREFETCH  ACCESS:          0  HIT:          0  MISS:          0
cpu0_STLB WRITEBACK ACCESS:          0  HIT:          0  MISS:          0
cpu0_STLB TRANSLATION ACCESS:          0  HIT:          0  MISS:          0
cpu0_STLB PREFETCH  REQUESTED:          0  ISSUED:          0  USEFUL:          0  USELESS:          0
cpu0_STLB AVERAGE MISS LATENCY: 274.696 cycles
cpu0_L1D TOTAL     ACCESS:  420130567  HIT:  247483495  MISS:  172647072
cpu0_L1D LOAD      ACCESS:  252386965  HIT:   86369053  MISS:  166017912
cpu0_L1D RFO       ACCESS:  167562715  HIT:  161095977  MISS:    6466738
cpu0_L1D PREFETCH  ACCESS:          0  HIT:          0  MISS:          0
cpu0_L1D WRITEBACK ACCESS:          0  HIT:          0  MISS:          0
cpu0_L1D TRANSLATION ACCESS:     180887  HIT:      18465  MISS:     162422
cpu0_L1D PREFETCH  REQUESTED:          0  ISSUED:          0  USEFUL:          0  USELESS:          0
cpu0_L1D AVERAGE MISS LATENCY: 81.0929 cycles
cpu0_L2C TOTAL     ACCESS:  183238585  HIT:  163925349  MISS:   19313236
cpu0_L2C LOAD      ACCESS:  166010419  HIT:  146905018  MISS:   19105401
cpu0_L2C RFO       ACCESS:    6451736  HIT:    6289503  MISS:     162233
cpu0_L2C PREFETCH  ACCESS:          0  HIT:          0  MISS:          0
cpu0_L2C WRITEBACK ACCESS:   10614008  HIT:   10613122  MISS:        886
cpu0_L2C TRANSLATION ACCESS:     162422  HIT:     117706  MISS:      44716
cpu0_L2C PREFETCH  REQUESTED:          0  ISSUED:          0  USEFUL:          0  USELESS:          0
cpu0_L2C AVERAGE MISS LATENCY: 607.984 cycles
LLC TOTAL     ACCESS:   21100308  HIT:    9194803  MISS:   11905505
LLC LOAD      ACCESS:   19057658  HIT:    7165354  MISS:   11892304
LLC RFO       ACCESS:     156845  HIT:     155612  MISS:       1233
LLC PREFETCH  ACCESS:          0  HIT:          0  MISS:          0
LLC WRITEBACK ACCESS:    1841089  HIT:    1835988  MISS:       5101
LLC TRANSLATION ACCESS:      44716  HIT:      37849  MISS:       6867
LLC PREFETCH  REQUESTED:          0  ISSUED:          0  USEFUL:          0  USELESS:          0
LLC AVERAGE MISS LATENCY: 952.302 cycles
~~~~~~~~~~Reuse Distance Profiler output~~~~~~~~~~
0	57731824	1148992
1	33921344	2503872
2	15272992	4016912
3	8860672	4010352
4	9096544	4925152
5	7163152	3476080
6	7172704	3601728
7	6304464	3755392
8	4075808	2803232
9	3684544	2927408
10	2557648	1964304
11	2262112	1492032
12	2466176	1672512
13	2691120	1470576
14	2635392	1175408
15	2572112	1004096
16	2451152	1536976
17	2111936	1053312
18	2834832	1674048
19	2982720	1508336
20	2493728	1337728
21	1984512	1219488
22	1799120	1287568
23	1267984	866736
24	1213440	840896
25	987904	668000
26	881056	635136
27	1111600	772704
28	1058192	638832
29	1100080	641376
30	936336	598224
31	847504	595152
32	1020160	743200
33	940624	638960
34	961680	487952
35	744992	388880
36	892656	403264
37	847664	414176
38	747168	306432
39	787136	382896
40	805088	415888
41	885600	466800
42	824448	361504
43	861456	522592
44	948000	515424
45	845280	491712
46	879152	424928
47	927232	488288
48	895872	498352
49	988864	510112
50	857472	472432
51	733264	384416
52	651440	329552
53	533632	261616
54	571392	319376
55	618496	321456
56	507024	266320
57	480880	234096
58	452032	230992
59	525664	298336
60	599328	415456
61	552016	356272
62	470672	287152
63	616592	342096
64	1264976	728944
66	1484880	746176
68	992320	454064
70	1041184	378768
72	968128	467312
74	919696	505408
76	847456	407632
78	699648	253920
80	615072	214416
82	598544	244272
84	667040	283472
86	611984	337280
88	629984	420400
90	502416	249520
92	535776	222800
94	650512	222752
96	451120	198256
98	387072	177520
100	426080	254320
102	568768	265104
104	517632	240192
106	668768	340544
108	736784	422976
110	493552	273584
112	502288	279280
114	350480	183696
116	321104	141712
118	361232	141376
120	299136	139840
122	347680	252336
124	288512	172928
126	228896	172976
128	511552	238608
132	317248	176544
136	428864	281248
140	288592	176384
144	269872	167664
148	273072	176880
152	259616	203984
156	181680	131216
160	291216	223248
164	368720	282304
168	394928	299776
172	282208	199936
176	356368	253808
180	346016	274304
184	285184	239712
188	251440	195584
192	264768	148336
196	218960	116576
200	216976	105536
204	231632	131328
208	300256	217440
212	301360	237744
216	209264	143440
220	178944	118288
224	234128	169712
228	282912	186208
232	339344	213600
236	360496	264064
240	451968	355968
244	345072	241632
248	324240	232384
252	226848	136080
256	447968	248736
264	488672	291952
272	476992	229824
280	628464	345408
288	531680	321552
296	593808	392000
304	824592	608320
312	667728	434000
320	700624	391488
328	739488	409088
336	779472	450016
344	627984	427024
352	598944	424832
360	405792	318672
368	410896	323408
376	609072	542208
384	295280	263376
392	365456	347696
400	307792	298336
408	269136	261344
416	262704	246240
424	260032	186224
432	258864	115824
440	304592	97936
448	360592	97680
456	247264	36320
464	128096	3296
472	104576	5072
480	112784	4880
488	57808	7312
496	26608	2080
504	6944	112
512	6464	3040
528	32608	26176
544	66512	25024
560	279232	64592
576	638928	184928
592	776880	264432
608	1005840	362384
624	1016880	349440
640	549504	215776
656	424352	253616
672	175696	91120
688	126544	113888
704	186032	178576
720	444864	444768
736	432000	431920
752	194624	194528
768	54768	54608
784	11808	11600
800	120176	120112
816	249920	249856
832	388544	387904
848	211104	205872
864	1007408	1003632
880	3893424	3873200
896	8931040	8667408
912	19873008	19011792
928	33418384	32574272
944	41204320	41001152
960	30990320	30969472
976	7307040	7301248
992	828224	822256
1008	89968	86384
1024	32848	32416
1056	15280	15008
1088	1024	416
1120	2944	1264
1152	13088	4304
1184	45360	32368
1216	49280	26048
1248	31856	20464
1280	30016	19072
1312	29024	1952
1344	52560	25264
1376	36368	304
1408	22448	5104
1440	27920	23584
1472	16544	1456
1504	19568	4448
1536	9776	5984
1568	592	560
1600	6880	6816
1632	2944	2736
1664	7024	6736
1696	18336	17952
1728	33808	26944
1760	10288	7248
1792	9856	9840
1824	16304	16256
1856	43312	43296
1888	23184	13584
1920	27856	8864
1952	32560	23248
1984	39264	36832
2016	33120	30096
2048	32416	31024
2112	88064	88064
2176	940928	908368
2240	2238816	2055728
2304	16	16
2368	48	48
2432	0	0
2496	32	32
2560	0	0
2624	0	0
2688	0	0
2752	0	0
2816	0	0
2880	0	0
2944	16	0
3008	0	0
3072	0	0
3136	16	16
3200	16	16
3264	0	0
3328	0	0
3392	16	16
3456	0	0
3520	0	0
3584	0	0
3648	0	0
3712	16	0
3776	0	0
3840	0	0
3904	16	16
3968	0	0
4032	80	80
4096	192	176
4224	0	0
4352	16	16
4480	768	768
4608	16	16
4736	0	0
4864	0	0
4992	0	0
5120	0	0
5248	0	0
5376	0	0
5504	0	0
5632	0	0
5760	0	0
5888	0	0
6016	32	32
6144	0	0
6272	0	0
6400	0	0
6528	0	0
6656	48	48
6784	0	0
6912	0	0
7040	0	0
7168	0	0
7296	0	0
7424	0	0
7552	0	0
7680	0	0
7808	0	0
7936	16	16
8064	0	0
8192	0	0
8448	0	0
8704	0	0
8960	2320	2320
9216	0	0
9472	0	0
9728	0	0
9984	0	0
10240	0	0
10496	0	0
10752	0	0
11008	16	16
11264	80	80
11520	0	0
11776	0	0
12032	48	48
12288	0	0
12544	0	0
12800	16	16
13056	0	0
13312	2240	2240
13568	176	176
13824	0	0
14080	16	16
14336	0	0
14592	0	0
14848	0	0
15104	0	0
15360	0	0
15616	128	128
15872	16	16
16128	16	16
16384	0	0
16896	0	0
17408	0	0
17920	656	656
18432	0	0
18944	0	0
19456	16	16
19968	1152	1152
20480	16	16
20992	0	0
21504	0	0
22016	1952	1952
22528	5744	5744
23040	0	0
23552	0	0
24064	0	0
24576	32	32
25088	0	0
25600	32	16
26112	16	16
26624	16	16
27136	0	0
27648	0	0
28160	0	0
28672	0	0
29184	16	0
29696	0	0
30208	0	0
30720	0	0
31232	32	32
31744	0	0
32256	0	0
32768	0	0
33792	0	0
34816	0	0
35840	48	48
36864	0	0
37888	64	64
38912	0	0
39936	0	0
40960	0	0
41984	16	16
43008	0	0
44032	0	0
45056	0	0
46080	0	0
47104	16	16
48128	0	0
49152	0	0
50176	0	0
51200	32	32
52224	0	0
53248	0	0
54272	0	0
55296	0	0
56320	0	0
57344	0	0
58368	0	0
59392	0	0
60416	336	336
61440	0	0
62464	0	0
63488	0	0
64512	0	0
65536	0	0
67584	0	0
69632	0	0
71680	0	0
73728	0	0
75776	0	0
77824	0	0
79872	0	0
81920	0	0
83968	0	0
86016	0	0
88064	0	0
90112	0	0
92160	0	0
94208	0	0
96256	0	0
98304	0	0
100352	0	0
102400	0	0
104448	0	0
106496	0	0
108544	0	0
110592	0	0
112640	0	0
114688	0	0
116736	0	0
118784	0	0
120832	0	0
122880	0	0
124928	0	0
126976	0	0
129024	0	0
131072	0	0
135168	0	0
139264	0	0
143360	24592	24592
147456	7857904	7857904
151552	587760	587760
155648	63888	63888
159744	0	0
163840	0	0
167936	0	0
172032	0	0
176128	0	0
180224	0	0
184320	0	0
188416	0	0
192512	0	0
196608	0	0
200704	0	0
204800	0	0
208896	0	0
212992	0	0
217088	0	0
221184	0	0
225280	0	0
229376	0	0
233472	0	0
237568	0	0
241664	0	0
245760	0	0
249856	0	0
253952	0	0
258048	0	0
262144	0	0
270336	0	0
278528	0	0
286720	0	0
294912	0	0
303104	0	0
311296	2944	2944
319488	3408	3408
327680	1280	1280
335872	992	992
344064	47456	47456
352256	207088	207088
360448	15232	15232
368640	5456	5456
376832	0	0
385024	16	16
393216	16	16
401408	0	0
409600	16	16
417792	16	16
425984	0	0
434176	0	0
442368	0	0
450560	0	0
458752	0	0
466944	0	0
475136	0	0
483328	0	0
491520	0	0
499712	0	0
507904	0	0
516096	0	0
524288	0	0
540672	0	0
557056	0	0
573440	0	0
589824	0	0
606208	0	0
622592	0	0
638976	0	0
655360	0	0
671744	0	0
688128	0	0
704512	0	0
720896	32	32
737280	64	64
753664	0	0
770048	16	16
786432	0	0
802816	0	0
819200	0	0
835584	0	0
851968	0	0
868352	0	0
884736	0	0
901120	0	0
917504	0	0
933888	0	0
950272	0	0
966656	0	0
983040	0	0
999424	0	0
1015808	0	0
1032192	0	0
1048576	0	0
1081344	32	32
1114112	32	32
1146880	0	0
1179648	0	0
1212416	0	0
1245184	0	0
1277952	0	0
1310720	0	0
1343488	0	0
1376256	0	0
1409024	0	0
1441792	0	0
1474560	112	112
1507328	0	0
1540096	0	0
1572864	0	0
1605632	0	0
1638400	0	0
1671168	0	0
1703936	0	0
1736704	0	0
1769472	0	0
1802240	0	0
1835008	32	32
1867776	64	64
1900544	16	16
1933312	0	0
1966080	0	0
1998848	0	0
2031616	0	0
2064384	0	0
2097152	0	0
2162688	0	0
2228224	80	80
2293760	0	0
2359296	0	0
2424832	0	0
2490368	0	0
2555904	0	0
2621440	16	16
2686976	0	0
2752512	0	0
2818048	0	0
2883584	0	0
2949120	0	0
3014656	0	0
3080192	0	0
3145728	0	0
3211264	0	0
3276800	0	0
3342336	48	48
3407872	0	0
3473408	0	0
3538944	0	0
3604480	0	0
3670016	0	0
3735552	144	144
3801088	0	0
3866624	0	0
3932160	0	0
3997696	0	0
4063232	0	0
4128768	0	0
4194304	0	0
4325376	0	0
4456448	0	0
4587520	0	0
4718592	0	0
4849664	0	0
4980736	0	0
5111808	0	0
5242880	0	0
5373952	0	0
5505024	0	0
5636096	0	0
5767168	0	0
5898240	0	0
6029312	0	0
6160384	0	0
6291456	0	0
6422528	0	0
6553600	0	0
6684672	0	0
6815744	0	0
6946816	0	0
7077888	0	0
7208960	0	0
7340032	0	0
7471104	0	0
7602176	0	0
7733248	0	0
7864320	0	0
7995392	0	0
8126464	0	0
8257536	0	0
8388608	0	0
8650752	0	0
8912896	0	0
9175040	0	0
9437184	0	0
9699328	0	0
9961472	0	0
10223616	0	0
10485760	0	0
10747904	0	0
11010048	0	0
11272192	0	0
11534336	0	0
11796480	0	0
12058624	0	0
12320768	0	0
12582912	0	0
12845056	0	0
13107200	0	0
13369344	0	0
13631488	0	0
13893632	0	0
14155776	0	0
14417920	0	0
14680064	0	0
14942208	0	0
15204352	0	0
15466496	0	0
15728640	0	0
15990784	0	0
16252928	0	0
16515072	0	0
16777216	0	0
17301504	0	0
17825792	0	0
18350080	0	0
18874368	0	0
19398656	0	0
19922944	0	0
20447232	0	0
20971520	0	0
21495808	0	0
22020096	0	0
22544384	0	0
23068672	0	0
23592960	0	0
24117248	0	0
24641536	0	0
25165824	2637552	2637552
25690112	5412768	5412768
26214400	0	0
26738688	0	0
27262976	0	0
27787264	0	0
28311552	0	0
28835840	0	0
29360128	0	0
29884416	0	0
30408704	0	0
30932992	0	0
31457280	0	0
31981568	0	0
32505856	0	0
33030144	0	0
33554432	0	0
34603008	0	0
35651584	0	0
36700160	0	0
37748736	0	0
38797312	0	0
39845888	0	0
40894464	0	0
41943040	0	0
42991616	0	0
44040192	0	0
45088768	0	0
46137344	0	0
47185920	0	0
48234496	0	0
49283072	0	0
50331648	0	0
51380224	0	0
52428800	0	0
53477376	0	0
54525952	0	0
55574528	0	0
56623104	0	0
57671680	0	0
58720256	0	0
59768832	0	0
60817408	0	0
61865984	0	0
62914560	0	0
63963136	0	0
65011712	0	0
66060288	0	0
67108864	0	0
69206016	0	0
71303168	0	0
73400320	0	0
75497472	0	0
77594624	0	0
79691776	0	0
81788928	0	0
83886080	0	0
85983232	0	0
88080384	0	0
90177536	0	0
92274688	0	0
94371840	0	0
96468992	0	0
98566144	0	0
100663296	0	0
102760448	0	0
104857600	0	0
106954752	0	0
109051904	0	0
111149056	0	0
113246208	0	0
115343360	0	0
117440512	0	0
119537664	0	0
121634816	0	0
123731968	0	0
125829120	0	0
127926272	0	0
130023424	0	0
132120576	0	0
134217728	0	0
138412032	0	0
142606336	0	0
146800640	0	0
150994944	0	0
155189248	0	0
159383552	0	0
163577856	0	0
167772160	0	0
171966464	0	0
176160768	0	0
180355072	0	0
184549376	0	0
188743680	0	0
192937984	0	0
197132288	0	0
201326592	0	0
205520896	0	0
209715200	0	0
213909504	0	0
218103808	0	0
222298112	0	0
226492416	0	0
230686720	0	0
234881024	0	0
239075328	0	0
243269632	0	0
247463936	0	0
251658240	0	0
255852544	0	0
260046848	0	0
264241152	0	0
268435456	0	0
276824064	0	0
285212672	0	0
293601280	0	0
301989888	0	0
310378496	0	0
318767104	0	0
327155712	0	0
335544320	0	0
343932928	0	0
352321536	0	0
360710144	0	0
369098752	0	0
377487360	0	0
385875968	0	0
394264576	0	0
402653184	0	0
411041792	0	0
419430400	0	0
427819008	0	0
436207616	0	0
444596224	0	0
452984832	0	0
461373440	0	0
469762048	0	0
478150656	0	0
486539264	0	0
494927872	0	0
503316480	0	0
511705088	0	0
520093696	0	0
528482304	0	0
536870912	0	0
553648128	0	0
570425344	0	0
587202560	0	0
603979776	0	0
620756992	0	0
637534208	0	0
654311424	0	0
671088640	0	0
687865856	0	0
704643072	0	0
721420288	0	0
738197504	0	0
754974720	0	0
771751936	0	0
788529152	0	0
805306368	0	0
822083584	0	0
838860800	0	0
855638016	0	0
872415232	0	0
889192448	0	0
905969664	0	0
922746880	0	0
939524096	0	0
956301312	0	0
973078528	0	0
989855744	0	0
1006632960	0	0
1023410176	0	0
1040187392	0	0
1056964608	0	0
1073741824	0	0
1107296256	0	0
1140850688	0	0
1174405120	0	0
1207959552	0	0
1241513984	0	0
1275068416	0	0
1308622848	0	0
1342177280	0	0
1375731712	0	0
1409286144	0	0
1442840576	0	0
1476395008	0	0
1509949440	0	0
1543503872	0	0
1577058304	0	0
1610612736	0	0
1644167168	0	0
1677721600	0	0
1711276032	0	0
1744830464	0	0
1778384896	0	0
1811939328	0	0
1845493760	0	0
1879048192	0	0
1912602624	0	0
1946157056	0	0
1979711488	0	0
2013265920	0	0
2046820352	0	0
2080374784	0	0
2113929216	0	0
2147483648	0	0
2214592512	0	0
2281701376	0	0
2348810240	0	0
2415919104	0	0
2483027968	0	0
2550136832	0	0
2617245696	0	0
2684354560	0	0
2751463424	0	0
2818572288	0	0
2885681152	0	0
2952790016	0	0
3019898880	0	0
3087007744	0	0
3154116608	0	0
3221225472	0	0
3288334336	0	0
3355443200	0	0
3422552064	0	0
3489660928	0	0
3556769792	0	0
3623878656	0	0
3690987520	0	0
3758096384	0	0
3825205248	0	0
3892314112	0	0
3959422976	0	0
4026531840	0	0
4093640704	0	0
4160749568	0	0
4227858432	0	0
~~~~~~~~~~Reuse Distance Profiler output end~~~~~~~~~~

Sampler size:224989

DRAM Statistics
 CHANNEL 0
 RQ ROW_BUFFER_HIT:       1447  ROW_BUFFER_MISS:   11898939
 DBUS AVG_CONGESTED_CYCLE:    3.99854
 WQ ROW_BUFFER_HIT:       7931  ROW_BUFFER_MISS:    1427377  FULL:          0


CPU 0 Branch Prediction Accuracy: 99.5642% MPKI: 0.005288 Average ROB Occupancy at Mispredict: 245.154
Branch type MPKI
BRANCH_DIRECT_JUMP: 2e-05
BRANCH_INDIRECT: 5.66667e-05
BRANCH_CONDITIONAL: 0.004488
BRANCH_DIRECT_CALL: 0.000413333
BRANCH_INDIRECT_CALL: 2e-06
BRANCH_RETURN: 0.000308

