
*** ChampSim Multicore Out-of-Order Simulator ***

Warmup Instructions: 50000000
Simulation Instructions: 1500000000
Number of CPUs: 1
Off-chip DRAM Size: 4 GiB Channels: 1 Width: 64-bit Data Rate: 3200 MT/s

VirtualMemory physical capacity: 8588881920 num_ppages: 2096895
VirtualMemory page size: 4096 log2_page_size: 12

CPU 0 runs /s/traces/champsim_traces/619.lbm_s-2676B.champsimtrace.xz
CPU 0 Bimodal branch predictor
Basic BTB sets: 1024 ways: 8 indirect buffer size: 4096 RAS size: 64
Initializing LRU.
Initializing LRU.
Initializing LRU.
Initializing LRU.
Initializing rdLRU.
Initializing LRU.
Heartbeat CPU 0 instructions: 2000001 cycles: 512613 heartbeat IPC: 3.90158 cumulative IPC: 3.90158 (Simulation time: 0 hr 1 min 3 sec) 
Heartbeat CPU 0 instructions: 4000000 cycles: 1034059 heartbeat IPC: 3.83549 cumulative IPC: 3.86825 (Simulation time: 0 hr 2 min 9 sec) 
Heartbeat CPU 0 instructions: 6000000 cycles: 1553627 heartbeat IPC: 3.84935 cumulative IPC: 3.86193 (Simulation time: 0 hr 3 min 17 sec) 
Heartbeat CPU 0 instructions: 8000001 cycles: 2073456 heartbeat IPC: 3.84742 cumulative IPC: 3.85829 (Simulation time: 0 hr 4 min 24 sec) 
Heartbeat CPU 0 instructions: 10000002 cycles: 2591234 heartbeat IPC: 3.86266 cumulative IPC: 3.85917 (Simulation time: 0 hr 5 min 26 sec) 
Heartbeat CPU 0 instructions: 12000002 cycles: 3107386 heartbeat IPC: 3.87483 cumulative IPC: 3.86177 (Simulation time: 0 hr 6 min 28 sec) 
Heartbeat CPU 0 instructions: 14000000 cycles: 3625228 heartbeat IPC: 3.86218 cumulative IPC: 3.86183 (Simulation time: 0 hr 7 min 35 sec) 
Heartbeat CPU 0 instructions: 16000003 cycles: 4143159 heartbeat IPC: 3.86152 cumulative IPC: 3.86179 (Simulation time: 0 hr 8 min 41 sec) 
Heartbeat CPU 0 instructions: 18000001 cycles: 4661784 heartbeat IPC: 3.85635 cumulative IPC: 3.86118 (Simulation time: 0 hr 9 min 48 sec) 
Heartbeat CPU 0 instructions: 20000002 cycles: 5177353 heartbeat IPC: 3.87921 cumulative IPC: 3.86298 (Simulation time: 0 hr 10 min 48 sec) 
Heartbeat CPU 0 instructions: 22000002 cycles: 5693627 heartbeat IPC: 3.87391 cumulative IPC: 3.86397 (Simulation time: 0 hr 11 min 50 sec) 
Heartbeat CPU 0 instructions: 24000002 cycles: 6208854 heartbeat IPC: 3.88178 cumulative IPC: 3.86545 (Simulation time: 0 hr 12 min 50 sec) 
Heartbeat CPU 0 instructions: 26000000 cycles: 6725637 heartbeat IPC: 3.87009 cumulative IPC: 3.8658 (Simulation time: 0 hr 13 min 55 sec) 
Heartbeat CPU 0 instructions: 28000003 cycles: 7242332 heartbeat IPC: 3.87076 cumulative IPC: 3.86616 (Simulation time: 0 hr 15 min 0 sec) 
Heartbeat CPU 0 instructions: 30000003 cycles: 7758318 heartbeat IPC: 3.87607 cumulative IPC: 3.86682 (Simulation time: 0 hr 16 min 2 sec) 
Heartbeat CPU 0 instructions: 32000002 cycles: 8271938 heartbeat IPC: 3.89393 cumulative IPC: 3.8685 (Simulation time: 0 hr 17 min 3 sec) 
Heartbeat CPU 0 instructions: 34000003 cycles: 8787050 heartbeat IPC: 3.88265 cumulative IPC: 3.86933 (Simulation time: 0 hr 18 min 6 sec) 
Heartbeat CPU 0 instructions: 36000000 cycles: 9298837 heartbeat IPC: 3.90787 cumulative IPC: 3.87145 (Simulation time: 0 hr 19 min 8 sec) 
Heartbeat CPU 0 instructions: 38000002 cycles: 9818136 heartbeat IPC: 3.85135 cumulative IPC: 3.87039 (Simulation time: 0 hr 20 min 8 sec) 
Heartbeat CPU 0 instructions: 40000000 cycles: 10329434 heartbeat IPC: 3.91161 cumulative IPC: 3.87243 (Simulation time: 0 hr 21 min 6 sec) 
Heartbeat CPU 0 instructions: 42000003 cycles: 10840292 heartbeat IPC: 3.91499 cumulative IPC: 3.87443 (Simulation time: 0 hr 22 min 3 sec) 
Heartbeat CPU 0 instructions: 44000001 cycles: 11353591 heartbeat IPC: 3.89636 cumulative IPC: 3.87543 (Simulation time: 0 hr 23 min 1 sec) 
Heartbeat CPU 0 instructions: 46000002 cycles: 11863156 heartbeat IPC: 3.92492 cumulative IPC: 3.87755 (Simulation time: 0 hr 23 min 52 sec) 
Heartbeat CPU 0 instructions: 48000000 cycles: 12378100 heartbeat IPC: 3.88391 cumulative IPC: 3.87782 (Simulation time: 0 hr 24 min 45 sec) 
Heartbeat CPU 0 instructions: 50000003 cycles: 12892216 heartbeat IPC: 3.89018 cumulative IPC: 3.87831 (Simulation time: 0 hr 25 min 33 sec) 

Warmup complete CPU 0 instructions: 50000003 cycles: 12892216 (Simulation time: 0 hr 25 min 33 sec) 

Heartbeat CPU 0 instructions: 52000001 cycles: 20235199 heartbeat IPC: 0.272369 cumulative IPC: 0.272369 (Simulation time: 0 hr 31 min 0 sec) 

Region of Interest Statistics
cpu0_DTLB TOTAL     ACCESS:     320762  HIT:     318703  MISS:       2059
cpu0_DTLB LOAD      ACCESS:     152907  HIT:     152627  MISS:        280
cpu0_DTLB RFO       ACCESS:     167855  HIT:     166076  MISS:       1779
cpu0_DTLB PREFETCH  ACCESS:          0  HIT:          0  MISS:          0
cpu0_DTLB WRITEBACK ACCESS:          0  HIT:          0  MISS:          0
cpu0_ITLB TOTAL     ACCESS:      25084  HIT:      25084  MISS:          0
cpu0_ITLB LOAD      ACCESS:      25084  HIT:      25084  MISS:          0
cpu0_ITLB RFO       ACCESS:          0  HIT:          0  MISS:          0
cpu0_ITLB PREFETCH  ACCESS:          0  HIT:          0  MISS:          0
cpu0_ITLB WRITEBACK ACCESS:          0  HIT:          0  MISS:          0
cpu0_L1I TOTAL     ACCESS:      41107  HIT:      41107  MISS:          0
cpu0_L1I LOAD      ACCESS:      41107  HIT:      41107  MISS:          0
cpu0_L1I RFO       ACCESS:          0  HIT:          0  MISS:          0
cpu0_L1I PREFETCH  ACCESS:          0  HIT:          0  MISS:          0
cpu0_L1I WRITEBACK ACCESS:          0  HIT:          0  MISS:          0
cpu0_STLB TOTAL     ACCESS:       2059  HIT:        942  MISS:       1117
cpu0_STLB LOAD      ACCESS:        280  HIT:          0  MISS:        280
cpu0_STLB RFO       ACCESS:       1779  HIT:        942  MISS:        837
cpu0_STLB PREFETCH  ACCESS:          0  HIT:          0  MISS:          0
cpu0_STLB WRITEBACK ACCESS:          0  HIT:          0  MISS:          0
cpu0_L1D TOTAL     ACCESS:     445466  HIT:     327524  MISS:     117942
cpu0_L1D LOAD      ACCESS:     112529  HIT:      94659  MISS:      17870
cpu0_L1D RFO       ACCESS:     331820  HIT:     231748  MISS:     100072
cpu0_L1D PREFETCH  ACCESS:          0  HIT:          0  MISS:          0
cpu0_L1D WRITEBACK ACCESS:          0  HIT:          0  MISS:          0
cpu0_L2C TOTAL     ACCESS:     218013  HIT:     145116  MISS:      72897
cpu0_L2C LOAD      ACCESS:      17870  HIT:          0  MISS:      17870
cpu0_L2C RFO       ACCESS:     100072  HIT:      45045  MISS:      55027
cpu0_L2C PREFETCH  ACCESS:          0  HIT:          0  MISS:          0
cpu0_L2C WRITEBACK ACCESS:     100071  HIT:     100071  MISS:          0
LLC TOTAL     ACCESS:     127827  HIT:      56329  MISS:      71498
LLC LOAD      ACCESS:      17870  HIT:          0  MISS:      17870
LLC RFO       ACCESS:      55027  HIT:       1417  MISS:      53610
LLC PREFETCH  ACCESS:          0  HIT:          0  MISS:          0
LLC WRITEBACK ACCESS:      54930  HIT:      54912  MISS:         18
Heartbeat CPU 0 instructions: 54000004 cycles: 28161246 heartbeat IPC: 0.252333 cumulative IPC: 0.261968 (Simulation time: 0 hr 36 min 45 sec) 

Region of Interest Statistics
cpu0_DTLB TOTAL     ACCESS:     650912  HIT:     646625  MISS:       4287
cpu0_DTLB LOAD      ACCESS:     307678  HIT:     307096  MISS:        582
cpu0_DTLB RFO       ACCESS:     343234  HIT:     339529  MISS:       3705
cpu0_DTLB PREFETCH  ACCESS:          0  HIT:          0  MISS:          0
cpu0_DTLB WRITEBACK ACCESS:          0  HIT:          0  MISS:          0
cpu0_ITLB TOTAL     ACCESS:      52113  HIT:      52113  MISS:          0
cpu0_ITLB LOAD      ACCESS:      52113  HIT:      52113  MISS:          0
cpu0_ITLB RFO       ACCESS:          0  HIT:          0  MISS:          0
cpu0_ITLB PREFETCH  ACCESS:          0  HIT:          0  MISS:          0
cpu0_ITLB WRITEBACK ACCESS:          0  HIT:          0  MISS:          0
cpu0_L1I TOTAL     ACCESS:      84226  HIT:      84226  MISS:          0
cpu0_L1I LOAD      ACCESS:      84226  HIT:      84226  MISS:          0
cpu0_L1I RFO       ACCESS:          0  HIT:          0  MISS:          0
cpu0_L1I PREFETCH  ACCESS:          0  HIT:          0  MISS:          0
cpu0_L1I WRITEBACK ACCESS:          0  HIT:          0  MISS:          0
cpu0_STLB TOTAL     ACCESS:       4287  HIT:       1962  MISS:       2325
cpu0_STLB LOAD      ACCESS:        582  HIT:          0  MISS:        582
cpu0_STLB RFO       ACCESS:       3705  HIT:       1962  MISS:       1743
cpu0_STLB PREFETCH  ACCESS:          0  HIT:          0  MISS:          0
cpu0_STLB WRITEBACK ACCESS:          0  HIT:          0  MISS:          0
cpu0_L1D TOTAL     ACCESS:     898345  HIT:     652872  MISS:     245473
cpu0_L1D LOAD      ACCESS:     225033  HIT:     187841  MISS:      37192
cpu0_L1D RFO       ACCESS:     670987  HIT:     462706  MISS:     208281
cpu0_L1D PREFETCH  ACCESS:          0  HIT:          0  MISS:          0
cpu0_L1D WRITEBACK ACCESS:          0  HIT:          0  MISS:          0
cpu0_L2C TOTAL     ACCESS:     453752  HIT:     301759  MISS:     151993
cpu0_L2C LOAD      ACCESS:      37192  HIT:          0  MISS:      37192
cpu0_L2C RFO       ACCESS:     208282  HIT:      93481  MISS:     114801
cpu0_L2C PREFETCH  ACCESS:          0  HIT:          0  MISS:          0
cpu0_L2C WRITEBACK ACCESS:     208278  HIT:     208278  MISS:          0
LLC TOTAL     ACCESS:     266680  HIT:     117872  MISS:     148808
LLC LOAD      ACCESS:      37192  HIT:          0  MISS:      37192
LLC RFO       ACCESS:     114790  HIT:       3212  MISS:     111578
LLC PREFETCH  ACCESS:          0  HIT:          0  MISS:          0
LLC WRITEBACK ACCESS:     114698  HIT:     114660  MISS:         38
Heartbeat CPU 0 instructions: 56000002 cycles: 35559122 heartbeat IPC: 0.270348 cumulative IPC: 0.264703 (Simulation time: 0 hr 42 min 3 sec) 

Region of Interest Statistics
cpu0_DTLB TOTAL     ACCESS:     972813  HIT:     966450  MISS:       6363
cpu0_DTLB LOAD      ACCESS:     460821  HIT:     459958  MISS:        863
cpu0_DTLB RFO       ACCESS:     511992  HIT:     506492  MISS:       5500
cpu0_DTLB PREFETCH  ACCESS:          0  HIT:          0  MISS:          0
cpu0_DTLB WRITEBACK ACCESS:          0  HIT:          0  MISS:          0
cpu0_ITLB TOTAL     ACCESS:      77763  HIT:      77763  MISS:          0
cpu0_ITLB LOAD      ACCESS:      77763  HIT:      77763  MISS:          0
cpu0_ITLB RFO       ACCESS:          0  HIT:          0  MISS:          0
cpu0_ITLB PREFETCH  ACCESS:          0  HIT:          0  MISS:          0
cpu0_ITLB WRITEBACK ACCESS:          0  HIT:          0  MISS:          0
cpu0_L1I TOTAL     ACCESS:     125161  HIT:     125161  MISS:          0
cpu0_L1I LOAD      ACCESS:     125161  HIT:     125161  MISS:          0
cpu0_L1I RFO       ACCESS:          0  HIT:          0  MISS:          0
cpu0_L1I PREFETCH  ACCESS:          0  HIT:          0  MISS:          0
cpu0_L1I WRITEBACK ACCESS:          0  HIT:          0  MISS:          0
cpu0_STLB TOTAL     ACCESS:       6363  HIT:       2913  MISS:       3450
cpu0_STLB LOAD      ACCESS:        863  HIT:          0  MISS:        863
cpu0_STLB RFO       ACCESS:       5500  HIT:       2913  MISS:       2587
cpu0_STLB PREFETCH  ACCESS:          0  HIT:          0  MISS:          0
cpu0_STLB WRITEBACK ACCESS:          0  HIT:          0  MISS:          0
cpu0_L1D TOTAL     ACCESS:    1344671  HIT:     980285  MISS:     364386
cpu0_L1D LOAD      ACCESS:     337604  HIT:     282394  MISS:      55210
cpu0_L1D RFO       ACCESS:    1003617  HIT:     694441  MISS:     309176
cpu0_L1D PREFETCH  ACCESS:          0  HIT:          0  MISS:          0
cpu0_L1D WRITEBACK ACCESS:          0  HIT:          0  MISS:          0
cpu0_L2C TOTAL     ACCESS:     673562  HIT:     447756  MISS:     225806
cpu0_L2C LOAD      ACCESS:      55210  HIT:          0  MISS:      55210
cpu0_L2C RFO       ACCESS:     309176  HIT:     138580  MISS:     170596
cpu0_L2C PREFETCH  ACCESS:          0  HIT:          0  MISS:          0
cpu0_L2C WRITEBACK ACCESS:     309176  HIT:     309176  MISS:          0
LLC TOTAL     ACCESS:     396416  HIT:     175498  MISS:     220918
LLC LOAD      ACCESS:      55210  HIT:          0  MISS:      55210
LLC RFO       ACCESS:     170585  HIT:       4955  MISS:     165630
LLC PREFETCH  ACCESS:          0  HIT:          0  MISS:          0
LLC WRITEBACK ACCESS:     170621  HIT:     170543  MISS:         78
Heartbeat CPU 0 instructions: 58000003 cycles: 43403793 heartbeat IPC: 0.25495 cumulative IPC: 0.262196 (Simulation time: 0 hr 47 min 49 sec) 

Region of Interest Statistics
cpu0_DTLB TOTAL     ACCESS:    1301760  HIT:    1293189  MISS:       8571
cpu0_DTLB LOAD      ACCESS:     615070  HIT:     613907  MISS:       1163
cpu0_DTLB RFO       ACCESS:     686690  HIT:     679282  MISS:       7408
cpu0_DTLB PREFETCH  ACCESS:          0  HIT:          0  MISS:          0
cpu0_DTLB WRITEBACK ACCESS:          0  HIT:          0  MISS:          0
cpu0_ITLB TOTAL     ACCESS:     105424  HIT:     105424  MISS:          0
cpu0_ITLB LOAD      ACCESS:     105424  HIT:     105424  MISS:          0
cpu0_ITLB RFO       ACCESS:          0  HIT:          0  MISS:          0
cpu0_ITLB PREFETCH  ACCESS:          0  HIT:          0  MISS:          0
cpu0_ITLB WRITEBACK ACCESS:          0  HIT:          0  MISS:          0
cpu0_L1I TOTAL     ACCESS:     166901  HIT:     166901  MISS:          0
cpu0_L1I LOAD      ACCESS:     166901  HIT:     166901  MISS:          0
cpu0_L1I RFO       ACCESS:          0  HIT:          0  MISS:          0
cpu0_L1I PREFETCH  ACCESS:          0  HIT:          0  MISS:          0
cpu0_L1I WRITEBACK ACCESS:          0  HIT:          0  MISS:          0
cpu0_STLB TOTAL     ACCESS:       8571  HIT:       3922  MISS:       4649
cpu0_STLB LOAD      ACCESS:       1163  HIT:          0  MISS:       1163
cpu0_STLB RFO       ACCESS:       7408  HIT:       3922  MISS:       3486
cpu0_STLB PREFETCH  ACCESS:          0  HIT:          0  MISS:          0
cpu0_STLB WRITEBACK ACCESS:          0  HIT:          0  MISS:          0
cpu0_L1D TOTAL     ACCESS:    1796774  HIT:    1305849  MISS:     490925
cpu0_L1D LOAD      ACCESS:     450083  HIT:     375701  MISS:      74382
cpu0_L1D RFO       ACCESS:    1342042  HIT:     925500  MISS:     416542
cpu0_L1D PREFETCH  ACCESS:          0  HIT:          0  MISS:          0
cpu0_L1D WRITEBACK ACCESS:          0  HIT:          0  MISS:          0
cpu0_L2C TOTAL     ACCESS:     907465  HIT:     602908  MISS:     304557
cpu0_L2C LOAD      ACCESS:      74382  HIT:          0  MISS:      74382
cpu0_L2C RFO       ACCESS:     416543  HIT:     186369  MISS:     230174
cpu0_L2C PREFETCH  ACCESS:          0  HIT:          0  MISS:          0
cpu0_L2C WRITEBACK ACCESS:     416539  HIT:     416539  MISS:          0
LLC TOTAL     ACCESS:     534779  HIT:     237172  MISS:     297607
LLC LOAD      ACCESS:      74382  HIT:          0  MISS:      74382
LLC RFO       ACCESS:     230162  HIT:       7016  MISS:     223146
LLC PREFETCH  ACCESS:          0  HIT:          0  MISS:          0
LLC WRITEBACK ACCESS:     230234  HIT:     230156  MISS:         78
Heartbeat CPU 0 instructions: 60000003 cycles: 50774071 heartbeat IPC: 0.27136 cumulative IPC: 0.263979 (Simulation time: 0 hr 53 min 6 sec) 

Region of Interest Statistics
cpu0_DTLB TOTAL     ACCESS:    1622750  HIT:    1612124  MISS:      10626
cpu0_DTLB LOAD      ACCESS:     768364  HIT:     766922  MISS:       1442
cpu0_DTLB RFO       ACCESS:     854386  HIT:     845202  MISS:       9184
cpu0_DTLB PREFETCH  ACCESS:          0  HIT:          0  MISS:          0
cpu0_DTLB WRITEBACK ACCESS:          0  HIT:          0  MISS:          0
cpu0_ITLB TOTAL     ACCESS:     129005  HIT:     129005  MISS:          0
cpu0_ITLB LOAD      ACCESS:     129005  HIT:     129005  MISS:          0
cpu0_ITLB RFO       ACCESS:          0  HIT:          0  MISS:          0
cpu0_ITLB PREFETCH  ACCESS:          0  HIT:          0  MISS:          0
cpu0_ITLB WRITEBACK ACCESS:          0  HIT:          0  MISS:          0
cpu0_L1I TOTAL     ACCESS:     210064  HIT:     210064  MISS:          0
cpu0_L1I LOAD      ACCESS:     210064  HIT:     210064  MISS:          0
cpu0_L1I RFO       ACCESS:          0  HIT:          0  MISS:          0
cpu0_L1I PREFETCH  ACCESS:          0  HIT:          0  MISS:          0
cpu0_L1I WRITEBACK ACCESS:          0  HIT:          0  MISS:          0
cpu0_STLB TOTAL     ACCESS:      10626  HIT:       4860  MISS:       5766
cpu0_STLB LOAD      ACCESS:       1442  HIT:          0  MISS:       1442
cpu0_STLB RFO       ACCESS:       9184  HIT:       4860  MISS:       4324
cpu0_STLB PREFETCH  ACCESS:          0  HIT:          0  MISS:          0
cpu0_STLB WRITEBACK ACCESS:          0  HIT:          0  MISS:          0
cpu0_L1D TOTAL     ACCESS:    2242887  HIT:    1634172  MISS:     608715
cpu0_L1D LOAD      ACCESS:     562882  HIT:     470652  MISS:      92230
cpu0_L1D RFO       ACCESS:    1674436  HIT:    1157954  MISS:     516482
cpu0_L1D PREFETCH  ACCESS:          0  HIT:          0  MISS:          0
cpu0_L1D WRITEBACK ACCESS:          0  HIT:          0  MISS:          0
cpu0_L2C TOTAL     ACCESS:    1125194  HIT:     747582  MISS:     377612
cpu0_L2C LOAD      ACCESS:      92230  HIT:          0  MISS:      92230
cpu0_L2C RFO       ACCESS:     516482  HIT:     231112  MISS:     285370
cpu0_L2C PREFETCH  ACCESS:          0  HIT:          0  MISS:          0
cpu0_L2C WRITEBACK ACCESS:     516479  HIT:     516470  MISS:          9
LLC TOTAL     ACCESS:     663252  HIT:     294178  MISS:     369074
LLC LOAD      ACCESS:      92230  HIT:          0  MISS:      92230
LLC RFO       ACCESS:     285358  HIT:       8675  MISS:     276683
LLC PREFETCH  ACCESS:          0  HIT:          0  MISS:          0
LLC WRITEBACK ACCESS:     285661  HIT:     285503  MISS:        158
Heartbeat CPU 0 instructions: 62000001 cycles: 57688883 heartbeat IPC: 0.289234 cumulative IPC: 0.267877 (Simulation time: 0 hr 58 min 5 sec) 

Region of Interest Statistics
cpu0_DTLB TOTAL     ACCESS:    1937109  HIT:    1924552  MISS:      12557
cpu0_DTLB LOAD      ACCESS:     920576  HIT:     918872  MISS:       1704
cpu0_DTLB RFO       ACCESS:    1016533  HIT:    1005680  MISS:      10853
cpu0_DTLB PREFETCH  ACCESS:          0  HIT:          0  MISS:          0
cpu0_DTLB WRITEBACK ACCESS:          0  HIT:          0  MISS:          0
cpu0_ITLB TOTAL     ACCESS:     151120  HIT:     151120  MISS:          0
cpu0_ITLB LOAD      ACCESS:     151120  HIT:     151120  MISS:          0
cpu0_ITLB RFO       ACCESS:          0  HIT:          0  MISS:          0
cpu0_ITLB PREFETCH  ACCESS:          0  HIT:          0  MISS:          0
cpu0_ITLB WRITEBACK ACCESS:          0  HIT:          0  MISS:          0
cpu0_L1I TOTAL     ACCESS:     251327  HIT:     251327  MISS:          0
cpu0_L1I LOAD      ACCESS:     251327  HIT:     251327  MISS:          0
cpu0_L1I RFO       ACCESS:          0  HIT:          0  MISS:          0
cpu0_L1I PREFETCH  ACCESS:          0  HIT:          0  MISS:          0
cpu0_L1I WRITEBACK ACCESS:          0  HIT:          0  MISS:          0
cpu0_STLB TOTAL     ACCESS:      12557  HIT:       5743  MISS:       6814
cpu0_STLB LOAD      ACCESS:       1704  HIT:          0  MISS:       1704
cpu0_STLB RFO       ACCESS:      10853  HIT:       5743  MISS:       5110
cpu0_STLB PREFETCH  ACCESS:          0  HIT:          0  MISS:          0
cpu0_STLB WRITEBACK ACCESS:          0  HIT:          0  MISS:          0
cpu0_L1D TOTAL     ACCESS:    2683285  HIT:    1963990  MISS:     719295
cpu0_L1D LOAD      ACCESS:     675809  HIT:     566824  MISS:     108985
cpu0_L1D RFO       ACCESS:    2001119  HIT:    1390812  MISS:     610307
cpu0_L1D PREFETCH  ACCESS:          0  HIT:          0  MISS:          0
cpu0_L1D WRITEBACK ACCESS:          0  HIT:          0  MISS:          0
cpu0_L2C TOTAL     ACCESS:    1329598  HIT:     883187  MISS:     446411
cpu0_L2C LOAD      ACCESS:     108985  HIT:          0  MISS:     108985
cpu0_L2C RFO       ACCESS:     610307  HIT:     272893  MISS:     337414
cpu0_L2C PREFETCH  ACCESS:          0  HIT:          0  MISS:          0
cpu0_L2C WRITEBACK ACCESS:     610303  HIT:     610294  MISS:          9
LLC TOTAL     ACCESS:     783777  HIT:     347686  MISS:     436091
LLC LOAD      ACCESS:     108985  HIT:          0  MISS:     108985
LLC RFO       ACCESS:     337399  HIT:      10454  MISS:     326945
LLC PREFETCH  ACCESS:          0  HIT:          0  MISS:          0
LLC WRITEBACK ACCESS:     337390  HIT:     337232  MISS:        158
Heartbeat CPU 0 instructions: 64000001 cycles: 65042812 heartbeat IPC: 0.271963 cumulative IPC: 0.268453 (Simulation time: 1 hr 3 min 21 sec) 

Region of Interest Statistics
cpu0_DTLB TOTAL     ACCESS:    2258155  HIT:    2243543  MISS:      14612
cpu0_DTLB LOAD      ACCESS:    1073876  HIT:    1071893  MISS:       1983
cpu0_DTLB RFO       ACCESS:    1184279  HIT:    1171650  MISS:      12629
cpu0_DTLB PREFETCH  ACCESS:          0  HIT:          0  MISS:          0
cpu0_DTLB WRITEBACK ACCESS:          0  HIT:          0  MISS:          0
cpu0_ITLB TOTAL     ACCESS:     175806  HIT:     175806  MISS:          0
cpu0_ITLB LOAD      ACCESS:     175806  HIT:     175806  MISS:          0
cpu0_ITLB RFO       ACCESS:          0  HIT:          0  MISS:          0
cpu0_ITLB PREFETCH  ACCESS:          0  HIT:          0  MISS:          0
cpu0_ITLB WRITEBACK ACCESS:          0  HIT:          0  MISS:          0
cpu0_L1I TOTAL     ACCESS:     293114  HIT:     293114  MISS:          0
cpu0_L1I LOAD      ACCESS:     293114  HIT:     293114  MISS:          0
cpu0_L1I RFO       ACCESS:          0  HIT:          0  MISS:          0
cpu0_L1I PREFETCH  ACCESS:          0  HIT:          0  MISS:          0
cpu0_L1I WRITEBACK ACCESS:          0  HIT:          0  MISS:          0
cpu0_STLB TOTAL     ACCESS:      14612  HIT:       6684  MISS:       7928
cpu0_STLB LOAD      ACCESS:       1983  HIT:          0  MISS:       1983
cpu0_STLB RFO       ACCESS:      12629  HIT:       6684  MISS:       5945
cpu0_STLB PREFETCH  ACCESS:          0  HIT:          0  MISS:          0
cpu0_STLB WRITEBACK ACCESS:          0  HIT:          0  MISS:          0
cpu0_L1D TOTAL     ACCESS:    3128748  HIT:    2291703  MISS:     837045
cpu0_L1D LOAD      ACCESS:     788486  HIT:     661661  MISS:     126825
cpu0_L1D RFO       ACCESS:    2333067  HIT:    1622850  MISS:     710217
cpu0_L1D PREFETCH  ACCESS:          0  HIT:          0  MISS:          0
cpu0_L1D WRITEBACK ACCESS:          0  HIT:          0  MISS:          0
cpu0_L2C TOTAL     ACCESS:    1547257  HIT:    1028181  MISS:     519076
cpu0_L2C LOAD      ACCESS:     126825  HIT:          0  MISS:     126825
cpu0_L2C RFO       ACCESS:     710217  HIT:     317978  MISS:     392239
cpu0_L2C PREFETCH  ACCESS:          0  HIT:          0  MISS:          0
cpu0_L2C WRITEBACK ACCESS:     710212  HIT:     710203  MISS:          9
LLC TOTAL     ACCESS:     911254  HIT:     403722  MISS:     507532
LLC LOAD      ACCESS:     126825  HIT:          0  MISS:     126825
LLC RFO       ACCESS:     392223  HIT:      11755  MISS:     380468
LLC PREFETCH  ACCESS:          0  HIT:          0  MISS:          0
LLC WRITEBACK ACCESS:     392203  HIT:     391967  MISS:        236
Heartbeat CPU 0 instructions: 66000004 cycles: 72275557 heartbeat IPC: 0.276521 cumulative IPC: 0.269436 (Simulation time: 1 hr 8 min 33 sec) 

Region of Interest Statistics
cpu0_DTLB TOTAL     ACCESS:    2577401  HIT:    2560765  MISS:      16636
cpu0_DTLB LOAD      ACCESS:    1226751  HIT:    1224494  MISS:       2257
cpu0_DTLB RFO       ACCESS:    1350650  HIT:    1336271  MISS:      14379
cpu0_DTLB PREFETCH  ACCESS:          0  HIT:          0  MISS:          0
cpu0_DTLB WRITEBACK ACCESS:          0  HIT:          0  MISS:          0
cpu0_ITLB TOTAL     ACCESS:     199554  HIT:     199554  MISS:          0
cpu0_ITLB LOAD      ACCESS:     199554  HIT:     199554  MISS:          0
cpu0_ITLB RFO       ACCESS:          0  HIT:          0  MISS:          0
cpu0_ITLB PREFETCH  ACCESS:          0  HIT:          0  MISS:          0
cpu0_ITLB WRITEBACK ACCESS:          0  HIT:          0  MISS:          0
cpu0_L1I TOTAL     ACCESS:     335000  HIT:     335000  MISS:          0
cpu0_L1I LOAD      ACCESS:     335000  HIT:     335000  MISS:          0
cpu0_L1I RFO       ACCESS:          0  HIT:          0  MISS:          0
cpu0_L1I PREFETCH  ACCESS:          0  HIT:          0  MISS:          0
cpu0_L1I WRITEBACK ACCESS:          0  HIT:          0  MISS:          0
cpu0_STLB TOTAL     ACCESS:      16636  HIT:       7610  MISS:       9026
cpu0_STLB LOAD      ACCESS:       2257  HIT:          0  MISS:       2257
cpu0_STLB RFO       ACCESS:      14379  HIT:       7610  MISS:       6769
cpu0_STLB PREFETCH  ACCESS:          0  HIT:          0  MISS:          0
cpu0_STLB WRITEBACK ACCESS:          0  HIT:          0  MISS:          0
cpu0_L1D TOTAL     ACCESS:    3572996  HIT:    2620041  MISS:     952955
cpu0_L1D LOAD      ACCESS:     901186  HIT:     756798  MISS:     144388
cpu0_L1D RFO       ACCESS:    2663745  HIT:    1855182  MISS:     808563
cpu0_L1D PREFETCH  ACCESS:          0  HIT:          0  MISS:          0
cpu0_L1D WRITEBACK ACCESS:          0  HIT:          0  MISS:          0
cpu0_L2C TOTAL     ACCESS:    1761518  HIT:    1170562  MISS:     590956
cpu0_L2C LOAD      ACCESS:     144388  HIT:          0  MISS:     144388
cpu0_L2C RFO       ACCESS:     808563  HIT:     362008  MISS:     446555
cpu0_L2C PREFETCH  ACCESS:          0  HIT:          0  MISS:          0
cpu0_L2C WRITEBACK ACCESS:     808563  HIT:     808554  MISS:          9
LLC TOTAL     ACCESS:    1037497  HIT:     459716  MISS:     577781
LLC LOAD      ACCESS:     144388  HIT:          0  MISS:     144388
LLC RFO       ACCESS:     446536  HIT:      13383  MISS:     433153
LLC PREFETCH  ACCESS:          0  HIT:          0  MISS:          0
LLC WRITEBACK ACCESS:     446569  HIT:     446333  MISS:        236
Heartbeat CPU 0 instructions: 68000001 cycles: 78986299 heartbeat IPC: 0.298029 cumulative IPC: 0.272339 (Simulation time: 1 hr 13 min 17 sec) 

Region of Interest Statistics
cpu0_DTLB TOTAL     ACCESS:    2887305  HIT:    2868816  MISS:      18489
cpu0_DTLB LOAD      ACCESS:    1377930  HIT:    1375421  MISS:       2509
cpu0_DTLB RFO       ACCESS:    1509375  HIT:    1493395  MISS:      15980
cpu0_DTLB PREFETCH  ACCESS:          0  HIT:          0  MISS:          0
cpu0_DTLB WRITEBACK ACCESS:          0  HIT:          0  MISS:          0
cpu0_ITLB TOTAL     ACCESS:     221112  HIT:     221112  MISS:          0
cpu0_ITLB LOAD      ACCESS:     221112  HIT:     221112  MISS:          0
cpu0_ITLB RFO       ACCESS:          0  HIT:          0  MISS:          0
cpu0_ITLB PREFETCH  ACCESS:          0  HIT:          0  MISS:          0
cpu0_ITLB WRITEBACK ACCESS:          0  HIT:          0  MISS:          0
cpu0_L1I TOTAL     ACCESS:     374961  HIT:     374961  MISS:          0
cpu0_L1I LOAD      ACCESS:     374961  HIT:     374961  MISS:          0
cpu0_L1I RFO       ACCESS:          0  HIT:          0  MISS:          0
cpu0_L1I PREFETCH  ACCESS:          0  HIT:          0  MISS:          0
cpu0_L1I WRITEBACK ACCESS:          0  HIT:          0  MISS:          0
cpu0_STLB TOTAL     ACCESS:      18489  HIT:       8458  MISS:      10031
cpu0_STLB LOAD      ACCESS:       2509  HIT:          0  MISS:       2509
cpu0_STLB RFO       ACCESS:      15980  HIT:       8458  MISS:       7522
cpu0_STLB PREFETCH  ACCESS:          0  HIT:          0  MISS:          0
cpu0_STLB WRITEBACK ACCESS:          0  HIT:          0  MISS:          0
cpu0_L1D TOTAL     ACCESS:    4009580  HIT:    2950515  MISS:    1059065
cpu0_L1D LOAD      ACCESS:    1013827  HIT:     853362  MISS:     160465
cpu0_L1D RFO       ACCESS:    2986683  HIT:    2088087  MISS:     898596
cpu0_L1D PREFETCH  ACCESS:          0  HIT:          0  MISS:          0
cpu0_L1D WRITEBACK ACCESS:          0  HIT:          0  MISS:          0
cpu0_L2C TOTAL     ACCESS:    1957660  HIT:    1300932  MISS:     656728
cpu0_L2C LOAD      ACCESS:     160465  HIT:          0  MISS:     160465
cpu0_L2C RFO       ACCESS:     898596  HIT:     402346  MISS:     496250
cpu0_L2C PREFETCH  ACCESS:          0  HIT:          0  MISS:          0
cpu0_L2C WRITEBACK ACCESS:     898595  HIT:     898586  MISS:          9
LLC TOTAL     ACCESS:    1152873  HIT:     510739  MISS:     642134
LLC LOAD      ACCESS:     160465  HIT:          0  MISS:     160465
LLC RFO       ACCESS:     496231  HIT:      14845  MISS:     481386
LLC PREFETCH  ACCESS:          0  HIT:          0  MISS:          0
LLC WRITEBACK ACCESS:     496173  HIT:     495894  MISS:        279
Heartbeat CPU 0 instructions: 70000002 cycles: 87016483 heartbeat IPC: 0.24906 cumulative IPC: 0.269817 (Simulation time: 1 hr 18 min 57 sec) 

Region of Interest Statistics
cpu0_DTLB TOTAL     ACCESS:    3219472  HIT:    3198713  MISS:      20759
cpu0_DTLB LOAD      ACCESS:    1532897  HIT:    1530081  MISS:       2816
cpu0_DTLB RFO       ACCESS:    1686575  HIT:    1668632  MISS:      17943
cpu0_DTLB PREFETCH  ACCESS:          0  HIT:          0  MISS:          0
cpu0_DTLB WRITEBACK ACCESS:          0  HIT:          0  MISS:          0
cpu0_ITLB TOTAL     ACCESS:     249248  HIT:     249248  MISS:          0
cpu0_ITLB LOAD      ACCESS:     249248  HIT:     249248  MISS:          0
cpu0_ITLB RFO       ACCESS:          0  HIT:          0  MISS:          0
cpu0_ITLB PREFETCH  ACCESS:          0  HIT:          0  MISS:          0
cpu0_ITLB WRITEBACK ACCESS:          0  HIT:          0  MISS:          0
cpu0_L1I TOTAL     ACCESS:     417829  HIT:     417829  MISS:          0
cpu0_L1I LOAD      ACCESS:     417829  HIT:     417829  MISS:          0
cpu0_L1I RFO       ACCESS:          0  HIT:          0  MISS:          0
cpu0_L1I PREFETCH  ACCESS:          0  HIT:          0  MISS:          0
cpu0_L1I WRITEBACK ACCESS:          0  HIT:          0  MISS:          0
cpu0_STLB TOTAL     ACCESS:      20759  HIT:       9497  MISS:      11262
cpu0_STLB LOAD      ACCESS:       2816  HIT:          0  MISS:       2816
cpu0_STLB RFO       ACCESS:      17943  HIT:       9497  MISS:       8446
cpu0_STLB PREFETCH  ACCESS:          0  HIT:          0  MISS:          0
cpu0_STLB WRITEBACK ACCESS:          0  HIT:          0  MISS:          0
cpu0_L1D TOTAL     ACCESS:    4464338  HIT:    3275270  MISS:    1189068
cpu0_L1D LOAD      ACCESS:    1126189  HIT:     946022  MISS:     180167
cpu0_L1D RFO       ACCESS:    3327848  HIT:    2318951  MISS:    1008897
cpu0_L1D PREFETCH  ACCESS:          0  HIT:          0  MISS:          0
cpu0_L1D WRITEBACK ACCESS:          0  HIT:          0  MISS:          0
cpu0_L2C TOTAL     ACCESS:    2197967  HIT:    1460953  MISS:     737014
cpu0_L2C LOAD      ACCESS:     180167  HIT:          0  MISS:     180167
cpu0_L2C RFO       ACCESS:    1008897  HIT:     452066  MISS:     556831
cpu0_L2C PREFETCH  ACCESS:          0  HIT:          0  MISS:          0
cpu0_L2C WRITEBACK ACCESS:    1008899  HIT:    1008887  MISS:         12
LLC TOTAL     ACCESS:    1293895  HIT:     572884  MISS:     721011
LLC LOAD      ACCESS:     180167  HIT:          0  MISS:     180167
LLC RFO       ACCESS:     556811  HIT:      16344  MISS:     540467
LLC PREFETCH  ACCESS:          0  HIT:          0  MISS:          0
LLC WRITEBACK ACCESS:     556913  HIT:     556540  MISS:        373
Heartbeat CPU 0 instructions: 72000004 cycles: 93535290 heartbeat IPC: 0.306805 cumulative IPC: 0.272807 (Simulation time: 1 hr 23 min 37 sec) 

Region of Interest Statistics
cpu0_DTLB TOTAL     ACCESS:    3526991  HIT:    3504437  MISS:      22554
cpu0_DTLB LOAD      ACCESS:    1684248  HIT:    1681187  MISS:       3061
cpu0_DTLB RFO       ACCESS:    1842743  HIT:    1823250  MISS:      19493
cpu0_DTLB PREFETCH  ACCESS:          0  HIT:          0  MISS:          0
cpu0_DTLB WRITEBACK ACCESS:          0  HIT:          0  MISS:          0
cpu0_ITLB TOTAL     ACCESS:     268304  HIT:     268304  MISS:          0
cpu0_ITLB LOAD      ACCESS:     268304  HIT:     268304  MISS:          0
cpu0_ITLB RFO       ACCESS:          0  HIT:          0  MISS:          0
cpu0_ITLB PREFETCH  ACCESS:          0  HIT:          0  MISS:          0
cpu0_ITLB WRITEBACK ACCESS:          0  HIT:          0  MISS:          0
cpu0_L1I TOTAL     ACCESS:     459844  HIT:     459844  MISS:          0
cpu0_L1I LOAD      ACCESS:     459844  HIT:     459844  MISS:          0
cpu0_L1I RFO       ACCESS:          0  HIT:          0  MISS:          0
cpu0_L1I PREFETCH  ACCESS:          0  HIT:          0  MISS:          0
cpu0_L1I WRITEBACK ACCESS:          0  HIT:          0  MISS:          0
cpu0_STLB TOTAL     ACCESS:      22554  HIT:      10316  MISS:      12238
cpu0_STLB LOAD      ACCESS:       3061  HIT:          0  MISS:       3061
cpu0_STLB RFO       ACCESS:      19493  HIT:      10316  MISS:       9177
cpu0_STLB PREFETCH  ACCESS:          0  HIT:          0  MISS:          0
cpu0_STLB WRITEBACK ACCESS:          0  HIT:          0  MISS:          0
cpu0_L1D TOTAL     ACCESS:    4899318  HIT:    3607271  MISS:    1292047
cpu0_L1D LOAD      ACCESS:    1239137  HIT:    1043369  MISS:     195768
cpu0_L1D RFO       ACCESS:    3648904  HIT:    2552631  MISS:    1096273
cpu0_L1D PREFETCH  ACCESS:          0  HIT:          0  MISS:          0
cpu0_L1D WRITEBACK ACCESS:          0  HIT:          0  MISS:          0
cpu0_L2C TOTAL     ACCESS:    2388320  HIT:    1587210  MISS:     801110
cpu0_L2C LOAD      ACCESS:     195768  HIT:          0  MISS:     195768
cpu0_L2C RFO       ACCESS:    1096273  HIT:     490954  MISS:     605319
cpu0_L2C PREFETCH  ACCESS:          0  HIT:          0  MISS:          0
cpu0_L2C WRITEBACK ACCESS:    1096273  HIT:    1096256  MISS:         17
LLC TOTAL     ACCESS:    1406457  HIT:     622961  MISS:     783496
LLC LOAD      ACCESS:     195768  HIT:          2  MISS:     195766
LLC RFO       ACCESS:     605299  HIT:      18019  MISS:     587280
LLC PREFETCH  ACCESS:          0  HIT:          0  MISS:          0
LLC WRITEBACK ACCESS:     605384  HIT:     604940  MISS:        444
Heartbeat CPU 0 instructions: 74000000 cycles: 100242829 heartbeat IPC: 0.298171 cumulative IPC: 0.274755 (Simulation time: 1 hr 28 min 19 sec) 

Region of Interest Statistics
cpu0_DTLB TOTAL     ACCESS:    3837458  HIT:    3813041  MISS:      24417
cpu0_DTLB LOAD      ACCESS:    1835701  HIT:    1832387  MISS:       3314
cpu0_DTLB RFO       ACCESS:    2001757  HIT:    1980654  MISS:      21103
cpu0_DTLB PREFETCH  ACCESS:          0  HIT:          0  MISS:          0
cpu0_DTLB WRITEBACK ACCESS:          0  HIT:          0  MISS:          0
cpu0_ITLB TOTAL     ACCESS:     289587  HIT:     289587  MISS:          0
cpu0_ITLB LOAD      ACCESS:     289587  HIT:     289587  MISS:          0
cpu0_ITLB RFO       ACCESS:          0  HIT:          0  MISS:          0
cpu0_ITLB PREFETCH  ACCESS:          0  HIT:          0  MISS:          0
cpu0_ITLB WRITEBACK ACCESS:          0  HIT:          0  MISS:          0
cpu0_L1I TOTAL     ACCESS:     500544  HIT:     500544  MISS:          0
cpu0_L1I LOAD      ACCESS:     500544  HIT:     500544  MISS:          0
cpu0_L1I RFO       ACCESS:          0  HIT:          0  MISS:          0
cpu0_L1I PREFETCH  ACCESS:          0  HIT:          0  MISS:          0
cpu0_L1I WRITEBACK ACCESS:          0  HIT:          0  MISS:          0
cpu0_STLB TOTAL     ACCESS:      24417  HIT:      11168  MISS:      13249
cpu0_STLB LOAD      ACCESS:       3314  HIT:          0  MISS:       3314
cpu0_STLB RFO       ACCESS:      21103  HIT:      11168  MISS:       9935
cpu0_STLB PREFETCH  ACCESS:          0  HIT:          0  MISS:          0
cpu0_STLB WRITEBACK ACCESS:          0  HIT:          0  MISS:          0
cpu0_L1D TOTAL     ACCESS:    5336768  HIT:    3938086  MISS:    1398682
cpu0_L1D LOAD      ACCESS:    1351956  HIT:    1140032  MISS:     211924
cpu0_L1D RFO       ACCESS:    3972524  HIT:    2785772  MISS:    1186752
cpu0_L1D PREFETCH  ACCESS:          0  HIT:          0  MISS:          0
cpu0_L1D WRITEBACK ACCESS:          0  HIT:          0  MISS:          0
cpu0_L2C TOTAL     ACCESS:    2585432  HIT:    1718420  MISS:     867012
cpu0_L2C LOAD      ACCESS:     211924  HIT:          0  MISS:     211924
cpu0_L2C RFO       ACCESS:    1186752  HIT:     531687  MISS:     655065
cpu0_L2C PREFETCH  ACCESS:          0  HIT:          0  MISS:          0
cpu0_L2C WRITEBACK ACCESS:    1186750  HIT:    1186733  MISS:         17
LLC TOTAL     ACCESS:    1521966  HIT:     673842  MISS:     848124
LLC LOAD      ACCESS:     211924  HIT:          2  MISS:     211922
LLC RFO       ACCESS:     655045  HIT:      19294  MISS:     635751
LLC PREFETCH  ACCESS:          0  HIT:          0  MISS:          0
LLC WRITEBACK ACCESS:     654991  HIT:     654546  MISS:        445
Heartbeat CPU 0 instructions: 76000001 cycles: 107192252 heartbeat IPC: 0.287794 cumulative IPC: 0.275716 (Simulation time: 1 hr 33 min 21 sec) 

Region of Interest Statistics
cpu0_DTLB TOTAL     ACCESS:    4151889  HIT:    4125537  MISS:      26352
cpu0_DTLB LOAD      ACCESS:    1987854  HIT:    1984278  MISS:       3576
cpu0_DTLB RFO       ACCESS:    2164035  HIT:    2141259  MISS:      22776
cpu0_DTLB PREFETCH  ACCESS:          0  HIT:          0  MISS:          0
cpu0_DTLB WRITEBACK ACCESS:          0  HIT:          0  MISS:          0
cpu0_ITLB TOTAL     ACCESS:     311607  HIT:     311607  MISS:          0
cpu0_ITLB LOAD      ACCESS:     311607  HIT:     311607  MISS:          0
cpu0_ITLB RFO       ACCESS:          0  HIT:          0  MISS:          0
cpu0_ITLB PREFETCH  ACCESS:          0  HIT:          0  MISS:          0
cpu0_ITLB WRITEBACK ACCESS:          0  HIT:          0  MISS:          0
cpu0_L1I TOTAL     ACCESS:     542000  HIT:     542000  MISS:          0
cpu0_L1I LOAD      ACCESS:     542000  HIT:     542000  MISS:          0
cpu0_L1I RFO       ACCESS:          0  HIT:          0  MISS:          0
cpu0_L1I PREFETCH  ACCESS:          0  HIT:          0  MISS:          0
cpu0_L1I WRITEBACK ACCESS:          0  HIT:          0  MISS:          0
cpu0_STLB TOTAL     ACCESS:      26352  HIT:      12054  MISS:      14298
cpu0_STLB LOAD      ACCESS:       3576  HIT:          0  MISS:       3576
cpu0_STLB RFO       ACCESS:      22776  HIT:      12054  MISS:      10722
cpu0_STLB PREFETCH  ACCESS:          0  HIT:          0  MISS:          0
cpu0_STLB WRITEBACK ACCESS:          0  HIT:          0  MISS:          0
cpu0_L1D TOTAL     ACCESS:    5777771  HIT:    4268285  MISS:    1509486
cpu0_L1D LOAD      ACCESS:    1464847  HIT:    1236134  MISS:     228713
cpu0_L1D RFO       ACCESS:    4299587  HIT:    3018820  MISS:    1280767
cpu0_L1D PREFETCH  ACCESS:          0  HIT:          0  MISS:          0
cpu0_L1D WRITEBACK ACCESS:          0  HIT:          0  MISS:          0
cpu0_L2C TOTAL     ACCESS:    2790254  HIT:    1854996  MISS:     935258
cpu0_L2C LOAD      ACCESS:     228713  HIT:          0  MISS:     228713
cpu0_L2C RFO       ACCESS:    1280767  HIT:     574247  MISS:     706520
cpu0_L2C PREFETCH  ACCESS:          0  HIT:          0  MISS:          0
cpu0_L2C WRITEBACK ACCESS:    1280768  HIT:    1280749  MISS:         19
LLC TOTAL     ACCESS:    1641700  HIT:     726418  MISS:     915282
LLC LOAD      ACCESS:     228713  HIT:          2  MISS:     228711
LLC RFO       ACCESS:     706498  HIT:      20383  MISS:     686115
LLC PREFETCH  ACCESS:          0  HIT:          0  MISS:          0
LLC WRITEBACK ACCESS:     706483  HIT:     706033  MISS:        450
Heartbeat CPU 0 instructions: 78000001 cycles: 114013565 heartbeat IPC: 0.293199 cumulative IPC: 0.276895 (Simulation time: 1 hr 38 min 28 sec) 

Region of Interest Statistics
cpu0_DTLB TOTAL     ACCESS:    4464077  HIT:    4435835  MISS:      28242
cpu0_DTLB LOAD      ACCESS:    2139624  HIT:    2135792  MISS:       3832
cpu0_DTLB RFO       ACCESS:    2324453  HIT:    2300043  MISS:      24410
cpu0_DTLB PREFETCH  ACCESS:          0  HIT:          0  MISS:          0
cpu0_DTLB WRITEBACK ACCESS:          0  HIT:          0  MISS:          0
cpu0_ITLB TOTAL     ACCESS:     332782  HIT:     332782  MISS:          0
cpu0_ITLB LOAD      ACCESS:     332782  HIT:     332782  MISS:          0
cpu0_ITLB RFO       ACCESS:          0  HIT:          0  MISS:          0
cpu0_ITLB PREFETCH  ACCESS:          0  HIT:          0  MISS:          0
cpu0_ITLB WRITEBACK ACCESS:          0  HIT:          0  MISS:          0
cpu0_L1I TOTAL     ACCESS:     583384  HIT:     583384  MISS:          0
cpu0_L1I LOAD      ACCESS:     583384  HIT:     583384  MISS:          0
cpu0_L1I RFO       ACCESS:          0  HIT:          0  MISS:          0
cpu0_L1I PREFETCH  ACCESS:          0  HIT:          0  MISS:          0
cpu0_L1I WRITEBACK ACCESS:          0  HIT:          0  MISS:          0
cpu0_STLB TOTAL     ACCESS:      28242  HIT:      12918  MISS:      15324
cpu0_STLB LOAD      ACCESS:       3832  HIT:          0  MISS:       3832
cpu0_STLB RFO       ACCESS:      24410  HIT:      12918  MISS:      11492
cpu0_STLB PREFETCH  ACCESS:          0  HIT:          0  MISS:          0
cpu0_STLB WRITEBACK ACCESS:          0  HIT:          0  MISS:          0
cpu0_L1D TOTAL     ACCESS:    6216909  HIT:    4599119  MISS:    1617790
cpu0_L1D LOAD      ACCESS:    1577870  HIT:    1332747  MISS:     245123
cpu0_L1D RFO       ACCESS:    4624676  HIT:    3252015  MISS:    1372661
cpu0_L1D PREFETCH  ACCESS:          0  HIT:          0  MISS:          0
cpu0_L1D WRITEBACK ACCESS:          0  HIT:          0  MISS:          0
cpu0_L2C TOTAL     ACCESS:    2990449  HIT:    1988234  MISS:    1002215
cpu0_L2C LOAD      ACCESS:     245123  HIT:          0  MISS:     245123
cpu0_L2C RFO       ACCESS:    1372661  HIT:     615594  MISS:     757067
cpu0_L2C PREFETCH  ACCESS:          0  HIT:          0  MISS:          0
cpu0_L2C WRITEBACK ACCESS:    1372659  HIT:    1372640  MISS:         19
LLC TOTAL     ACCESS:    1759263  HIT:     778343  MISS:     980920
LLC LOAD      ACCESS:     245123  HIT:          2  MISS:     245121
LLC RFO       ACCESS:     757045  HIT:      21702  MISS:     735343
LLC PREFETCH  ACCESS:          0  HIT:          0  MISS:          0
LLC WRITEBACK ACCESS:     757089  HIT:     756639  MISS:        450
Heartbeat CPU 0 instructions: 80000000 cycles: 120285098 heartbeat IPC: 0.318901 cumulative IPC: 0.279348 (Simulation time: 1 hr 42 min 53 sec) 

Region of Interest Statistics
cpu0_DTLB TOTAL     ACCESS:    4767796  HIT:    4737828  MISS:      29968
cpu0_DTLB LOAD      ACCESS:    2290214  HIT:    2286148  MISS:       4066
cpu0_DTLB RFO       ACCESS:    2477582  HIT:    2451680  MISS:      25902
cpu0_DTLB PREFETCH  ACCESS:          0  HIT:          0  MISS:          0
cpu0_DTLB WRITEBACK ACCESS:          0  HIT:          0  MISS:          0
cpu0_ITLB TOTAL     ACCESS:     351821  HIT:     351821  MISS:          0
cpu0_ITLB LOAD      ACCESS:     351821  HIT:     351821  MISS:          0
cpu0_ITLB RFO       ACCESS:          0  HIT:          0  MISS:          0
cpu0_ITLB PREFETCH  ACCESS:          0  HIT:          0  MISS:          0
cpu0_ITLB WRITEBACK ACCESS:          0  HIT:          0  MISS:          0
cpu0_L1I TOTAL     ACCESS:     623178  HIT:     623178  MISS:          0
cpu0_L1I LOAD      ACCESS:     623178  HIT:     623178  MISS:          0
cpu0_L1I RFO       ACCESS:          0  HIT:          0  MISS:          0
cpu0_L1I PREFETCH  ACCESS:          0  HIT:          0  MISS:          0
cpu0_L1I WRITEBACK ACCESS:          0  HIT:          0  MISS:          0
cpu0_STLB TOTAL     ACCESS:      29968  HIT:      13708  MISS:      16260
cpu0_STLB LOAD      ACCESS:       4066  HIT:          0  MISS:       4066
cpu0_STLB RFO       ACCESS:      25902  HIT:      13708  MISS:      12194
cpu0_STLB PREFETCH  ACCESS:          0  HIT:          0  MISS:          0
cpu0_STLB WRITEBACK ACCESS:          0  HIT:          0  MISS:          0
cpu0_L1D TOTAL     ACCESS:    6648650  HIT:    4931944  MISS:    1716706
cpu0_L1D LOAD      ACCESS:    1690868  HIT:    1430758  MISS:     260110
cpu0_L1D RFO       ACCESS:    4942483  HIT:    3485893  MISS:    1456590
cpu0_L1D PREFETCH  ACCESS:          0  HIT:          0  MISS:          0
cpu0_L1D WRITEBACK ACCESS:          0  HIT:          0  MISS:          0
cpu0_L2C TOTAL     ACCESS:    3173294  HIT:    2109786  MISS:    1063508
cpu0_L2C LOAD      ACCESS:     260110  HIT:          0  MISS:     260110
cpu0_L2C RFO       ACCESS:    1456590  HIT:     653217  MISS:     803373
cpu0_L2C PREFETCH  ACCESS:          0  HIT:          0  MISS:          0
cpu0_L2C WRITEBACK ACCESS:    1456588  HIT:    1456569  MISS:         19
LLC TOTAL     ACCESS:    1866923  HIT:     826053  MISS:    1040870
LLC LOAD      ACCESS:     260110  HIT:          2  MISS:     260108
LLC RFO       ACCESS:     803351  HIT:      23045  MISS:     780306
LLC PREFETCH  ACCESS:          0  HIT:          0  MISS:          0
LLC WRITEBACK ACCESS:     803456  HIT:     803006  MISS:        450
Heartbeat CPU 0 instructions: 82000000 cycles: 127807262 heartbeat IPC: 0.265881 cumulative IPC: 0.278467 (Simulation time: 1 hr 48 min 12 sec) 

Region of Interest Statistics
cpu0_DTLB TOTAL     ACCESS:    5091180  HIT:    5059109  MISS:      32071
cpu0_DTLB LOAD      ACCESS:    2443719  HIT:    2439367  MISS:       4352
cpu0_DTLB RFO       ACCESS:    2647461  HIT:    2619742  MISS:      27719
cpu0_DTLB PREFETCH  ACCESS:          0  HIT:          0  MISS:          0
cpu0_DTLB WRITEBACK ACCESS:          0  HIT:          0  MISS:          0
cpu0_ITLB TOTAL     ACCESS:     377135  HIT:     377135  MISS:          0
cpu0_ITLB LOAD      ACCESS:     377135  HIT:     377135  MISS:          0
cpu0_ITLB RFO       ACCESS:          0  HIT:          0  MISS:          0
cpu0_ITLB PREFETCH  ACCESS:          0  HIT:          0  MISS:          0
cpu0_ITLB WRITEBACK ACCESS:          0  HIT:          0  MISS:          0
cpu0_L1I TOTAL     ACCESS:     665177  HIT:     665177  MISS:          0
cpu0_L1I LOAD      ACCESS:     665177  HIT:     665177  MISS:          0
cpu0_L1I RFO       ACCESS:          0  HIT:          0  MISS:          0
cpu0_L1I PREFETCH  ACCESS:          0  HIT:          0  MISS:          0
cpu0_L1I WRITEBACK ACCESS:          0  HIT:          0  MISS:          0
cpu0_STLB TOTAL     ACCESS:      32071  HIT:      14670  MISS:      17401
cpu0_STLB LOAD      ACCESS:       4352  HIT:          0  MISS:       4352
cpu0_STLB RFO       ACCESS:      27719  HIT:      14670  MISS:      13049
cpu0_STLB PREFETCH  ACCESS:          0  HIT:          0  MISS:          0
cpu0_STLB WRITEBACK ACCESS:          0  HIT:          0  MISS:          0
cpu0_L1D TOTAL     ACCESS:    7096191  HIT:    5259044  MISS:    1837147
cpu0_L1D LOAD      ACCESS:    1803455  HIT:    1525097  MISS:     278358
cpu0_L1D RFO       ACCESS:    5276296  HIT:    3717513  MISS:    1558783
cpu0_L1D PREFETCH  ACCESS:          0  HIT:          0  MISS:          0
cpu0_L1D WRITEBACK ACCESS:          0  HIT:          0  MISS:          0
cpu0_L2C TOTAL     ACCESS:    3395929  HIT:    2257767  MISS:    1138162
cpu0_L2C LOAD      ACCESS:     278358  HIT:          0  MISS:     278358
cpu0_L2C RFO       ACCESS:    1558783  HIT:     699007  MISS:     859776
cpu0_L2C PREFETCH  ACCESS:          0  HIT:          0  MISS:          0
cpu0_L2C WRITEBACK ACCESS:    1558782  HIT:    1558760  MISS:         22
LLC TOTAL     ACCESS:    1997913  HIT:     883950  MISS:    1113963
LLC LOAD      ACCESS:     278358  HIT:          2  MISS:     278356
LLC RFO       ACCESS:     859752  HIT:      24704  MISS:     835048
LLC PREFETCH  ACCESS:          0  HIT:          0  MISS:          0
LLC WRITEBACK ACCESS:     859797  HIT:     859244  MISS:        553
Heartbeat CPU 0 instructions: 84000004 cycles: 134131913 heartbeat IPC: 0.316224 cumulative IPC: 0.280436 (Simulation time: 1 hr 52 min 37 sec) 

Region of Interest Statistics
cpu0_DTLB TOTAL     ACCESS:    5394746  HIT:    5360946  MISS:      33800
cpu0_DTLB LOAD      ACCESS:    2594260  HIT:    2589673  MISS:       4587
cpu0_DTLB RFO       ACCESS:    2800486  HIT:    2771273  MISS:      29213
cpu0_DTLB PREFETCH  ACCESS:          0  HIT:          0  MISS:          0
cpu0_DTLB WRITEBACK ACCESS:          0  HIT:          0  MISS:          0
cpu0_ITLB TOTAL     ACCESS:     394988  HIT:     394988  MISS:          0
cpu0_ITLB LOAD      ACCESS:     394988  HIT:     394988  MISS:          0
cpu0_ITLB RFO       ACCESS:          0  HIT:          0  MISS:          0
cpu0_ITLB PREFETCH  ACCESS:          0  HIT:          0  MISS:          0
cpu0_ITLB WRITEBACK ACCESS:          0  HIT:          0  MISS:          0
cpu0_L1I TOTAL     ACCESS:     706579  HIT:     706579  MISS:          0
cpu0_L1I LOAD      ACCESS:     706579  HIT:     706579  MISS:          0
cpu0_L1I RFO       ACCESS:          0  HIT:          0  MISS:          0
cpu0_L1I PREFETCH  ACCESS:          0  HIT:          0  MISS:          0
cpu0_L1I WRITEBACK ACCESS:          0  HIT:          0  MISS:          0
cpu0_STLB TOTAL     ACCESS:      33800  HIT:      15460  MISS:      18340
cpu0_STLB LOAD      ACCESS:       4587  HIT:          0  MISS:       4587
cpu0_STLB RFO       ACCESS:      29213  HIT:      15460  MISS:      13753
cpu0_STLB PREFETCH  ACCESS:          0  HIT:          0  MISS:          0
cpu0_STLB WRITEBACK ACCESS:          0  HIT:          0  MISS:          0
cpu0_L1D TOTAL     ACCESS:    7528325  HIT:    5592189  MISS:    1936136
cpu0_L1D LOAD      ACCESS:    1916479  HIT:    1623121  MISS:     293358
cpu0_L1D RFO       ACCESS:    5594467  HIT:    3951697  MISS:    1642770
cpu0_L1D PREFETCH  ACCESS:          0  HIT:          0  MISS:          0
cpu0_L1D WRITEBACK ACCESS:          0  HIT:          0  MISS:          0
cpu0_L2C TOTAL     ACCESS:    3578906  HIT:    2378975  MISS:    1199931
cpu0_L2C LOAD      ACCESS:     293358  HIT:          0  MISS:     293358
cpu0_L2C RFO       ACCESS:    1642770  HIT:     736232  MISS:     906538
cpu0_L2C PREFETCH  ACCESS:          0  HIT:          0  MISS:          0
cpu0_L2C WRITEBACK ACCESS:    1642770  HIT:    1642743  MISS:         27
LLC TOTAL     ACCESS:    2106456  HIT:     932329  MISS:    1174127
LLC LOAD      ACCESS:     293358  HIT:          2  MISS:     293356
LLC RFO       ACCESS:     906514  HIT:      26474  MISS:     880040
LLC PREFETCH  ACCESS:          0  HIT:          0  MISS:          0
LLC WRITEBACK ACCESS:     906576  HIT:     905853  MISS:        723
Heartbeat CPU 0 instructions: 86000003 cycles: 140315947 heartbeat IPC: 0.323413 cumulative IPC: 0.282522 (Simulation time: 1 hr 56 min 59 sec) 

Region of Interest Statistics
cpu0_DTLB TOTAL     ACCESS:    5696548  HIT:    5661049  MISS:      35499
cpu0_DTLB LOAD      ACCESS:    2744151  HIT:    2739334  MISS:       4817
cpu0_DTLB RFO       ACCESS:    2952397  HIT:    2921715  MISS:      30682
cpu0_DTLB PREFETCH  ACCESS:          0  HIT:          0  MISS:          0
cpu0_DTLB WRITEBACK ACCESS:          0  HIT:          0  MISS:          0
cpu0_ITLB TOTAL     ACCESS:     413073  HIT:     413073  MISS:          0
cpu0_ITLB LOAD      ACCESS:     413073  HIT:     413073  MISS:          0
cpu0_ITLB RFO       ACCESS:          0  HIT:          0  MISS:          0
cpu0_ITLB PREFETCH  ACCESS:          0  HIT:          0  MISS:          0
cpu0_ITLB WRITEBACK ACCESS:          0  HIT:          0  MISS:          0
cpu0_L1I TOTAL     ACCESS:     746604  HIT:     746604  MISS:          0
cpu0_L1I LOAD      ACCESS:     746604  HIT:     746604  MISS:          0
cpu0_L1I RFO       ACCESS:          0  HIT:          0  MISS:          0
cpu0_L1I PREFETCH  ACCESS:          0  HIT:          0  MISS:          0
cpu0_L1I WRITEBACK ACCESS:          0  HIT:          0  MISS:          0
cpu0_STLB TOTAL     ACCESS:      35499  HIT:      16237  MISS:      19262
cpu0_STLB LOAD      ACCESS:       4817  HIT:          0  MISS:       4817
cpu0_STLB RFO       ACCESS:      30682  HIT:      16237  MISS:      14445
cpu0_STLB PREFETCH  ACCESS:          0  HIT:          0  MISS:          0
cpu0_STLB WRITEBACK ACCESS:          0  HIT:          0  MISS:          0
cpu0_L1D TOTAL     ACCESS:    7958766  HIT:    5925259  MISS:    2033507
cpu0_L1D LOAD      ACCESS:    2029372  HIT:    1721261  MISS:     308111
cpu0_L1D RFO       ACCESS:    5911093  HIT:    4185705  MISS:    1725388
cpu0_L1D PREFETCH  ACCESS:          0  HIT:          0  MISS:          0
cpu0_L1D WRITEBACK ACCESS:          0  HIT:          0  MISS:          0
cpu0_L2C TOTAL     ACCESS:    3758894  HIT:    2498100  MISS:    1260794
cpu0_L2C LOAD      ACCESS:     308111  HIT:          0  MISS:     308111
cpu0_L2C RFO       ACCESS:    1725388  HIT:     772740  MISS:     952648
cpu0_L2C PREFETCH  ACCESS:          0  HIT:          0  MISS:          0
cpu0_L2C WRITEBACK ACCESS:    1725387  HIT:    1725360  MISS:         27
LLC TOTAL     ACCESS:    2213436  HIT:     980291  MISS:    1233145
LLC LOAD      ACCESS:     308111  HIT:          2  MISS:     308109
LLC RFO       ACCESS:     952622  HIT:      28322  MISS:     924300
LLC PREFETCH  ACCESS:          0  HIT:          0  MISS:          0
LLC WRITEBACK ACCESS:     952695  HIT:     951967  MISS:        728
Heartbeat CPU 0 instructions: 88000000 cycles: 146941808 heartbeat IPC: 0.301847 cumulative IPC: 0.283477 (Simulation time: 2 hr 1 min 39 sec) 

Region of Interest Statistics
cpu0_DTLB TOTAL     ACCESS:    6004842  HIT:    5967527  MISS:      37315
cpu0_DTLB LOAD      ACCESS:    2895413  HIT:    2890349  MISS:       5064
cpu0_DTLB RFO       ACCESS:    3109429  HIT:    3077178  MISS:      32251
cpu0_DTLB PREFETCH  ACCESS:          0  HIT:          0  MISS:          0
cpu0_DTLB WRITEBACK ACCESS:          0  HIT:          0  MISS:          0
cpu0_ITLB TOTAL     ACCESS:     433120  HIT:     433120  MISS:          0
cpu0_ITLB LOAD      ACCESS:     433120  HIT:     433120  MISS:          0
cpu0_ITLB RFO       ACCESS:          0  HIT:          0  MISS:          0
cpu0_ITLB PREFETCH  ACCESS:          0  HIT:          0  MISS:          0
cpu0_ITLB WRITEBACK ACCESS:          0  HIT:          0  MISS:          0
cpu0_L1I TOTAL     ACCESS:     787201  HIT:     787201  MISS:          0
cpu0_L1I LOAD      ACCESS:     787201  HIT:     787201  MISS:          0
cpu0_L1I RFO       ACCESS:          0  HIT:          0  MISS:          0
cpu0_L1I PREFETCH  ACCESS:          0  HIT:          0  MISS:          0
cpu0_L1I WRITEBACK ACCESS:          0  HIT:          0  MISS:          0
cpu0_STLB TOTAL     ACCESS:      37315  HIT:      17068  MISS:      20247
cpu0_STLB LOAD      ACCESS:       5064  HIT:          0  MISS:       5064
cpu0_STLB RFO       ACCESS:      32251  HIT:      17068  MISS:      15183
cpu0_STLB PREFETCH  ACCESS:          0  HIT:          0  MISS:          0
cpu0_STLB WRITEBACK ACCESS:          0  HIT:          0  MISS:          0
cpu0_L1D TOTAL     ACCESS:    8394593  HIT:    6257153  MISS:    2137440
cpu0_L1D LOAD      ACCESS:    2142376  HIT:    1818518  MISS:     323858
cpu0_L1D RFO       ACCESS:    6232931  HIT:    4419358  MISS:    1813573
cpu0_L1D PREFETCH  ACCESS:          0  HIT:          0  MISS:          0
cpu0_L1D WRITEBACK ACCESS:          0  HIT:          0  MISS:          0
cpu0_L2C TOTAL     ACCESS:    3951007  HIT:    2625909  MISS:    1325098
cpu0_L2C LOAD      ACCESS:     323858  HIT:          0  MISS:     323858
cpu0_L2C RFO       ACCESS:    1813573  HIT:     812369  MISS:    1001204
cpu0_L2C PREFETCH  ACCESS:          0  HIT:          0  MISS:          0
cpu0_L2C WRITEBACK ACCESS:    1813567  HIT:    1813540  MISS:         27
LLC TOTAL     ACCESS:    2326491  HIT:    1030355  MISS:    1296136
LLC LOAD      ACCESS:     323858  HIT:          2  MISS:     323856
LLC RFO       ACCESS:    1001178  HIT:      29635  MISS:     971543
LLC PREFETCH  ACCESS:          0  HIT:          0  MISS:          0
LLC WRITEBACK ACCESS:    1001446  HIT:    1000718  MISS:        728
Heartbeat CPU 0 instructions: 90000001 cycles: 153622333 heartbeat IPC: 0.299378 cumulative IPC: 0.284232 (Simulation time: 2 hr 6 min 12 sec) 

Region of Interest Statistics
cpu0_DTLB TOTAL     ACCESS:    6314527  HIT:    6275370  MISS:      39157
cpu0_DTLB LOAD      ACCESS:    3046788  HIT:    3041475  MISS:       5313
cpu0_DTLB RFO       ACCESS:    3267739  HIT:    3233895  MISS:      33844
cpu0_DTLB PREFETCH  ACCESS:          0  HIT:          0  MISS:          0
cpu0_DTLB WRITEBACK ACCESS:          0  HIT:          0  MISS:          0
cpu0_ITLB TOTAL     ACCESS:     453379  HIT:     453379  MISS:          0
cpu0_ITLB LOAD      ACCESS:     453379  HIT:     453379  MISS:          0
cpu0_ITLB RFO       ACCESS:          0  HIT:          0  MISS:          0
cpu0_ITLB PREFETCH  ACCESS:          0  HIT:          0  MISS:          0
cpu0_ITLB WRITEBACK ACCESS:          0  HIT:          0  MISS:          0
cpu0_L1I TOTAL     ACCESS:     828620  HIT:     828620  MISS:          0
cpu0_L1I LOAD      ACCESS:     828620  HIT:     828620  MISS:          0
cpu0_L1I RFO       ACCESS:          0  HIT:          0  MISS:          0
cpu0_L1I PREFETCH  ACCESS:          0  HIT:          0  MISS:          0
cpu0_L1I WRITEBACK ACCESS:          0  HIT:          0  MISS:          0
cpu0_STLB TOTAL     ACCESS:      39157  HIT:      17911  MISS:      21246
cpu0_STLB LOAD      ACCESS:       5313  HIT:          0  MISS:       5313
cpu0_STLB RFO       ACCESS:      33844  HIT:      17911  MISS:      15933
cpu0_STLB PREFETCH  ACCESS:          0  HIT:          0  MISS:          0
cpu0_STLB WRITEBACK ACCESS:          0  HIT:          0  MISS:          0
cpu0_L1D TOTAL     ACCESS:    8831437  HIT:    6588411  MISS:    2243026
cpu0_L1D LOAD      ACCESS:    2255289  HIT:    1915432  MISS:     339857
cpu0_L1D RFO       ACCESS:    6555863  HIT:    4652703  MISS:    1903160
cpu0_L1D PREFETCH  ACCESS:          0  HIT:          0  MISS:          0
cpu0_L1D WRITEBACK ACCESS:          0  HIT:          0  MISS:          0
cpu0_L2C TOTAL     ACCESS:    4146187  HIT:    2756064  MISS:    1390123
cpu0_L2C LOAD      ACCESS:     339857  HIT:          0  MISS:     339857
cpu0_L2C RFO       ACCESS:    1903160  HIT:     852930  MISS:    1050230
cpu0_L2C PREFETCH  ACCESS:          0  HIT:          0  MISS:          0
cpu0_L2C WRITEBACK ACCESS:    1903161  HIT:    1903134  MISS:         27
LLC TOTAL     ACCESS:    2440372  HIT:    1080247  MISS:    1360125
LLC LOAD      ACCESS:     339857  HIT:          2  MISS:     339855
LLC RFO       ACCESS:    1050204  HIT:      30671  MISS:    1019533
LLC PREFETCH  ACCESS:          0  HIT:          0  MISS:          0
LLC WRITEBACK ACCESS:    1050302  HIT:    1049574  MISS:        728
Heartbeat CPU 0 instructions: 92000002 cycles: 159981373 heartbeat IPC: 0.314513 cumulative IPC: 0.285541 (Simulation time: 2 hr 10 min 20 sec) 

Region of Interest Statistics
cpu0_DTLB TOTAL     ACCESS:    6619398  HIT:    6578488  MISS:      40910
cpu0_DTLB LOAD      ACCESS:    3197479  HIT:    3191928  MISS:       5551
cpu0_DTLB RFO       ACCESS:    3421919  HIT:    3386560  MISS:      35359
cpu0_DTLB PREFETCH  ACCESS:          0  HIT:          0  MISS:          0
cpu0_DTLB WRITEBACK ACCESS:          0  HIT:          0  MISS:          0
cpu0_ITLB TOTAL     ACCESS:     472496  HIT:     472496  MISS:          0
cpu0_ITLB LOAD      ACCESS:     472496  HIT:     472496  MISS:          0
cpu0_ITLB RFO       ACCESS:          0  HIT:          0  MISS:          0
cpu0_ITLB PREFETCH  ACCESS:          0  HIT:          0  MISS:          0
cpu0_ITLB WRITEBACK ACCESS:          0  HIT:          0  MISS:          0
cpu0_L1I TOTAL     ACCESS:     868767  HIT:     868767  MISS:          0
cpu0_L1I LOAD      ACCESS:     868767  HIT:     868767  MISS:          0
cpu0_L1I RFO       ACCESS:          0  HIT:          0  MISS:          0
cpu0_L1I PREFETCH  ACCESS:          0  HIT:          0  MISS:          0
cpu0_L1I WRITEBACK ACCESS:          0  HIT:          0  MISS:          0
cpu0_STLB TOTAL     ACCESS:      40910  HIT:      18714  MISS:      22196
cpu0_STLB LOAD      ACCESS:       5551  HIT:          0  MISS:       5551
cpu0_STLB RFO       ACCESS:      35359  HIT:      18714  MISS:      16645
cpu0_STLB PREFETCH  ACCESS:          0  HIT:          0  MISS:          0
cpu0_STLB WRITEBACK ACCESS:          0  HIT:          0  MISS:          0
cpu0_L1D TOTAL     ACCESS:    9264375  HIT:    6920948  MISS:    2343427
cpu0_L1D LOAD      ACCESS:    2368322  HIT:    2013253  MISS:     355069
cpu0_L1D RFO       ACCESS:    6875021  HIT:    4886672  MISS:    1988349
cpu0_L1D PREFETCH  ACCESS:          0  HIT:          0  MISS:          0
cpu0_L1D WRITEBACK ACCESS:          0  HIT:          0  MISS:          0
cpu0_L2C TOTAL     ACCESS:    4331773  HIT:    2879049  MISS:    1452724
cpu0_L2C LOAD      ACCESS:     355069  HIT:          0  MISS:     355069
cpu0_L2C RFO       ACCESS:    1988349  HIT:     890730  MISS:    1097619
cpu0_L2C PREFETCH  ACCESS:          0  HIT:          0  MISS:          0
cpu0_L2C WRITEBACK ACCESS:    1988346  HIT:    1988319  MISS:         27
LLC TOTAL     ACCESS:    2550461  HIT:    1129458  MISS:    1421003
LLC LOAD      ACCESS:     355069  HIT:          2  MISS:     355067
LLC RFO       ACCESS:    1097593  HIT:      32420  MISS:    1065173
LLC PREFETCH  ACCESS:          0  HIT:          0  MISS:          0
LLC WRITEBACK ACCESS:    1097790  HIT:    1097036  MISS:        754
Heartbeat CPU 0 instructions: 94000003 cycles: 166359287 heartbeat IPC: 0.313582 cumulative IPC: 0.286706 (Simulation time: 2 hr 14 min 37 sec) 

Region of Interest Statistics
cpu0_DTLB TOTAL     ACCESS:    6924224  HIT:    6881559  MISS:      42665
cpu0_DTLB LOAD      ACCESS:    3347962  HIT:    3342173  MISS:       5789
cpu0_DTLB RFO       ACCESS:    3576262  HIT:    3539386  MISS:      36876
cpu0_DTLB PREFETCH  ACCESS:          0  HIT:          0  MISS:          0
cpu0_DTLB WRITEBACK ACCESS:          0  HIT:          0  MISS:          0
cpu0_ITLB TOTAL     ACCESS:     491888  HIT:     491888  MISS:          0
cpu0_ITLB LOAD      ACCESS:     491888  HIT:     491888  MISS:          0
cpu0_ITLB RFO       ACCESS:          0  HIT:          0  MISS:          0
cpu0_ITLB PREFETCH  ACCESS:          0  HIT:          0  MISS:          0
cpu0_ITLB WRITEBACK ACCESS:          0  HIT:          0  MISS:          0
cpu0_L1I TOTAL     ACCESS:     908470  HIT:     908470  MISS:          0
cpu0_L1I LOAD      ACCESS:     908470  HIT:     908470  MISS:          0
cpu0_L1I RFO       ACCESS:          0  HIT:          0  MISS:          0
cpu0_L1I PREFETCH  ACCESS:          0  HIT:          0  MISS:          0
cpu0_L1I WRITEBACK ACCESS:          0  HIT:          0  MISS:          0
cpu0_STLB TOTAL     ACCESS:      42665  HIT:      19517  MISS:      23148
cpu0_STLB LOAD      ACCESS:       5789  HIT:          0  MISS:       5789
cpu0_STLB RFO       ACCESS:      36876  HIT:      19517  MISS:      17359
cpu0_STLB PREFETCH  ACCESS:          0  HIT:          0  MISS:          0
cpu0_STLB WRITEBACK ACCESS:          0  HIT:          0  MISS:          0
cpu0_L1D TOTAL     ACCESS:    9697170  HIT:    7253194  MISS:    2443976
cpu0_L1D LOAD      ACCESS:    2481282  HIT:    2110978  MISS:     370304
cpu0_L1D RFO       ACCESS:    7194138  HIT:    5120475  MISS:    2073663
cpu0_L1D PREFETCH  ACCESS:          0  HIT:          0  MISS:          0
cpu0_L1D WRITEBACK ACCESS:          0  HIT:          0  MISS:          0
cpu0_L2C TOTAL     ACCESS:    4517637  HIT:    3002850  MISS:    1514787
cpu0_L2C LOAD      ACCESS:     370304  HIT:          0  MISS:     370304
cpu0_L2C RFO       ACCESS:    2073663  HIT:     929216  MISS:    1144447
cpu0_L2C PREFETCH  ACCESS:          0  HIT:          0  MISS:          0
cpu0_L2C WRITEBACK ACCESS:    2073661  HIT:    2073634  MISS:         27
LLC TOTAL     ACCESS:    2659138  HIT:    1177180  MISS:    1481958
LLC LOAD      ACCESS:     370304  HIT:          2  MISS:     370302
LLC RFO       ACCESS:    1144421  HIT:      33545  MISS:    1110876
LLC PREFETCH  ACCESS:          0  HIT:          0  MISS:          0
LLC WRITEBACK ACCESS:    1144404  HIT:    1143633  MISS:        771
Heartbeat CPU 0 instructions: 96000000 cycles: 172880917 heartbeat IPC: 0.306671 cumulative IPC: 0.28752 (Simulation time: 2 hr 19 min 9 sec) 

Region of Interest Statistics
cpu0_DTLB TOTAL     ACCESS:    7231727  HIT:    7187270  MISS:      44457
cpu0_DTLB LOAD      ACCESS:    3499489  HIT:    3493456  MISS:       6033
cpu0_DTLB RFO       ACCESS:    3732238  HIT:    3693814  MISS:      38424
cpu0_DTLB PREFETCH  ACCESS:          0  HIT:          0  MISS:          0
cpu0_DTLB WRITEBACK ACCESS:          0  HIT:          0  MISS:          0
cpu0_ITLB TOTAL     ACCESS:     510527  HIT:     510527  MISS:          0
cpu0_ITLB LOAD      ACCESS:     510527  HIT:     510527  MISS:          0
cpu0_ITLB RFO       ACCESS:          0  HIT:          0  MISS:          0
cpu0_ITLB PREFETCH  ACCESS:          0  HIT:          0  MISS:          0
cpu0_ITLB WRITEBACK ACCESS:          0  HIT:          0  MISS:          0
cpu0_L1I TOTAL     ACCESS:     950781  HIT:     950781  MISS:          0
cpu0_L1I LOAD      ACCESS:     950781  HIT:     950781  MISS:          0
cpu0_L1I RFO       ACCESS:          0  HIT:          0  MISS:          0
cpu0_L1I PREFETCH  ACCESS:          0  HIT:          0  MISS:          0
cpu0_L1I WRITEBACK ACCESS:          0  HIT:          0  MISS:          0
cpu0_STLB TOTAL     ACCESS:      44457  HIT:      20333  MISS:      24124
cpu0_STLB LOAD      ACCESS:       6033  HIT:          0  MISS:       6033
cpu0_STLB RFO       ACCESS:      38424  HIT:      20333  MISS:      18091
cpu0_STLB PREFETCH  ACCESS:          0  HIT:          0  MISS:          0
cpu0_STLB WRITEBACK ACCESS:          0  HIT:          0  MISS:          0
cpu0_L1D TOTAL     ACCESS:   10131931  HIT:    7585232  MISS:    2546699
cpu0_L1D LOAD      ACCESS:    2594334  HIT:    2208464  MISS:     385870
cpu0_L1D RFO       ACCESS:    7515111  HIT:    5354293  MISS:    2160818
cpu0_L1D PREFETCH  ACCESS:          0  HIT:          0  MISS:          0
cpu0_L1D WRITEBACK ACCESS:          0  HIT:          0  MISS:          0
cpu0_L2C TOTAL     ACCESS:    4707515  HIT:    3129220  MISS:    1578295
cpu0_L2C LOAD      ACCESS:     385870  HIT:          0  MISS:     385870
cpu0_L2C RFO       ACCESS:    2160818  HIT:     968436  MISS:    1192382
cpu0_L2C PREFETCH  ACCESS:          0  HIT:          0  MISS:          0
cpu0_L2C WRITEBACK ACCESS:    2160816  HIT:    2160784  MISS:         32
LLC TOTAL     ACCESS:    2770548  HIT:    1226270  MISS:    1544278
LLC LOAD      ACCESS:     385870  HIT:          2  MISS:     385868
LLC RFO       ACCESS:    1192356  HIT:      34796  MISS:    1157560
LLC PREFETCH  ACCESS:          0  HIT:          0  MISS:          0
LLC WRITEBACK ACCESS:    1192311  HIT:    1191472  MISS:        839
Heartbeat CPU 0 instructions: 98000003 cycles: 178980594 heartbeat IPC: 0.327887 cumulative IPC: 0.289003 (Simulation time: 2 hr 22 min 51 sec) 

Region of Interest Statistics
cpu0_DTLB TOTAL     ACCESS:    7531938  HIT:    7485811  MISS:      46127
cpu0_DTLB LOAD      ACCESS:    3649307  HIT:    3643047  MISS:       6260
cpu0_DTLB RFO       ACCESS:    3882631  HIT:    3842764  MISS:      39867
cpu0_DTLB PREFETCH  ACCESS:          0  HIT:          0  MISS:          0
cpu0_DTLB WRITEBACK ACCESS:          0  HIT:          0  MISS:          0
cpu0_ITLB TOTAL     ACCESS:     528298  HIT:     528298  MISS:          0
cpu0_ITLB LOAD      ACCESS:     528298  HIT:     528298  MISS:          0
cpu0_ITLB RFO       ACCESS:          0  HIT:          0  MISS:          0
cpu0_ITLB PREFETCH  ACCESS:          0  HIT:          0  MISS:          0
cpu0_ITLB WRITEBACK ACCESS:          0  HIT:          0  MISS:          0
cpu0_L1I TOTAL     ACCESS:     990383  HIT:     990383  MISS:          0
cpu0_L1I LOAD      ACCESS:     990383  HIT:     990383  MISS:          0
cpu0_L1I RFO       ACCESS:          0  HIT:          0  MISS:          0
cpu0_L1I PREFETCH  ACCESS:          0  HIT:          0  MISS:          0
cpu0_L1I WRITEBACK ACCESS:          0  HIT:          0  MISS:          0
cpu0_STLB TOTAL     ACCESS:      46127  HIT:      21098  MISS:      25029
cpu0_STLB LOAD      ACCESS:       6260  HIT:          0  MISS:       6260
cpu0_STLB RFO       ACCESS:      39867  HIT:      21098  MISS:      18769
cpu0_STLB PREFETCH  ACCESS:          0  HIT:          0  MISS:          0
cpu0_STLB WRITEBACK ACCESS:          0  HIT:          0  MISS:          0
cpu0_L1D TOTAL     ACCESS:   10560972  HIT:    7918753  MISS:    2642219
cpu0_L1D LOAD      ACCESS:    2707284  HIT:    2306942  MISS:     400342
cpu0_L1D RFO       ACCESS:    7830518  HIT:    5588652  MISS:    2241866
cpu0_L1D PREFETCH  ACCESS:          0  HIT:          0  MISS:          0
cpu0_L1D WRITEBACK ACCESS:          0  HIT:          0  MISS:          0
cpu0_L2C TOTAL     ACCESS:    4884082  HIT:    3246515  MISS:    1637567
cpu0_L2C LOAD      ACCESS:     400342  HIT:          0  MISS:     400342
cpu0_L2C RFO       ACCESS:    2241866  HIT:    1004684  MISS:    1237182
cpu0_L2C PREFETCH  ACCESS:          0  HIT:          0  MISS:          0
cpu0_L2C WRITEBACK ACCESS:    2241863  HIT:    2241831  MISS:         32
LLC TOTAL     ACCESS:    2874585  HIT:    1271647  MISS:    1602938
LLC LOAD      ACCESS:     400342  HIT:          2  MISS:     400340
LLC RFO       ACCESS:    1237156  HIT:      36173  MISS:    1200983
LLC PREFETCH  ACCESS:          0  HIT:          0  MISS:          0
LLC WRITEBACK ACCESS:    1237076  HIT:    1235472  MISS:       1604
Heartbeat CPU 0 instructions: 100000002 cycles: 184998545 heartbeat IPC: 0.332339 cumulative IPC: 0.290518 (Simulation time: 2 hr 26 min 48 sec) 

Region of Interest Statistics
cpu0_DTLB TOTAL     ACCESS:    7831438  HIT:    7783666  MISS:      47772
cpu0_DTLB LOAD      ACCESS:    3799386  HIT:    3792903  MISS:       6483
cpu0_DTLB RFO       ACCESS:    4032052  HIT:    3990763  MISS:      41289
cpu0_DTLB PREFETCH  ACCESS:          0  HIT:          0  MISS:          0
cpu0_DTLB WRITEBACK ACCESS:          0  HIT:          0  MISS:          0
cpu0_ITLB TOTAL     ACCESS:     545444  HIT:     545444  MISS:          0
cpu0_ITLB LOAD      ACCESS:     545444  HIT:     545444  MISS:          0
cpu0_ITLB RFO       ACCESS:          0  HIT:          0  MISS:          0
cpu0_ITLB PREFETCH  ACCESS:          0  HIT:          0  MISS:          0
cpu0_ITLB WRITEBACK ACCESS:          0  HIT:          0  MISS:          0
cpu0_L1I TOTAL     ACCESS:    1030210  HIT:    1030210  MISS:          0
cpu0_L1I LOAD      ACCESS:    1030210  HIT:    1030210  MISS:          0
cpu0_L1I RFO       ACCESS:          0  HIT:          0  MISS:          0
cpu0_L1I PREFETCH  ACCESS:          0  HIT:          0  MISS:          0
cpu0_L1I WRITEBACK ACCESS:          0  HIT:          0  MISS:          0
cpu0_STLB TOTAL     ACCESS:      47772  HIT:      21850  MISS:      25922
cpu0_STLB LOAD      ACCESS:       6483  HIT:          0  MISS:       6483
cpu0_STLB RFO       ACCESS:      41289  HIT:      21850  MISS:      19439
cpu0_STLB PREFETCH  ACCESS:          0  HIT:          0  MISS:          0
cpu0_STLB WRITEBACK ACCESS:          0  HIT:          0  MISS:          0
cpu0_L1D TOTAL     ACCESS:   10989488  HIT:    8252989  MISS:    2736499
cpu0_L1D LOAD      ACCESS:    2820417  HIT:    2405790  MISS:     414627
cpu0_L1D RFO       ACCESS:    8145062  HIT:    5823202  MISS:    2321860
cpu0_L1D PREFETCH  ACCESS:          0  HIT:          0  MISS:          0
cpu0_L1D WRITEBACK ACCESS:          0  HIT:          0  MISS:          0
cpu0_L2C TOTAL     ACCESS:    5058357  HIT:    3362317  MISS:    1696040
cpu0_L2C LOAD      ACCESS:     414627  HIT:          0  MISS:     414627
cpu0_L2C RFO       ACCESS:    2321860  HIT:    1040491  MISS:    1281369
cpu0_L2C PREFETCH  ACCESS:          0  HIT:          0  MISS:          0
cpu0_L2C WRITEBACK ACCESS:    2321858  HIT:    2321826  MISS:         32
LLC TOTAL     ACCESS:    2977317  HIT:    1317240  MISS:    1660077
LLC LOAD      ACCESS:     414627  HIT:          2  MISS:     414625
LLC RFO       ACCESS:    1281343  HIT:      37507  MISS:    1243836
LLC PREFETCH  ACCESS:          0  HIT:          0  MISS:          0
LLC WRITEBACK ACCESS:    1281335  HIT:    1279731  MISS:       1604
Heartbeat CPU 0 instructions: 102000000 cycles: 191523351 heartbeat IPC: 0.306522 cumulative IPC: 0.291103 (Simulation time: 2 hr 30 min 38 sec) 

Region of Interest Statistics
cpu0_DTLB TOTAL     ACCESS:    8138520  HIT:    8088953  MISS:      49567
cpu0_DTLB LOAD      ACCESS:    3950389  HIT:    3943663  MISS:       6726
cpu0_DTLB RFO       ACCESS:    4188131  HIT:    4145290  MISS:      42841
cpu0_DTLB PREFETCH  ACCESS:          0  HIT:          0  MISS:          0
cpu0_DTLB WRITEBACK ACCESS:          0  HIT:          0  MISS:          0
cpu0_ITLB TOTAL     ACCESS:     565194  HIT:     565194  MISS:          0
cpu0_ITLB LOAD      ACCESS:     565194  HIT:     565194  MISS:          0
cpu0_ITLB RFO       ACCESS:          0  HIT:          0  MISS:          0
cpu0_ITLB PREFETCH  ACCESS:          0  HIT:          0  MISS:          0
cpu0_ITLB WRITEBACK ACCESS:          0  HIT:          0  MISS:          0
cpu0_L1I TOTAL     ACCESS:    1070639  HIT:    1070639  MISS:          0
cpu0_L1I LOAD      ACCESS:    1070639  HIT:    1070639  MISS:          0
cpu0_L1I RFO       ACCESS:          0  HIT:          0  MISS:          0
cpu0_L1I PREFETCH  ACCESS:          0  HIT:          0  MISS:          0
cpu0_L1I WRITEBACK ACCESS:          0  HIT:          0  MISS:          0
cpu0_STLB TOTAL     ACCESS:      49567  HIT:      22673  MISS:      26894
cpu0_STLB LOAD      ACCESS:       6726  HIT:          0  MISS:       6726
cpu0_STLB RFO       ACCESS:      42841  HIT:      22673  MISS:      20168
cpu0_STLB PREFETCH  ACCESS:          0  HIT:          0  MISS:          0
cpu0_STLB WRITEBACK ACCESS:          0  HIT:          0  MISS:          0
cpu0_L1D TOTAL     ACCESS:   11424181  HIT:    8584948  MISS:    2839233
cpu0_L1D LOAD      ACCESS:    2933339  HIT:    2503146  MISS:     430193
cpu0_L1D RFO       ACCESS:    8465861  HIT:    6056833  MISS:    2409028
cpu0_L1D PREFETCH  ACCESS:          0  HIT:          0  MISS:          0
cpu0_L1D WRITEBACK ACCESS:          0  HIT:          0  MISS:          0
cpu0_L2C TOTAL     ACCESS:    5248258  HIT:    3488660  MISS:    1759598
cpu0_L2C LOAD      ACCESS:     430193  HIT:          0  MISS:     430193
cpu0_L2C RFO       ACCESS:    2409028  HIT:    1079670  MISS:    1329358
cpu0_L2C PREFETCH  ACCESS:          0  HIT:          0  MISS:          0
cpu0_L2C WRITEBACK ACCESS:    2409025  HIT:    2408990  MISS:         35
LLC TOTAL     ACCESS:    3088842  HIT:    1366461  MISS:    1722381
LLC LOAD      ACCESS:     430193  HIT:          2  MISS:     430191
LLC RFO       ACCESS:    1329332  HIT:      38801  MISS:    1290531
LLC PREFETCH  ACCESS:          0  HIT:          0  MISS:          0
LLC WRITEBACK ACCESS:    1329305  HIT:    1327658  MISS:       1647
Heartbeat CPU 0 instructions: 104000001 cycles: 197577871 heartbeat IPC: 0.330332 cumulative IPC: 0.292389 (Simulation time: 2 hr 34 min 34 sec) 

Region of Interest Statistics
cpu0_DTLB TOTAL     ACCESS:    8437523  HIT:    8386314  MISS:      51209
cpu0_DTLB LOAD      ACCESS:    4100058  HIT:    4093109  MISS:       6949
cpu0_DTLB RFO       ACCESS:    4337465  HIT:    4293205  MISS:      44260
cpu0_DTLB PREFETCH  ACCESS:          0  HIT:          0  MISS:          0
cpu0_DTLB WRITEBACK ACCESS:          0  HIT:          0  MISS:          0
cpu0_ITLB TOTAL     ACCESS:     582200  HIT:     582200  MISS:          0
cpu0_ITLB LOAD      ACCESS:     582200  HIT:     582200  MISS:          0
cpu0_ITLB RFO       ACCESS:          0  HIT:          0  MISS:          0
cpu0_ITLB PREFETCH  ACCESS:          0  HIT:          0  MISS:          0
cpu0_ITLB WRITEBACK ACCESS:          0  HIT:          0  MISS:          0
cpu0_L1I TOTAL     ACCESS:    1110530  HIT:    1110530  MISS:          0
cpu0_L1I LOAD      ACCESS:    1110530  HIT:    1110530  MISS:          0
cpu0_L1I RFO       ACCESS:          0  HIT:          0  MISS:          0
cpu0_L1I PREFETCH  ACCESS:          0  HIT:          0  MISS:          0
cpu0_L1I WRITEBACK ACCESS:          0  HIT:          0  MISS:          0
cpu0_STLB TOTAL     ACCESS:      51209  HIT:      23423  MISS:      27786
cpu0_STLB LOAD      ACCESS:       6949  HIT:          0  MISS:       6949
cpu0_STLB RFO       ACCESS:      44260  HIT:      23423  MISS:      20837
cpu0_STLB PREFETCH  ACCESS:          0  HIT:          0  MISS:          0
cpu0_STLB WRITEBACK ACCESS:          0  HIT:          0  MISS:          0
cpu0_L1D TOTAL     ACCESS:   11852476  HIT:    8919140  MISS:    2933336
cpu0_L1D LOAD      ACCESS:    3046510  HIT:    2602054  MISS:     444456
cpu0_L1D RFO       ACCESS:    8780093  HIT:    6291225  MISS:    2488868
cpu0_L1D PREFETCH  ACCESS:          0  HIT:          0  MISS:          0
cpu0_L1D WRITEBACK ACCESS:          0  HIT:          0  MISS:          0
cpu0_L2C TOTAL     ACCESS:    5422209  HIT:    3604059  MISS:    1818150
cpu0_L2C LOAD      ACCESS:     444456  HIT:          0  MISS:     444456
cpu0_L2C RFO       ACCESS:    2488868  HIT:    1115221  MISS:    1373647
cpu0_L2C PREFETCH  ACCESS:          0  HIT:          0  MISS:          0
cpu0_L2C WRITEBACK ACCESS:    2488873  HIT:    2488838  MISS:         35
LLC TOTAL     ACCESS:    3191968  HIT:    1412519  MISS:    1779449
LLC LOAD      ACCESS:     444456  HIT:          2  MISS:     444454
LLC RFO       ACCESS:    1373621  HIT:      40326  MISS:    1333295
LLC PREFETCH  ACCESS:          0  HIT:          0  MISS:          0
LLC WRITEBACK ACCESS:    1373879  HIT:    1372191  MISS:       1688
Heartbeat CPU 0 instructions: 106000001 cycles: 203660404 heartbeat IPC: 0.32881 cumulative IPC: 0.29355 (Simulation time: 2 hr 38 min 19 sec) 

Region of Interest Statistics
cpu0_DTLB TOTAL     ACCESS:    8736924  HIT:    8684066  MISS:      52858
cpu0_DTLB LOAD      ACCESS:    4249861  HIT:    4242689  MISS:       7172
cpu0_DTLB RFO       ACCESS:    4487063  HIT:    4441377  MISS:      45686
cpu0_DTLB PREFETCH  ACCESS:          0  HIT:          0  MISS:          0
cpu0_DTLB WRITEBACK ACCESS:          0  HIT:          0  MISS:          0
cpu0_ITLB TOTAL     ACCESS:     599235  HIT:     599235  MISS:          0
cpu0_ITLB LOAD      ACCESS:     599235  HIT:     599235  MISS:          0
cpu0_ITLB RFO       ACCESS:          0  HIT:          0  MISS:          0
cpu0_ITLB PREFETCH  ACCESS:          0  HIT:          0  MISS:          0
cpu0_ITLB WRITEBACK ACCESS:          0  HIT:          0  MISS:          0
cpu0_L1I TOTAL     ACCESS:    1150438  HIT:    1150438  MISS:          0
cpu0_L1I LOAD      ACCESS:    1150438  HIT:    1150438  MISS:          0
cpu0_L1I RFO       ACCESS:          0  HIT:          0  MISS:          0
cpu0_L1I PREFETCH  ACCESS:          0  HIT:          0  MISS:          0
cpu0_L1I WRITEBACK ACCESS:          0  HIT:          0  MISS:          0
cpu0_STLB TOTAL     ACCESS:      52858  HIT:      24178  MISS:      28680
cpu0_STLB LOAD      ACCESS:       7172  HIT:          0  MISS:       7172
cpu0_STLB RFO       ACCESS:      45686  HIT:      24178  MISS:      21508
cpu0_STLB PREFETCH  ACCESS:          0  HIT:          0  MISS:          0
cpu0_STLB WRITEBACK ACCESS:          0  HIT:          0  MISS:          0
cpu0_L1D TOTAL     ACCESS:   12281320  HIT:    9253460  MISS:    3027860
cpu0_L1D LOAD      ACCESS:    3159615  HIT:    2700842  MISS:     458773
cpu0_L1D RFO       ACCESS:    9094938  HIT:    6525863  MISS:    2569075
cpu0_L1D PREFETCH  ACCESS:          0  HIT:          0  MISS:          0
cpu0_L1D WRITEBACK ACCESS:          0  HIT:          0  MISS:          0
cpu0_L2C TOTAL     ACCESS:    5596933  HIT:    3720034  MISS:    1876899
cpu0_L2C LOAD      ACCESS:     458773  HIT:          0  MISS:     458773
cpu0_L2C RFO       ACCESS:    2569075  HIT:    1150996  MISS:    1418079
cpu0_L2C PREFETCH  ACCESS:          0  HIT:          0  MISS:          0
[...]
LLC WRITEBACK ACCESS:   43716576  HIT:   43635244  MISS:      81332
Heartbeat CPU 0 instructions: 1550000000 cycles: 5806713890 heartbeat IPC: 0.207678 cumulative IPC: 0.258896 (Simulation time: 26 hr 41 min 45 sec) 

Region of Interest Statistics
cpu0_DTLB TOTAL     ACCESS:  245389455  HIT:  243759990  MISS:    1629465
cpu0_DTLB LOAD      ACCESS:  115590234  HIT:  115368966  MISS:     221268
cpu0_DTLB RFO       ACCESS:  129799221  HIT:  128391024  MISS:    1408197
cpu0_DTLB PREFETCH  ACCESS:          0  HIT:          0  MISS:          0
cpu0_DTLB WRITEBACK ACCESS:          0  HIT:          0  MISS:          0
cpu0_ITLB TOTAL     ACCESS:   20158103  HIT:   20158102  MISS:          1
cpu0_ITLB LOAD      ACCESS:   20158103  HIT:   20158102  MISS:          1
cpu0_ITLB RFO       ACCESS:          0  HIT:          0  MISS:          0
cpu0_ITLB PREFETCH  ACCESS:          0  HIT:          0  MISS:          0
cpu0_ITLB WRITEBACK ACCESS:          0  HIT:          0  MISS:          0
cpu0_L1I TOTAL     ACCESS:   31691011  HIT:   31691008  MISS:          3
cpu0_L1I LOAD      ACCESS:   31691011  HIT:   31691008  MISS:          3
cpu0_L1I RFO       ACCESS:          0  HIT:          0  MISS:          0
cpu0_L1I PREFETCH  ACCESS:          0  HIT:          0  MISS:          0
cpu0_L1I WRITEBACK ACCESS:          0  HIT:          0  MISS:          0
cpu0_STLB TOTAL     ACCESS:    1629466  HIT:     744639  MISS:     884827
cpu0_STLB LOAD      ACCESS:     221269  HIT:          1  MISS:     221268
cpu0_STLB RFO       ACCESS:    1408197  HIT:     744638  MISS:     663559
cpu0_STLB PREFETCH  ACCESS:          0  HIT:          0  MISS:          0
cpu0_STLB WRITEBACK ACCESS:          0  HIT:          0  MISS:          0
cpu0_L1D TOTAL     ACCESS:  337808196  HIT:  244401297  MISS:   93406899
cpu0_L1D LOAD      ACCESS:   84248037  HIT:   70094745  MISS:   14153292
cpu0_L1D RFO       ACCESS:  252727728  HIT:  173474513  MISS:   79253215
cpu0_L1D PREFETCH  ACCESS:          0  HIT:          0  MISS:          0
cpu0_L1D WRITEBACK ACCESS:          0  HIT:          0  MISS:          0
cpu0_L2C TOTAL     ACCESS:  172660111  HIT:  114716175  MISS:   57943936
cpu0_L2C LOAD      ACCESS:   14153295  HIT:        277  MISS:   14153018
cpu0_L2C RFO       ACCESS:   79253208  HIT:   35464593  MISS:   43788615
cpu0_L2C PREFETCH  ACCESS:          0  HIT:          0  MISS:          0
cpu0_L2C WRITEBACK ACCESS:   79253216  HIT:   79251305  MISS:       1911
LLC TOTAL     ACCESS:  101731095  HIT:   45039368  MISS:   56691727
LLC LOAD      ACCESS:   14153018  HIT:        320  MISS:   14152698
LLC RFO       ACCESS:   43787194  HIT:    1329913  MISS:   42457281
LLC PREFETCH  ACCESS:          0  HIT:          0  MISS:          0
LLC WRITEBACK ACCESS:   43790491  HIT:   43709135  MISS:      81356
Finished CPU 0 instructions: 1500000002 cycles: 5793821675 cumulative IPC: 0.258896 (Simulation time: 26 hr 41 min 45 sec) 

ChampSim completed all CPUs

Region of Interest Statistics

CPU 0 cumulative IPC: 0.258896 instructions: 1500000002 cycles: 5793821675
cpu0_DTLB TOTAL     ACCESS:  245389455  HIT:  243759990  MISS:    1629465
cpu0_DTLB LOAD      ACCESS:  115590234  HIT:  115368966  MISS:     221268
cpu0_DTLB RFO       ACCESS:  129799221  HIT:  128391024  MISS:    1408197
cpu0_DTLB PREFETCH  ACCESS:          0  HIT:          0  MISS:          0
cpu0_DTLB WRITEBACK ACCESS:          0  HIT:          0  MISS:          0
cpu0_DTLB TRANSLATION ACCESS:          0  HIT:          0  MISS:          0
cpu0_DTLB PREFETCH  REQUESTED:          0  ISSUED:          0  USEFUL:          0  USELESS:          0
cpu0_DTLB AVERAGE MISS LATENCY: 427.785 cycles
cpu0_ITLB TOTAL     ACCESS:   20158103  HIT:   20158102  MISS:          1
cpu0_ITLB LOAD      ACCESS:   20158103  HIT:   20158102  MISS:          1
cpu0_ITLB RFO       ACCESS:          0  HIT:          0  MISS:          0
cpu0_ITLB PREFETCH  ACCESS:          0  HIT:          0  MISS:          0
cpu0_ITLB WRITEBACK ACCESS:          0  HIT:          0  MISS:          0
cpu0_ITLB TRANSLATION ACCESS:          0  HIT:          0  MISS:          0
cpu0_ITLB PREFETCH  REQUESTED:          0  ISSUED:          0  USEFUL:          0  USELESS:          0
cpu0_ITLB AVERAGE MISS LATENCY: 957 cycles
cpu0_L1I TOTAL     ACCESS:   31691011  HIT:   31691008  MISS:          3
cpu0_L1I LOAD      ACCESS:   31691011  HIT:   31691008  MISS:          3
cpu0_L1I RFO       ACCESS:          0  HIT:          0  MISS:          0
cpu0_L1I PREFETCH  ACCESS:          0  HIT:          0  MISS:          0
cpu0_L1I WRITEBACK ACCESS:          0  HIT:          0  MISS:          0
cpu0_L1I TRANSLATION ACCESS:          0  HIT:          0  MISS:          0
cpu0_L1I PREFETCH  REQUESTED:          0  ISSUED:          0  USEFUL:          0  USELESS:          0
cpu0_L1I AVERAGE MISS LATENCY: 847.333 cycles
cpu0_STLB TOTAL     ACCESS:    1629466  HIT:     744639  MISS:     884827
cpu0_STLB LOAD      ACCESS:     221269  HIT:          1  MISS:     221268
cpu0_STLB RFO       ACCESS:    1408197  HIT:     744638  MISS:     663559
cpu0_STLB PREFETCH  ACCESS:          0  HIT:          0  MISS:          0
cpu0_STLB WRITEBACK ACCESS:          0  HIT:          0  MISS:          0
cpu0_STLB TRANSLATION ACCESS:          0  HIT:          0  MISS:          0
cpu0_STLB PREFETCH  REQUESTED:          0  ISSUED:          0  USEFUL:          0  USELESS:          0
cpu0_STLB AVERAGE MISS LATENCY: 771.069 cycles
cpu0_L1D TOTAL     ACCESS:  337808199  HIT:  244401300  MISS:   93406899
cpu0_L1D LOAD      ACCESS:   84248038  HIT:   70094746  MISS:   14153292
cpu0_L1D RFO       ACCESS:  252727730  HIT:  173474515  MISS:   79253215
cpu0_L1D PREFETCH  ACCESS:          0  HIT:          0  MISS:          0
cpu0_L1D WRITEBACK ACCESS:          0  HIT:          0  MISS:          0
cpu0_L1D TRANSLATION ACCESS:     832431  HIT:     832039  MISS:        392
cpu0_L1D PREFETCH  REQUESTED:          0  ISSUED:          0  USEFUL:          0  USELESS:          0
cpu0_L1D AVERAGE MISS LATENCY: 697.162 cycles
cpu0_L2C TOTAL     ACCESS:  172660111  HIT:  114716175  MISS:   57943936
cpu0_L2C LOAD      ACCESS:   14153295  HIT:        277  MISS:   14153018
cpu0_L2C RFO       ACCESS:   79253208  HIT:   35464593  MISS:   43788615
cpu0_L2C PREFETCH  ACCESS:          0  HIT:          0  MISS:          0
cpu0_L2C WRITEBACK ACCESS:   79253216  HIT:   79251305  MISS:       1911
cpu0_L2C TRANSLATION ACCESS:        392  HIT:          0  MISS:        392
cpu0_L2C PREFETCH  REQUESTED:          0  ISSUED:          0  USEFUL:          0  USELESS:          0
cpu0_L2C AVERAGE MISS LATENCY: 1106.02 cycles
LLC TOTAL     ACCESS:  101731095  HIT:   45039368  MISS:   56691727
LLC LOAD      ACCESS:   14153018  HIT:        320  MISS:   14152698
LLC RFO       ACCESS:   43787194  HIT:    1329913  MISS:   42457281
LLC PREFETCH  ACCESS:          0  HIT:          0  MISS:          0
LLC WRITEBACK ACCESS:   43790491  HIT:   43709135  MISS:      81356
LLC TRANSLATION ACCESS:        392  HIT:          0  MISS:        392
LLC PREFETCH  REQUESTED:          0  ISSUED:          0  USEFUL:          0  USELESS:          0
LLC AVERAGE MISS LATENCY: 1108.98 cycles
~~~~~~~~~~Reuse Distance Profiler output~~~~~~~~~~
0	95128832	9443904
1	15939216	6469424
2	12995600	5943616
3	8351152	3338624
4	16886864	5512032
5	9574688	2945776
6	2331168	1449936
7	1288688	768544
8	1277728	387648
9	1000928	296400
10	1965504	1543952
11	5835712	2726352
12	5473152	4989888
13	2885664	75472
14	802176	275120
15	630768	294448
16	251328	44432
17	342784	108240
18	2042464	742800
19	420992	284896
20	1621232	1299344
21	539792	99376
22	1053552	237440
23	1111088	51872
24	1010272	138912
25	1714528	42304
26	314800	43648
27	536128	86416
28	891456	40672
29	837328	35408
30	1981312	309296
31	975104	425328
32	3198752	2784240
33	4111888	3592240
34	1617840	847168
35	1082880	419456
36	947168	396384
37	1172672	841408
38	465984	258640
39	279312	106096
40	285984	115280
41	247392	73888
42	244176	62608
43	342656	118080
44	363280	164896
45	1362400	1196704
46	1608272	210944
47	273264	90176
48	220064	38864
49	276976	41776
50	363968	123408
51	999200	98496
52	683008	211632
53	1383184	834592
54	560848	244688
55	685040	274832
56	319728	156464
57	659136	394784
58	763664	114320
59	634272	59008
60	372768	47712
61	497632	40912
62	225504	33024
63	140576	57184
64	210128	68496
66	416720	228272
68	884256	791328
70	327264	240368
72	284032	87216
74	313856	149680
76	360496	182992
78	609136	378624
80	1061520	506304
82	935824	269280
84	1065040	134032
86	1435024	144128
88	1156736	152128
90	977168	252720
92	1768176	1211840
94	1709088	782512
96	1222912	362432
98	1195184	846096
100	727984	296960
102	681872	156432
104	211472	59520
106	185840	50832
108	186256	80144
110	170368	61872
112	137408	38320
114	115264	40224
116	136272	32000
118	116736	32064
120	77280	28880
122	69728	35040
124	75296	21472
126	74736	18928
128	109536	34784
132	81440	30112
136	64448	29536
140	50752	24208
144	56080	20656
148	42480	17392
152	51728	16176
156	61584	13328
160	114672	11664
164	79408	10992
168	77744	10064
172	208048	10880
176	1268640	11312
180	1105168	7840
184	793808	6400
188	1789696	6064
192	1060672	5056
196	390352	5184
200	202720	4384
204	16768	4608
208	10848	3824
212	11168	4288
216	17840	4896
220	24640	4864
224	19056	4592
228	16544	5440
232	16592	5168
236	18320	5536
240	19584	5088
244	19600	5328
248	17552	5408
252	14224	5888
256	44192	11872
264	39056	12480
272	42400	14128
280	45216	15840
288	39744	15024
296	43280	15296
304	48992	14544
312	39008	16080
320	48368	18336
328	44416	18288
336	39104	17088
344	51728	15168
352	38384	16480
360	44928	18304
368	39952	17632
376	28432	13776
384	43424	13104
392	33280	11520
400	31728	12368
408	31696	11056
416	22416	9472
424	23248	7360
432	26544	6720
440	22560	6880
448	21632	6736
456	14880	5200
464	10832	4064
472	16176	3632
480	11616	3504
488	9760	3264
496	8480	3040
504	5280	2048
512	8768	2768
528	7088	2736
544	4320	2112
560	3600	1424
576	3200	1104
592	3344	1392
608	3136	1136
624	3344	1248
640	2832	1104
656	3024	896
672	2960	880
688	2544	1008
704	2768	752
720	2128	736
736	1824	704
752	1728	496
768	1616	528
784	1520	416
800	1136	480
816	1200	400
832	1152	400
848	880	256
864	672	176
880	512	144
896	384	176
912	400	112
928	288	80
944	208	80
960	192	48
976	240	112
992	176	80
1008	160	16
1024	320	112
1056	368	80
1088	240	80
1120	288	96
1152	144	32
1184	128	64
1216	112	48
1248	32	0
1280	64	32
1312	32	0
1344	32	32
1376	16	16
1408	16	0
1440	16	0
1472	0	0
1504	16	16
1536	32	16
1568	0	0
1600	0	0
1632	16	16
1664	0	0
1696	0	0
1728	0	0
1760	0	0
1792	0	0
1824	0	0
1856	0	0
1888	0	0
1920	0	0
1952	0	0
1984	0	0
2016	0	0
2048	0	0
2112	0	0
2176	0	0
2240	0	0
2304	0	0
2368	0	0
2432	0	0
2496	0	0
2560	0	0
2624	0	0
2688	0	0
2752	0	0
2816	0	0
2880	0	0
2944	0	0
3008	0	0
3072	0	0
3136	0	0
3200	0	0
3264	0	0
3328	0	0
3392	0	0
3456	0	0
3520	0	0
3584	0	0
3648	0	0
3712	0	0
3776	0	0
3840	0	0
3904	16	0
3968	16	0
4032	608	0
4096	505920	0
4224	92224	0
4352	6944	0
4480	4640	0
4608	2624	0
4736	2816	0
4864	2864	0
4992	3072	0
5120	2896	0
5248	3104	0
5376	4752	0
5504	4016	0
5632	5680	0
5760	8384	0
5888	11344	0
6016	15968	0
6144	25040	0
6272	35200	0
6400	46272	0
6528	62464	0
6656	71856	0
6784	89248	0
6912	109056	0
7040	134816	0
7168	170160	0
7296	195248	0
7424	237840	0
7552	278160	0
7680	314576	0
7808	357440	0
7936	388848	0
8064	452560	0
8192	1122064	0
8448	1270896	432
8704	1472256	0
8960	1626432	0
9216	1723184	0
9472	1737792	0
9728	1717584	0
9984	1599168	0
10240	1497936	0
10496	1340784	0
10752	1146832	0
11008	917088	0
11264	713344	0
11520	554880	0
11776	424080	0
12032	332176	0
12288	277168	0
12544	225264	0
12800	191344	0
13056	194368	0
13312	172112	0
13568	160176	0
13824	163248	0
14080	160432	0
14336	160832	0
14592	175200	0
14848	170080	0
15104	172176	0
15360	196720	0
15616	204752	0
15872	201792	0
16128	214560	0
16384	485536	0
16896	577120	0
17408	657136	0
17920	740832	0
18432	985952	0
18944	5165792	0
19456	332496	0
19968	305504	0
20480	276544	0
20992	245536	0
21504	215792	0
22016	171776	0
22528	127440	0
23040	102464	0
23552	75632	0
24064	59712	0
24576	47280	0
25088	39952	0
25600	34960	0
26112	32896	0
26624	30048	0
27136	28848	0
27648	26640	0
28160	23968	0
28672	25616	0
29184	27936	0
29696	23120	0
30208	24976	0
30720	26912	0
31232	25712	0
31744	25776	0
32256	27296	0
32768	53424	0
33792	67040	0
34816	72048	0
35840	81200	0
36864	102000	0
37888	880752	0
38912	1056	0
39936	32	0
40960	0	0
41984	0	0
43008	0	0
44032	0	0
45056	0	0
46080	0	0
47104	0	0
48128	0	0
49152	0	0
50176	0	0
51200	0	0
52224	0	0
53248	0	0
54272	0	0
55296	0	0
56320	0	0
57344	0	0
58368	0	0
59392	0	0
60416	0	0
61440	0	0
62464	0	0
63488	0	0
64512	0	0
65536	0	0
67584	0	0
69632	0	0
71680	0	0
73728	0	0
75776	0	0
77824	0	0
79872	0	0
81920	0	0
83968	0	0
86016	0	0
88064	0	0
90112	0	0
92160	0	0
94208	0	0
96256	0	0
98304	0	0
100352	0	0
102400	0	0
104448	0	0
106496	0	0
108544	0	0
110592	0	0
112640	0	0
114688	0	0
116736	0	0
118784	0	0
120832	0	0
122880	0	0
124928	0	0
126976	0	0
129024	0	0
131072	0	0
135168	0	0
139264	0	0
143360	0	0
147456	0	0
151552	0	0
155648	0	0
159744	0	0
163840	0	0
167936	0	0
172032	0	0
176128	0	0
180224	0	0
184320	0	0
188416	0	0
192512	0	0
196608	0	0
200704	0	0
204800	0	0
208896	0	0
212992	0	0
217088	0	0
221184	0	0
225280	0	0
229376	0	0
233472	0	0
237568	0	0
241664	0	0
245760	0	0
249856	0	0
253952	0	0
258048	0	0
262144	0	0
270336	0	0
278528	0	0
286720	0	0
294912	0	0
303104	0	0
311296	0	0
319488	0	0
327680	0	0
335872	0	0
344064	0	0
352256	0	0
360448	0	0
368640	0	0
376832	0	0
385024	0	0
393216	0	0
401408	0	0
409600	0	0
417792	0	0
425984	0	0
434176	0	0
442368	0	0
450560	0	0
458752	0	0
466944	0	0
475136	0	0
483328	0	0
491520	0	0
499712	0	0
507904	0	0
516096	0	0
524288	0	0
540672	0	0
557056	0	0
573440	0	0
589824	0	0
606208	0	0
622592	0	0
638976	0	0
655360	0	0
671744	0	0
688128	0	0
704512	0	0
720896	0	0
737280	0	0
753664	0	0
770048	0	0
786432	0	0
802816	0	0
819200	0	0
835584	5584	0
851968	2208	0
868352	2368	0
884736	2496	0
901120	2224	0
917504	2400	0
933888	1840	0
950272	2128	0
966656	2048	0
983040	1888	0
999424	2496	0
1015808	2240	0
1032192	2560	0
1048576	4368	0
1081344	4624	0
1114112	4128	0
1146880	4320	0
1179648	4480	0
1212416	4608	0
1245184	4528	0
1277952	4432	0
1310720	4112	0
1343488	4192	0
1376256	4400	0
1409024	4144	0
1441792	4928	0
1474560	4240	0
1507328	6304	0
1540096	56800	0
1572864	191376	0
1605632	279808	0
1638400	193312	0
1671168	224208	0
1703936	151280	0
1736704	98000	0
1769472	109632	0
1802240	126960	0
1835008	142656	0
1867776	556128	0
1900544	903152	0
1933312	3846992	0
1966080	7793024	0
1998848	3687280	0
2031616	1562384	0
2064384	40704	0
2097152	160160	0
2162688	277024	0
2228224	246016	0
2293760	188192	0
2359296	245792	0
2424832	331920	0
2490368	164544	0
2555904	141968	0
2621440	127344	0
2686976	146848	0
2752512	135296	0
2818048	145024	0
2883584	149104	0
2949120	135472	0
3014656	132832	0
3080192	139248	0
3145728	124032	0
3211264	137472	0
3276800	131552	0
3342336	140928	0
3407872	194240	0
3473408	206816	0
3538944	243648	0
3604480	363664	0
3670016	521952	0
3735552	3320992	0
3801088	646480	0
3866624	0	0
3932160	0	0
3997696	0	0
4063232	0	0
4128768	0	0
4194304	0	0
4325376	0	0
4456448	0	0
4587520	0	0
4718592	0	0
4849664	0	0
4980736	0	0
5111808	0	0
5242880	0	0
5373952	0	0
5505024	0	0
5636096	0	0
5767168	0	0
5898240	0	0
6029312	0	0
6160384	0	0
6291456	0	0
6422528	0	0
6553600	0	0
6684672	0	0
6815744	0	0
6946816	0	0
7077888	0	0
7208960	0	0
7340032	0	0
7471104	0	0
7602176	0	0
7733248	0	0
7864320	0	0
7995392	0	0
8126464	0	0
8257536	0	0
8388608	0	0
8650752	0	0
8912896	0	0
9175040	0	0
9437184	0	0
9699328	0	0
9961472	0	0
10223616	0	0
10485760	0	0
10747904	0	0
11010048	0	0
11272192	0	0
11534336	0	0
11796480	0	0
12058624	0	0
12320768	0	0
12582912	0	0
12845056	0	0
13107200	0	0
13369344	0	0
13631488	0	0
13893632	0	0
14155776	0	0
14417920	0	0
14680064	0	0
14942208	0	0
15204352	0	0
15466496	0	0
15728640	0	0
15990784	0	0
16252928	0	0
16515072	0	0
16777216	0	0
17301504	0	0
17825792	0	0
18350080	0	0
18874368	0	0
19398656	0	0
19922944	0	0
20447232	0	0
20971520	0	0
21495808	0	0
22020096	0	0
22544384	0	0
23068672	0	0
23592960	0	0
24117248	0	0
24641536	0	0
25165824	0	0
25690112	0	0
26214400	0	0
26738688	0	0
27262976	0	0
27787264	0	0
28311552	0	0
28835840	0	0
29360128	0	0
29884416	0	0
30408704	0	0
30932992	0	0
31457280	0	0
31981568	0	0
32505856	0	0
33030144	0	0
33554432	0	0
34603008	0	0
35651584	0	0
36700160	0	0
37748736	0	0
38797312	0	0
39845888	0	0
40894464	0	0
41943040	0	0
42991616	0	0
44040192	0	0
45088768	0	0
46137344	0	0
47185920	0	0
48234496	0	0
49283072	0	0
50331648	0	0
51380224	0	0
52428800	0	0
53477376	0	0
54525952	0	0
55574528	0	0
56623104	0	0
57671680	0	0
58720256	0	0
59768832	0	0
60817408	0	0
61865984	0	0
62914560	0	0
63963136	0	0
65011712	0	0
66060288	0	0
67108864	0	0
69206016	0	0
71303168	0	0
73400320	0	0
75497472	0	0
77594624	0	0
79691776	0	0
81788928	0	0
83886080	0	0
85983232	0	0
88080384	0	0
90177536	0	0
92274688	0	0
94371840	0	0
96468992	0	0
98566144	0	0
100663296	0	0
102760448	0	0
104857600	0	0
106954752	0	0
109051904	0	0
111149056	0	0
113246208	0	0
115343360	0	0
117440512	0	0
119537664	0	0
121634816	0	0
123731968	0	0
125829120	0	0
127926272	0	0
130023424	0	0
132120576	0	0
134217728	0	0
138412032	0	0
142606336	0	0
146800640	0	0
150994944	0	0
155189248	0	0
159383552	0	0
163577856	0	0
167772160	0	0
171966464	0	0
176160768	0	0
180355072	0	0
184549376	0	0
188743680	0	0
192937984	0	0
197132288	0	0
201326592	0	0
205520896	0	0
209715200	0	0
213909504	0	0
218103808	0	0
222298112	0	0
226492416	0	0
230686720	0	0
234881024	0	0
239075328	0	0
243269632	0	0
247463936	0	0
251658240	0	0
255852544	0	0
260046848	0	0
264241152	0	0
268435456	0	0
276824064	0	0
285212672	0	0
293601280	0	0
301989888	0	0
310378496	0	0
318767104	0	0
327155712	0	0
335544320	0	0
343932928	0	0
352321536	0	0
360710144	0	0
369098752	0	0
377487360	0	0
385875968	0	0
394264576	0	0
402653184	0	0
411041792	0	0
419430400	0	0
427819008	0	0
436207616	0	0
444596224	0	0
452984832	0	0
461373440	0	0
469762048	0	0
478150656	0	0
486539264	0	0
494927872	0	0
503316480	0	0
511705088	0	0
520093696	0	0
528482304	0	0
536870912	0	0
553648128	0	0
570425344	0	0
587202560	0	0
603979776	0	0
620756992	0	0
637534208	0	0
654311424	0	0
671088640	0	0
687865856	0	0
704643072	0	0
721420288	0	0
738197504	0	0
754974720	0	0
771751936	0	0
788529152	0	0
805306368	0	0
822083584	0	0
838860800	0	0
855638016	0	0
872415232	0	0
889192448	0	0
905969664	0	0
922746880	0	0
939524096	0	0
956301312	0	0
973078528	0	0
989855744	0	0
1006632960	0	0
1023410176	0	0
1040187392	0	0
1056964608	0	0
1073741824	0	0
1107296256	0	0
1140850688	0	0
1174405120	0	0
1207959552	0	0
1241513984	0	0
1275068416	0	0
1308622848	0	0
1342177280	0	0
1375731712	0	0
1409286144	0	0
1442840576	0	0
1476395008	0	0
1509949440	0	0
1543503872	0	0
1577058304	0	0
1610612736	0	0
1644167168	0	0
1677721600	0	0
1711276032	0	0
1744830464	0	0
1778384896	0	0
1811939328	0	0
1845493760	0	0
1879048192	0	0
1912602624	0	0
1946157056	0	0
1979711488	0	0
2013265920	0	0
2046820352	0	0
2080374784	0	0
2113929216	0	0
2147483648	0	0
2214592512	0	0
2281701376	0	0
2348810240	0	0
2415919104	0	0
2483027968	0	0
2550136832	0	0
2617245696	0	0
2684354560	0	0
2751463424	0	0
2818572288	0	0
2885681152	0	0
2952790016	0	0
3019898880	0	0
3087007744	0	0
3154116608	0	0
3221225472	0	0
3288334336	0	0
3355443200	0	0
3422552064	0	0
3489660928	0	0
3556769792	0	0
3623878656	0	0
3690987520	0	0
3758096384	0	0
3825205248	0	0
3892314112	0	0
3959422976	0	0
4026531840	0	0
4093640704	0	0
4160749568	0	0
4227858432	0	0
~~~~~~~~~~Reuse Distance Profiler output end~~~~~~~~~~

Sampler size:1859824

DRAM Statistics
 CHANNEL 0
 RQ ROW_BUFFER_HIT:    1412178  ROW_BUFFER_MISS:   55198189
 DBUS AVG_CONGESTED_CYCLE:    4.00318
 WQ ROW_BUFFER_HIT:     560392  ROW_BUFFER_MISS:   41898301  FULL:          0


CPU 0 Branch Prediction Accuracy: 97.068% MPKI: 0.450619 Average ROB Occupancy at Mispredict: 254.91
Branch type MPKI
BRANCH_DIRECT_JUMP: 2e-06
BRANCH_INDIRECT: 0
BRANCH_CONDITIONAL: 0.450615
BRANCH_DIRECT_CALL: 1.33333e-06
BRANCH_INDIRECT_CALL: 0
BRANCH_RETURN: 1.33333e-06

