
*** ChampSim Multicore Out-of-Order Simulator ***

Warmup Instructions: 50000000
Simulation Instructions: 1500000000
Number of CPUs: 1
Off-chip DRAM Size: 4 GiB Channels: 1 Width: 64-bit Data Rate: 3200 MT/s

VirtualMemory physical capacity: 8588881920 num_ppages: 2096895
VirtualMemory page size: 4096 log2_page_size: 12

CPU 0 runs /s/traces/champsim_traces/619.lbm_s-2677B.champsimtrace.xz
CPU 0 Bimodal branch predictor
Basic BTB sets: 1024 ways: 8 indirect buffer size: 4096 RAS size: 64
Initializing LRU.
Initializing LRU.
Initializing LRU.
Initializing LRU.
Initializing rdLRU.
Initializing LRU.
Heartbeat CPU 0 instructions: 2000003 cycles: 516926 heartbeat IPC: 3.86903 cumulative IPC: 3.86903 (Simulation time: 0 hr 1 min 18 sec) 
Heartbeat CPU 0 instructions: 4000001 cycles: 1032235 heartbeat IPC: 3.88116 cumulative IPC: 3.87509 (Simulation time: 0 hr 2 min 33 sec) 
Heartbeat CPU 0 instructions: 6000003 cycles: 1550739 heartbeat IPC: 3.85725 cumulative IPC: 3.86912 (Simulation time: 0 hr 3 min 57 sec) 
Heartbeat CPU 0 instructions: 8000003 cycles: 2074124 heartbeat IPC: 3.82128 cumulative IPC: 3.85705 (Simulation time: 0 hr 5 min 20 sec) 
Heartbeat CPU 0 instructions: 10000003 cycles: 2592810 heartbeat IPC: 3.8559 cumulative IPC: 3.85682 (Simulation time: 0 hr 6 min 27 sec) 
Heartbeat CPU 0 instructions: 12000002 cycles: 3106233 heartbeat IPC: 3.89542 cumulative IPC: 3.8632 (Simulation time: 0 hr 7 min 37 sec) 
Heartbeat CPU 0 instructions: 14000000 cycles: 3624397 heartbeat IPC: 3.85978 cumulative IPC: 3.86271 (Simulation time: 0 hr 8 min 56 sec) 
Heartbeat CPU 0 instructions: 16000003 cycles: 4144689 heartbeat IPC: 3.844 cumulative IPC: 3.86036 (Simulation time: 0 hr 10 min 10 sec) 
Heartbeat CPU 0 instructions: 18000003 cycles: 4663562 heartbeat IPC: 3.85451 cumulative IPC: 3.85971 (Simulation time: 0 hr 11 min 31 sec) 
Heartbeat CPU 0 instructions: 20000001 cycles: 5181067 heartbeat IPC: 3.86469 cumulative IPC: 3.86021 (Simulation time: 0 hr 12 min 40 sec) 
Heartbeat CPU 0 instructions: 22000002 cycles: 5697145 heartbeat IPC: 3.87539 cumulative IPC: 3.86158 (Simulation time: 0 hr 13 min 55 sec) 
Heartbeat CPU 0 instructions: 24000003 cycles: 6215585 heartbeat IPC: 3.85773 cumulative IPC: 3.86126 (Simulation time: 0 hr 15 min 17 sec) 
Heartbeat CPU 0 instructions: 26000000 cycles: 6736549 heartbeat IPC: 3.83903 cumulative IPC: 3.85954 (Simulation time: 0 hr 16 min 36 sec) 
Heartbeat CPU 0 instructions: 28000003 cycles: 7253150 heartbeat IPC: 3.87147 cumulative IPC: 3.86039 (Simulation time: 0 hr 17 min 47 sec) 
Heartbeat CPU 0 instructions: 30000002 cycles: 7773138 heartbeat IPC: 3.84624 cumulative IPC: 3.85945 (Simulation time: 0 hr 19 min 3 sec) 
Heartbeat CPU 0 instructions: 32000001 cycles: 8285793 heartbeat IPC: 3.90126 cumulative IPC: 3.86203 (Simulation time: 0 hr 20 min 16 sec) 
Heartbeat CPU 0 instructions: 34000000 cycles: 8805746 heartbeat IPC: 3.8465 cumulative IPC: 3.86112 (Simulation time: 0 hr 21 min 29 sec) 
Heartbeat CPU 0 instructions: 36000001 cycles: 9325891 heartbeat IPC: 3.84508 cumulative IPC: 3.86022 (Simulation time: 0 hr 22 min 47 sec) 
Heartbeat CPU 0 instructions: 38000000 cycles: 9843451 heartbeat IPC: 3.86428 cumulative IPC: 3.86043 (Simulation time: 0 hr 23 min 58 sec) 
Heartbeat CPU 0 instructions: 40000002 cycles: 10359177 heartbeat IPC: 3.87803 cumulative IPC: 3.86131 (Simulation time: 0 hr 25 min 13 sec) 
Heartbeat CPU 0 instructions: 42000001 cycles: 10876645 heartbeat IPC: 3.86497 cumulative IPC: 3.86149 (Simulation time: 0 hr 26 min 26 sec) 
Heartbeat CPU 0 instructions: 44000000 cycles: 11398367 heartbeat IPC: 3.83346 cumulative IPC: 3.8602 (Simulation time: 0 hr 27 min 43 sec) 
Heartbeat CPU 0 instructions: 46000003 cycles: 11915685 heartbeat IPC: 3.8661 cumulative IPC: 3.86046 (Simulation time: 0 hr 28 min 55 sec) 
Heartbeat CPU 0 instructions: 48000000 cycles: 12433758 heartbeat IPC: 3.86045 cumulative IPC: 3.86046 (Simulation time: 0 hr 30 min 5 sec) 
Heartbeat CPU 0 instructions: 50000003 cycles: 12950966 heartbeat IPC: 3.86692 cumulative IPC: 3.86072 (Simulation time: 0 hr 31 min 20 sec) 

Warmup complete CPU 0 instructions: 50000003 cycles: 12950966 (Simulation time: 0 hr 31 min 20 sec) 

Heartbeat CPU 0 instructions: 52000000 cycles: 22758066 heartbeat IPC: 0.203934 cumulative IPC: 0.203934 (Simulation time: 0 hr 40 min 3 sec) 

Region of Interest Statistics
cpu0_DTLB TOTAL     ACCESS:     361597  HIT:     358759  MISS:       2838
cpu0_DTLB LOAD      ACCESS:     158970  HIT:     158585  MISS:        385
cpu0_DTLB RFO       ACCESS:     202627  HIT:     200174  MISS:       2453
cpu0_DTLB PREFETCH  ACCESS:          0  HIT:          0  MISS:          0
cpu0_DTLB WRITEBACK ACCESS:          0  HIT:          0  MISS:          0
cpu0_ITLB TOTAL     ACCESS:      39544  HIT:      39544  MISS:          0
cpu0_ITLB LOAD      ACCESS:      39544  HIT:      39544  MISS:          0
cpu0_ITLB RFO       ACCESS:          0  HIT:          0  MISS:          0
cpu0_ITLB PREFETCH  ACCESS:          0  HIT:          0  MISS:          0
cpu0_ITLB WRITEBACK ACCESS:          0  HIT:          0  MISS:          0
cpu0_L1I TOTAL     ACCESS:      45149  HIT:      45149  MISS:          0
cpu0_L1I LOAD      ACCESS:      45149  HIT:      45149  MISS:          0
cpu0_L1I RFO       ACCESS:          0  HIT:          0  MISS:          0
cpu0_L1I PREFETCH  ACCESS:          0  HIT:          0  MISS:          0
cpu0_L1I WRITEBACK ACCESS:          0  HIT:          0  MISS:          0
cpu0_STLB TOTAL     ACCESS:       2838  HIT:       1299  MISS:       1539
cpu0_STLB LOAD      ACCESS:        385  HIT:          0  MISS:        385
cpu0_STLB RFO       ACCESS:       2453  HIT:       1299  MISS:       1154
cpu0_STLB PREFETCH  ACCESS:          0  HIT:          0  MISS:          0
cpu0_STLB WRITEBACK ACCESS:          0  HIT:          0  MISS:          0
cpu0_L1D TOTAL     ACCESS:     478015  HIT:     315620  MISS:     162395
cpu0_L1D LOAD      ACCESS:     112130  HIT:      87517  MISS:      24613
cpu0_L1D RFO       ACCESS:     364346  HIT:     226564  MISS:     137782
cpu0_L1D PREFETCH  ACCESS:          0  HIT:          0  MISS:          0
cpu0_L1D WRITEBACK ACCESS:          0  HIT:          0  MISS:          0
cpu0_L2C TOTAL     ACCESS:     300184  HIT:     199417  MISS:     100767
cpu0_L2C LOAD      ACCESS:      24613  HIT:          0  MISS:      24613
cpu0_L2C RFO       ACCESS:     137783  HIT:      61632  MISS:      76151
cpu0_L2C PREFETCH  ACCESS:          0  HIT:          0  MISS:          0
cpu0_L2C WRITEBACK ACCESS:     137788  HIT:     137785  MISS:          3
LLC TOTAL     ACCESS:     177077  HIT:      77116  MISS:      99961
LLC LOAD      ACCESS:      24613  HIT:          0  MISS:      24613
LLC RFO       ACCESS:      76143  HIT:       2326  MISS:      73817
LLC PREFETCH  ACCESS:          0  HIT:          0  MISS:          0
LLC WRITEBACK ACCESS:      76321  HIT:      74790  MISS:       1531
Heartbeat CPU 0 instructions: 54000003 cycles: 31274429 heartbeat IPC: 0.234842 cumulative IPC: 0.218299 (Simulation time: 0 hr 47 min 22 sec) 

Region of Interest Statistics
cpu0_DTLB TOTAL     ACCESS:     701985  HIT:     696721  MISS:       5264
cpu0_DTLB LOAD      ACCESS:     315061  HIT:     314346  MISS:        715
cpu0_DTLB RFO       ACCESS:     386924  HIT:     382375  MISS:       4549
cpu0_DTLB PREFETCH  ACCESS:          0  HIT:          0  MISS:          0
cpu0_DTLB WRITEBACK ACCESS:          0  HIT:          0  MISS:          0
cpu0_ITLB TOTAL     ACCESS:      71129  HIT:      71129  MISS:          0
cpu0_ITLB LOAD      ACCESS:      71129  HIT:      71129  MISS:          0
cpu0_ITLB RFO       ACCESS:          0  HIT:          0  MISS:          0
cpu0_ITLB PREFETCH  ACCESS:          0  HIT:          0  MISS:          0
cpu0_ITLB WRITEBACK ACCESS:          0  HIT:          0  MISS:          0
cpu0_L1I TOTAL     ACCESS:      88468  HIT:      88468  MISS:          0
cpu0_L1I LOAD      ACCESS:      88468  HIT:      88468  MISS:          0
cpu0_L1I RFO       ACCESS:          0  HIT:          0  MISS:          0
cpu0_L1I PREFETCH  ACCESS:          0  HIT:          0  MISS:          0
cpu0_L1I WRITEBACK ACCESS:          0  HIT:          0  MISS:          0
cpu0_STLB TOTAL     ACCESS:       5264  HIT:       2407  MISS:       2857
cpu0_STLB LOAD      ACCESS:        715  HIT:          0  MISS:        715
cpu0_STLB RFO       ACCESS:       4549  HIT:       2407  MISS:       2142
cpu0_STLB PREFETCH  ACCESS:          0  HIT:          0  MISS:          0
cpu0_STLB WRITEBACK ACCESS:          0  HIT:          0  MISS:          0
cpu0_L1D TOTAL     ACCESS:     939694  HIT:     638234  MISS:     301460
cpu0_L1D LOAD      ACCESS:     225080  HIT:     179395  MISS:      45685
cpu0_L1D RFO       ACCESS:     711757  HIT:     455984  MISS:     255773
cpu0_L1D PREFETCH  ACCESS:          0  HIT:          0  MISS:          0
cpu0_L1D WRITEBACK ACCESS:          0  HIT:          0  MISS:          0
cpu0_L2C TOTAL     ACCESS:     557237  HIT:     370221  MISS:     187016
cpu0_L2C LOAD      ACCESS:      45685  HIT:          0  MISS:      45685
cpu0_L2C RFO       ACCESS:     255773  HIT:     114459  MISS:     141314
cpu0_L2C PREFETCH  ACCESS:          0  HIT:          0  MISS:          0
cpu0_L2C WRITEBACK ACCESS:     255777  HIT:     255762  MISS:         15
LLC TOTAL     ACCESS:     328406  HIT:     143320  MISS:     185086
LLC LOAD      ACCESS:      45685  HIT:          0  MISS:      45685
LLC RFO       ACCESS:     141304  HIT:       4271  MISS:     137033
LLC PREFETCH  ACCESS:          0  HIT:          0  MISS:          0
LLC WRITEBACK ACCESS:     141415  HIT:     139049  MISS:       2366
Heartbeat CPU 0 instructions: 56000000 cycles: 41681046 heartbeat IPC: 0.192185 cumulative IPC: 0.20884 (Simulation time: 0 hr 56 min 39 sec) 

Region of Interest Statistics
cpu0_DTLB TOTAL     ACCESS:    1073927  HIT:    1065633  MISS:       8294
cpu0_DTLB LOAD      ACCESS:     475704  HIT:     474579  MISS:       1125
cpu0_DTLB RFO       ACCESS:     598223  HIT:     591054  MISS:       7169
cpu0_DTLB PREFETCH  ACCESS:          0  HIT:          0  MISS:          0
cpu0_DTLB WRITEBACK ACCESS:          0  HIT:          0  MISS:          0
cpu0_ITLB TOTAL     ACCESS:     115101  HIT:     115101  MISS:          0
cpu0_ITLB LOAD      ACCESS:     115101  HIT:     115101  MISS:          0
cpu0_ITLB RFO       ACCESS:          0  HIT:          0  MISS:          0
cpu0_ITLB PREFETCH  ACCESS:          0  HIT:          0  MISS:          0
cpu0_ITLB WRITEBACK ACCESS:          0  HIT:          0  MISS:          0
cpu0_L1I TOTAL     ACCESS:     133580  HIT:     133580  MISS:          0
cpu0_L1I LOAD      ACCESS:     133580  HIT:     133580  MISS:          0
cpu0_L1I RFO       ACCESS:          0  HIT:          0  MISS:          0
cpu0_L1I PREFETCH  ACCESS:          0  HIT:          0  MISS:          0
cpu0_L1I WRITEBACK ACCESS:          0  HIT:          0  MISS:          0
cpu0_STLB TOTAL     ACCESS:       8294  HIT:       3794  MISS:       4500
cpu0_STLB LOAD      ACCESS:       1125  HIT:          0  MISS:       1125
cpu0_STLB RFO       ACCESS:       7169  HIT:       3794  MISS:       3375
cpu0_STLB PREFETCH  ACCESS:          0  HIT:          0  MISS:          0
cpu0_STLB WRITEBACK ACCESS:          0  HIT:          0  MISS:          0
cpu0_L1D TOTAL     ACCESS:    1426058  HIT:     951067  MISS:     474991
cpu0_L1D LOAD      ACCESS:     337284  HIT:     265306  MISS:      71978
cpu0_L1D RFO       ACCESS:    1084274  HIT:     681263  MISS:     403011
cpu0_L1D PREFETCH  ACCESS:          0  HIT:          0  MISS:          0
cpu0_L1D WRITEBACK ACCESS:          0  HIT:          0  MISS:          0
cpu0_L2C TOTAL     ACCESS:     878005  HIT:     583775  MISS:     294230
cpu0_L2C LOAD      ACCESS:      71978  HIT:          0  MISS:      71978
cpu0_L2C RFO       ACCESS:     403011  HIT:     180781  MISS:     222230
cpu0_L2C PREFETCH  ACCESS:          0  HIT:          0  MISS:          0
cpu0_L2C WRITEBACK ACCESS:     403014  HIT:     402994  MISS:         20
LLC TOTAL     ACCESS:     516706  HIT:     225576  MISS:     291130
LLC LOAD      ACCESS:      71978  HIT:          0  MISS:      71978
LLC RFO       ACCESS:     222212  HIT:       6305  MISS:     215907
LLC PREFETCH  ACCESS:          0  HIT:          0  MISS:          0
LLC WRITEBACK ACCESS:     222514  HIT:     219271  MISS:       3243
Heartbeat CPU 0 instructions: 58000001 cycles: 51078037 heartbeat IPC: 0.212834 cumulative IPC: 0.209825 (Simulation time: 1 hr 4 min 40 sec) 

Region of Interest Statistics
cpu0_DTLB TOTAL     ACCESS:    1428757  HIT:    1417767  MISS:      10990
cpu0_DTLB LOAD      ACCESS:     634279  HIT:     632788  MISS:       1491
cpu0_DTLB RFO       ACCESS:     794478  HIT:     784979  MISS:       9499
cpu0_DTLB PREFETCH  ACCESS:          0  HIT:          0  MISS:          0
cpu0_DTLB WRITEBACK ACCESS:          0  HIT:          0  MISS:          0
cpu0_ITLB TOTAL     ACCESS:     152465  HIT:     152465  MISS:          0
cpu0_ITLB LOAD      ACCESS:     152465  HIT:     152465  MISS:          0
cpu0_ITLB RFO       ACCESS:          0  HIT:          0  MISS:          0
cpu0_ITLB PREFETCH  ACCESS:          0  HIT:          0  MISS:          0
cpu0_ITLB WRITEBACK ACCESS:          0  HIT:          0  MISS:          0
cpu0_L1I TOTAL     ACCESS:     177060  HIT:     177060  MISS:          0
cpu0_L1I LOAD      ACCESS:     177060  HIT:     177060  MISS:          0
cpu0_L1I RFO       ACCESS:          0  HIT:          0  MISS:          0
cpu0_L1I PREFETCH  ACCESS:          0  HIT:          0  MISS:          0
cpu0_L1I WRITEBACK ACCESS:          0  HIT:          0  MISS:          0
cpu0_STLB TOTAL     ACCESS:      10990  HIT:       5028  MISS:       5962
cpu0_STLB LOAD      ACCESS:       1491  HIT:          0  MISS:       1491
cpu0_STLB RFO       ACCESS:       9499  HIT:       5028  MISS:       4471
cpu0_STLB PREFETCH  ACCESS:          0  HIT:          0  MISS:          0
cpu0_STLB WRITEBACK ACCESS:          0  HIT:          0  MISS:          0
cpu0_L1D TOTAL     ACCESS:    1899046  HIT:    1269546  MISS:     629500
cpu0_L1D LOAD      ACCESS:     450012  HIT:     354627  MISS:      95385
cpu0_L1D RFO       ACCESS:    1443072  HIT:     908959  MISS:     534113
cpu0_L1D PREFETCH  ACCESS:          0  HIT:          0  MISS:          0
cpu0_L1D WRITEBACK ACCESS:          0  HIT:          0  MISS:          0
cpu0_L2C TOTAL     ACCESS:    1163612  HIT:     773877  MISS:     389735
cpu0_L2C LOAD      ACCESS:      95385  HIT:          0  MISS:      95385
cpu0_L2C RFO       ACCESS:     534113  HIT:     239793  MISS:     294320
cpu0_L2C PREFETCH  ACCESS:          0  HIT:          0  MISS:          0
cpu0_L2C WRITEBACK ACCESS:     534112  HIT:     534084  MISS:         28
LLC TOTAL     ACCESS:     684188  HIT:     298889  MISS:     385299
LLC LOAD      ACCESS:      95385  HIT:          0  MISS:      95385
LLC RFO       ACCESS:     294302  HIT:       8159  MISS:     286143
LLC PREFETCH  ACCESS:          0  HIT:          0  MISS:          0
LLC WRITEBACK ACCESS:     294499  HIT:     290730  MISS:       3769
Heartbeat CPU 0 instructions: 60000001 cycles: 60658774 heartbeat IPC: 0.208752 cumulative IPC: 0.209609 (Simulation time: 1 hr 13 min 13 sec) 

Region of Interest Statistics
cpu0_DTLB TOTAL     ACCESS:    1786849  HIT:    1773102  MISS:      13747
cpu0_DTLB LOAD      ACCESS:     793248  HIT:     791383  MISS:       1865
cpu0_DTLB RFO       ACCESS:     993601  HIT:     981719  MISS:      11882
cpu0_DTLB PREFETCH  ACCESS:          0  HIT:          0  MISS:          0
cpu0_DTLB WRITEBACK ACCESS:          0  HIT:          0  MISS:          0
cpu0_ITLB TOTAL     ACCESS:     191494  HIT:     191494  MISS:          0
cpu0_ITLB LOAD      ACCESS:     191494  HIT:     191494  MISS:          0
cpu0_ITLB RFO       ACCESS:          0  HIT:          0  MISS:          0
cpu0_ITLB PREFETCH  ACCESS:          0  HIT:          0  MISS:          0
cpu0_ITLB WRITEBACK ACCESS:          0  HIT:          0  MISS:          0
cpu0_L1I TOTAL     ACCESS:     220932  HIT:     220932  MISS:          0
cpu0_L1I LOAD      ACCESS:     220932  HIT:     220932  MISS:          0
cpu0_L1I RFO       ACCESS:          0  HIT:          0  MISS:          0
cpu0_L1I PREFETCH  ACCESS:          0  HIT:          0  MISS:          0
cpu0_L1I WRITEBACK ACCESS:          0  HIT:          0  MISS:          0
cpu0_STLB TOTAL     ACCESS:      13747  HIT:       6289  MISS:       7458
cpu0_STLB LOAD      ACCESS:       1865  HIT:          0  MISS:       1865
cpu0_STLB RFO       ACCESS:      11882  HIT:       6289  MISS:       5593
cpu0_STLB PREFETCH  ACCESS:          0  HIT:          0  MISS:          0
cpu0_STLB WRITEBACK ACCESS:          0  HIT:          0  MISS:          0
cpu0_L1D TOTAL     ACCESS:    2373707  HIT:    1586297  MISS:     787410
cpu0_L1D LOAD      ACCESS:     562341  HIT:     443031  MISS:     119310
cpu0_L1D RFO       ACCESS:    1803908  HIT:    1135810  MISS:     668098
cpu0_L1D PREFETCH  ACCESS:          0  HIT:          0  MISS:          0
cpu0_L1D WRITEBACK ACCESS:          0  HIT:          0  MISS:          0
cpu0_L2C TOTAL     ACCESS:    1455506  HIT:     967939  MISS:     487567
cpu0_L2C LOAD      ACCESS:     119311  HIT:          0  MISS:     119311
cpu0_L2C RFO       ACCESS:     668098  HIT:     299876  MISS:     368222
cpu0_L2C PREFETCH  ACCESS:          0  HIT:          0  MISS:          0
cpu0_L2C WRITEBACK ACCESS:     668095  HIT:     668063  MISS:         32
LLC TOTAL     ACCESS:     855949  HIT:     373729  MISS:     482220
LLC LOAD      ACCESS:     119311  HIT:          0  MISS:     119311
LLC RFO       ACCESS:     368201  HIT:      10284  MISS:     357917
LLC PREFETCH  ACCESS:          0  HIT:          0  MISS:          0
LLC WRITEBACK ACCESS:     368435  HIT:     363445  MISS:       4990
Heartbeat CPU 0 instructions: 62000004 cycles: 69813608 heartbeat IPC: 0.218464 cumulative IPC: 0.211035 (Simulation time: 1 hr 21 min 5 sec) 

Region of Interest Statistics
cpu0_DTLB TOTAL     ACCESS:    2138254  HIT:    2121868  MISS:      16386
cpu0_DTLB LOAD      ACCESS:     950774  HIT:     948551  MISS:       2223
cpu0_DTLB RFO       ACCESS:    1187480  HIT:    1173317  MISS:      14163
cpu0_DTLB PREFETCH  ACCESS:          0  HIT:          0  MISS:          0
cpu0_DTLB WRITEBACK ACCESS:          0  HIT:          0  MISS:          0
cpu0_ITLB TOTAL     ACCESS:     228453  HIT:     228453  MISS:          0
cpu0_ITLB LOAD      ACCESS:     228453  HIT:     228453  MISS:          0
cpu0_ITLB RFO       ACCESS:          0  HIT:          0  MISS:          0
cpu0_ITLB PREFETCH  ACCESS:          0  HIT:          0  MISS:          0
cpu0_ITLB WRITEBACK ACCESS:          0  HIT:          0  MISS:          0
cpu0_L1I TOTAL     ACCESS:     263247  HIT:     263247  MISS:          0
cpu0_L1I LOAD      ACCESS:     263247  HIT:     263247  MISS:          0
cpu0_L1I RFO       ACCESS:          0  HIT:          0  MISS:          0
cpu0_L1I PREFETCH  ACCESS:          0  HIT:          0  MISS:          0
cpu0_L1I WRITEBACK ACCESS:          0  HIT:          0  MISS:          0
cpu0_STLB TOTAL     ACCESS:      16386  HIT:       7496  MISS:       8890
cpu0_STLB LOAD      ACCESS:       2223  HIT:          0  MISS:       2223
cpu0_STLB RFO       ACCESS:      14163  HIT:       7496  MISS:       6667
cpu0_STLB PREFETCH  ACCESS:          0  HIT:          0  MISS:          0
cpu0_STLB WRITEBACK ACCESS:          0  HIT:          0  MISS:          0
cpu0_L1D TOTAL     ACCESS:    2843111  HIT:    1904572  MISS:     938539
cpu0_L1D LOAD      ACCESS:     674652  HIT:     532441  MISS:     142211
cpu0_L1D RFO       ACCESS:    2159569  HIT:    1363243  MISS:     796326
cpu0_L1D PREFETCH  ACCESS:          0  HIT:          0  MISS:          0
cpu0_L1D WRITEBACK ACCESS:          0  HIT:          0  MISS:          0
cpu0_L2C TOTAL     ACCESS:    1734862  HIT:    1153839  MISS:     581023
cpu0_L2C LOAD      ACCESS:     142211  HIT:          1  MISS:     142210
cpu0_L2C RFO       ACCESS:     796326  HIT:     357551  MISS:     438775
cpu0_L2C PREFETCH  ACCESS:          0  HIT:          0  MISS:          0
cpu0_L2C WRITEBACK ACCESS:     796323  HIT:     796287  MISS:         36
LLC TOTAL     ACCESS:    1020061  HIT:     445091  MISS:     574970
LLC LOAD      ACCESS:     142210  HIT:          0  MISS:     142210
LLC RFO       ACCESS:     438754  HIT:      12145  MISS:     426609
LLC PREFETCH  ACCESS:          0  HIT:          0  MISS:          0
LLC WRITEBACK ACCESS:     439095  HIT:     432946  MISS:       6149
Heartbeat CPU 0 instructions: 64000003 cycles: 79783771 heartbeat IPC: 0.200598 cumulative IPC: 0.209478 (Simulation time: 1 hr 29 min 56 sec) 

Region of Interest Statistics
cpu0_DTLB TOTAL     ACCESS:    2502635  HIT:    2483378  MISS:      19257
cpu0_DTLB LOAD      ACCESS:    1110983  HIT:    1108370  MISS:       2613
cpu0_DTLB RFO       ACCESS:    1391652  HIT:    1375008  MISS:      16644
cpu0_DTLB PREFETCH  ACCESS:          0  HIT:          0  MISS:          0
cpu0_DTLB WRITEBACK ACCESS:          0  HIT:          0  MISS:          0
cpu0_ITLB TOTAL     ACCESS:     268728  HIT:     268728  MISS:          0
cpu0_ITLB LOAD      ACCESS:     268728  HIT:     268728  MISS:          0
cpu0_ITLB RFO       ACCESS:          0  HIT:          0  MISS:          0
cpu0_ITLB PREFETCH  ACCESS:          0  HIT:          0  MISS:          0
cpu0_ITLB WRITEBACK ACCESS:          0  HIT:          0  MISS:          0
cpu0_L1I TOTAL     ACCESS:     308499  HIT:     308499  MISS:          0
cpu0_L1I LOAD      ACCESS:     308499  HIT:     308499  MISS:          0
cpu0_L1I RFO       ACCESS:          0  HIT:          0  MISS:          0
cpu0_L1I PREFETCH  ACCESS:          0  HIT:          0  MISS:          0
cpu0_L1I WRITEBACK ACCESS:          0  HIT:          0  MISS:          0
cpu0_STLB TOTAL     ACCESS:      19257  HIT:       8807  MISS:      10450
cpu0_STLB LOAD      ACCESS:       2613  HIT:          0  MISS:       2613
cpu0_STLB RFO       ACCESS:      16644  HIT:       8807  MISS:       7837
cpu0_STLB PREFETCH  ACCESS:          0  HIT:          0  MISS:          0
cpu0_STLB WRITEBACK ACCESS:          0  HIT:          0  MISS:          0
cpu0_L1D TOTAL     ACCESS:    3322331  HIT:    2219210  MISS:    1103121
cpu0_L1D LOAD      ACCESS:     786787  HIT:     619638  MISS:     167149
cpu0_L1D RFO       ACCESS:    2525403  HIT:    1589435  MISS:     935968
cpu0_L1D PREFETCH  ACCESS:          0  HIT:          0  MISS:          0
cpu0_L1D WRITEBACK ACCESS:          0  HIT:          0  MISS:          0
cpu0_L2C TOTAL     ACCESS:    2039084  HIT:    1356364  MISS:     682720
cpu0_L2C LOAD      ACCESS:     167149  HIT:          1  MISS:     167148
cpu0_L2C RFO       ACCESS:     935968  HIT:     420442  MISS:     515526
cpu0_L2C PREFETCH  ACCESS:          0  HIT:          0  MISS:          0
cpu0_L2C WRITEBACK ACCESS:     935963  HIT:     935921  MISS:         42
LLC TOTAL     ACCESS:    1198461  HIT:     522622  MISS:     675839
LLC LOAD      ACCESS:     167148  HIT:          0  MISS:     167148
LLC RFO       ACCESS:     515496  HIT:      14082  MISS:     501414
LLC PREFETCH  ACCESS:          0  HIT:          0  MISS:          0
LLC WRITEBACK ACCESS:     515813  HIT:     508540  MISS:       7273
Heartbeat CPU 0 instructions: 66000000 cycles: 89146014 heartbeat IPC: 0.213624 cumulative IPC: 0.209987 (Simulation time: 1 hr 38 min 8 sec) 

Region of Interest Statistics
cpu0_DTLB TOTAL     ACCESS:    2857369  HIT:    2835411  MISS:      21958
cpu0_DTLB LOAD      ACCESS:    1269166  HIT:    1266186  MISS:       2980
cpu0_DTLB RFO       ACCESS:    1588203  HIT:    1569225  MISS:      18978
cpu0_DTLB PREFETCH  ACCESS:          0  HIT:          0  MISS:          0
cpu0_DTLB WRITEBACK ACCESS:          0  HIT:          0  MISS:          0
cpu0_ITLB TOTAL     ACCESS:     305507  HIT:     305507  MISS:          0
cpu0_ITLB LOAD      ACCESS:     305507  HIT:     305507  MISS:          0
cpu0_ITLB RFO       ACCESS:          0  HIT:          0  MISS:          0
cpu0_ITLB PREFETCH  ACCESS:          0  HIT:          0  MISS:          0
cpu0_ITLB WRITEBACK ACCESS:          0  HIT:          0  MISS:          0
cpu0_L1I TOTAL     ACCESS:     352947  HIT:     352947  MISS:          0
cpu0_L1I LOAD      ACCESS:     352947  HIT:     352947  MISS:          0
cpu0_L1I RFO       ACCESS:          0  HIT:          0  MISS:          0
cpu0_L1I PREFETCH  ACCESS:          0  HIT:          0  MISS:          0
cpu0_L1I WRITEBACK ACCESS:          0  HIT:          0  MISS:          0
cpu0_STLB TOTAL     ACCESS:      21958  HIT:      10042  MISS:      11916
cpu0_STLB LOAD      ACCESS:       2980  HIT:          0  MISS:       2980
cpu0_STLB RFO       ACCESS:      18978  HIT:      10042  MISS:       8936
cpu0_STLB PREFETCH  ACCESS:          0  HIT:          0  MISS:          0
cpu0_STLB WRITEBACK ACCESS:          0  HIT:          0  MISS:          0
cpu0_L1D TOTAL     ACCESS:    3794789  HIT:    2536862  MISS:    1257927
cpu0_L1D LOAD      ACCESS:     899307  HIT:     708703  MISS:     190604
cpu0_L1D RFO       ACCESS:    2884236  HIT:    1816917  MISS:    1067319
cpu0_L1D PREFETCH  ACCESS:          0  HIT:          0  MISS:          0
cpu0_L1D WRITEBACK ACCESS:          0  HIT:          0  MISS:          0
cpu0_L2C TOTAL     ACCESS:    2325242  HIT:    1546402  MISS:     778840
cpu0_L2C LOAD      ACCESS:     190604  HIT:          1  MISS:     190603
cpu0_L2C RFO       ACCESS:    1067319  HIT:     479131  MISS:     588188
cpu0_L2C PREFETCH  ACCESS:          0  HIT:          0  MISS:          0
cpu0_L2C WRITEBACK ACCESS:    1067315  HIT:    1067270  MISS:         45
LLC TOTAL     ACCESS:    1367236  HIT:     596822  MISS:     770414
LLC LOAD      ACCESS:     190603  HIT:          0  MISS:     190603
LLC RFO       ACCESS:     588157  HIT:      16362  MISS:     571795
LLC PREFETCH  ACCESS:          0  HIT:          0  MISS:          0
LLC WRITEBACK ACCESS:     588472  HIT:     580460  MISS:       8012
Heartbeat CPU 0 instructions: 68000003 cycles: 98326920 heartbeat IPC: 0.217844 cumulative IPC: 0.210832 (Simulation time: 1 hr 46 min 10 sec) 

Region of Interest Statistics
cpu0_DTLB TOTAL     ACCESS:    3208402  HIT:    3183815  MISS:      24587
cpu0_DTLB LOAD      ACCESS:    1426987  HIT:    1423651  MISS:       3336
cpu0_DTLB RFO       ACCESS:    1781415  HIT:    1760164  MISS:      21251
cpu0_DTLB PREFETCH  ACCESS:          0  HIT:          0  MISS:          0
cpu0_DTLB WRITEBACK ACCESS:          0  HIT:          0  MISS:          0
cpu0_ITLB TOTAL     ACCESS:     341600  HIT:     341600  MISS:          0
cpu0_ITLB LOAD      ACCESS:     341600  HIT:     341600  MISS:          0
cpu0_ITLB RFO       ACCESS:          0  HIT:          0  MISS:          0
cpu0_ITLB PREFETCH  ACCESS:          0  HIT:          0  MISS:          0
cpu0_ITLB WRITEBACK ACCESS:          0  HIT:          0  MISS:          0
cpu0_L1I TOTAL     ACCESS:     396035  HIT:     396035  MISS:          0
cpu0_L1I LOAD      ACCESS:     396035  HIT:     396035  MISS:          0
cpu0_L1I RFO       ACCESS:          0  HIT:          0  MISS:          0
cpu0_L1I PREFETCH  ACCESS:          0  HIT:          0  MISS:          0
cpu0_L1I WRITEBACK ACCESS:          0  HIT:          0  MISS:          0
cpu0_STLB TOTAL     ACCESS:      24587  HIT:      11247  MISS:      13340
cpu0_STLB LOAD      ACCESS:       3336  HIT:          0  MISS:       3336
cpu0_STLB RFO       ACCESS:      21251  HIT:      11247  MISS:      10004
cpu0_STLB PREFETCH  ACCESS:          0  HIT:          0  MISS:          0
cpu0_STLB WRITEBACK ACCESS:          0  HIT:          0  MISS:          0
cpu0_L1D TOTAL     ACCESS:    4264370  HIT:    2855956  MISS:    1408414
cpu0_L1D LOAD      ACCESS:    1012034  HIT:     798630  MISS:     213404
cpu0_L1D RFO       ACCESS:    3239956  HIT:    2044951  MISS:    1195005
cpu0_L1D PREFETCH  ACCESS:          0  HIT:          0  MISS:          0
cpu0_L1D WRITEBACK ACCESS:          0  HIT:          0  MISS:          0
cpu0_L2C TOTAL     ACCESS:    2603415  HIT:    1731250  MISS:     872165
cpu0_L2C LOAD      ACCESS:     213404  HIT:          1  MISS:     213403
cpu0_L2C RFO       ACCESS:    1195005  HIT:     536298  MISS:     658707
cpu0_L2C PREFETCH  ACCESS:          0  HIT:          0  MISS:          0
cpu0_L2C WRITEBACK ACCESS:    1195001  HIT:    1194951  MISS:         50
LLC TOTAL     ACCESS:    1531072  HIT:     668090  MISS:     862982
LLC LOAD      ACCESS:     213403  HIT:          0  MISS:     213403
LLC RFO       ACCESS:     658671  HIT:      18475  MISS:     640196
LLC PREFETCH  ACCESS:          0  HIT:          0  MISS:          0
LLC WRITEBACK ACCESS:     658993  HIT:     649615  MISS:       9378
Heartbeat CPU 0 instructions: 70000000 cycles: 107682872 heartbeat IPC: 0.213767 cumulative IPC: 0.211122 (Simulation time: 1 hr 54 min 25 sec) 

Region of Interest Statistics
cpu0_DTLB TOTAL     ACCESS:    3563336  HIT:    3536040  MISS:      27296
cpu0_DTLB LOAD      ACCESS:    1584908  HIT:    1581205  MISS:       3703
cpu0_DTLB RFO       ACCESS:    1978428  HIT:    1954835  MISS:      23593
cpu0_DTLB PREFETCH  ACCESS:          0  HIT:          0  MISS:          0
cpu0_DTLB WRITEBACK ACCESS:          0  HIT:          0  MISS:          0
cpu0_ITLB TOTAL     ACCESS:     380197  HIT:     380197  MISS:          0
cpu0_ITLB LOAD      ACCESS:     380197  HIT:     380197  MISS:          0
cpu0_ITLB RFO       ACCESS:          0  HIT:          0  MISS:          0
cpu0_ITLB PREFETCH  ACCESS:          0  HIT:          0  MISS:          0
cpu0_ITLB WRITEBACK ACCESS:          0  HIT:          0  MISS:          0
cpu0_L1I TOTAL     ACCESS:     438597  HIT:     438597  MISS:          0
cpu0_L1I LOAD      ACCESS:     438597  HIT:     438597  MISS:          0
cpu0_L1I RFO       ACCESS:          0  HIT:          0  MISS:          0
cpu0_L1I PREFETCH  ACCESS:          0  HIT:          0  MISS:          0
cpu0_L1I WRITEBACK ACCESS:          0  HIT:          0  MISS:          0
cpu0_STLB TOTAL     ACCESS:      27296  HIT:      12486  MISS:      14810
cpu0_STLB LOAD      ACCESS:       3703  HIT:          0  MISS:       3703
cpu0_STLB RFO       ACCESS:      23593  HIT:      12486  MISS:      11107
cpu0_STLB PREFETCH  ACCESS:          0  HIT:          0  MISS:          0
cpu0_STLB WRITEBACK ACCESS:          0  HIT:          0  MISS:          0
cpu0_L1D TOTAL     ACCESS:    4736359  HIT:    3172788  MISS:    1563571
cpu0_L1D LOAD      ACCESS:    1124337  HIT:     887425  MISS:     236912
cpu0_L1D RFO       ACCESS:    3598172  HIT:    2271519  MISS:    1326653
cpu0_L1D PREFETCH  ACCESS:          0  HIT:          0  MISS:          0
cpu0_L1D WRITEBACK ACCESS:          0  HIT:          0  MISS:          0
cpu0_L2C TOTAL     ACCESS:    2890220  HIT:    1921476  MISS:     968744
cpu0_L2C LOAD      ACCESS:     236912  HIT:          1  MISS:     236911
cpu0_L2C RFO       ACCESS:    1326653  HIT:     594876  MISS:     731777
cpu0_L2C PREFETCH  ACCESS:          0  HIT:          0  MISS:          0
cpu0_L2C WRITEBACK ACCESS:    1326649  HIT:    1326599  MISS:         50
LLC TOTAL     ACCESS:    1700594  HIT:     742235  MISS:     958359
LLC LOAD      ACCESS:     236911  HIT:          0  MISS:     236911
LLC RFO       ACCESS:     731739  HIT:      21019  MISS:     710720
LLC PREFETCH  ACCESS:          0  HIT:          0  MISS:          0
LLC WRITEBACK ACCESS:     731938  HIT:     721216  MISS:      10722
Heartbeat CPU 0 instructions: 72000003 cycles: 117259604 heartbeat IPC: 0.20884 cumulative IPC: 0.210913 (Simulation time: 2 hr 3 min 5 sec) 

Region of Interest Statistics
cpu0_DTLB TOTAL     ACCESS:    3921307  HIT:    3891265  MISS:      30042
cpu0_DTLB LOAD      ACCESS:    1744154  HIT:    1740077  MISS:       4077
cpu0_DTLB RFO       ACCESS:    2177153  HIT:    2151188  MISS:      25965
cpu0_DTLB PREFETCH  ACCESS:          0  HIT:          0  MISS:          0
cpu0_DTLB WRITEBACK ACCESS:          0  HIT:          0  MISS:          0
cpu0_ITLB TOTAL     ACCESS:     417623  HIT:     417623  MISS:          0
cpu0_ITLB LOAD      ACCESS:     417623  HIT:     417623  MISS:          0
cpu0_ITLB RFO       ACCESS:          0  HIT:          0  MISS:          0
cpu0_ITLB PREFETCH  ACCESS:          0  HIT:          0  MISS:          0
cpu0_ITLB WRITEBACK ACCESS:          0  HIT:          0  MISS:          0
cpu0_L1I TOTAL     ACCESS:     484216  HIT:     484216  MISS:          0
cpu0_L1I LOAD      ACCESS:     484216  HIT:     484216  MISS:          0
cpu0_L1I RFO       ACCESS:          0  HIT:          0  MISS:          0
cpu0_L1I PREFETCH  ACCESS:          0  HIT:          0  MISS:          0
cpu0_L1I WRITEBACK ACCESS:          0  HIT:          0  MISS:          0
cpu0_STLB TOTAL     ACCESS:      30042  HIT:      13740  MISS:      16302
cpu0_STLB LOAD      ACCESS:       4077  HIT:          0  MISS:       4077
cpu0_STLB RFO       ACCESS:      25965  HIT:      13740  MISS:      12225
cpu0_STLB PREFETCH  ACCESS:          0  HIT:          0  MISS:          0
cpu0_STLB WRITEBACK ACCESS:          0  HIT:          0  MISS:          0
cpu0_L1D TOTAL     ACCESS:    5210936  HIT:    3489940  MISS:    1720996
cpu0_L1D LOAD      ACCESS:    1236792  HIT:     976025  MISS:     260767
cpu0_L1D RFO       ACCESS:    3958802  HIT:    2498581  MISS:    1460221
cpu0_L1D PREFETCH  ACCESS:          0  HIT:          0  MISS:          0
cpu0_L1D WRITEBACK ACCESS:          0  HIT:          0  MISS:          0
cpu0_L2C TOTAL     ACCESS:    3181218  HIT:    2114766  MISS:    1066452
cpu0_L2C LOAD      ACCESS:     260767  HIT:          1  MISS:     260766
cpu0_L2C RFO       ACCESS:    1460221  HIT:     654604  MISS:     805617
cpu0_L2C PREFETCH  ACCESS:          0  HIT:          0  MISS:          0
cpu0_L2C WRITEBACK ACCESS:    1460222  HIT:    1460161  MISS:         61
LLC TOTAL     ACCESS:    1872300  HIT:     816123  MISS:    1056177
LLC LOAD      ACCESS:     260766  HIT:          0  MISS:     260766
LLC RFO       ACCESS:     805578  HIT:      23309  MISS:     782269
LLC PREFETCH  ACCESS:          0  HIT:          0  MISS:          0
LLC WRITEBACK ACCESS:     805948  HIT:     792814  MISS:      13134
Heartbeat CPU 0 instructions: 74000000 cycles: 127228978 heartbeat IPC: 0.200614 cumulative IPC: 0.210014 (Simulation time: 2 hr 12 min 2 sec) 

Region of Interest Statistics
cpu0_DTLB TOTAL     ACCESS:    4285879  HIT:    4252954  MISS:      32925
cpu0_DTLB LOAD      ACCESS:    1903932  HIT:    1899464  MISS:       4468
cpu0_DTLB RFO       ACCESS:    2381947  HIT:    2353490  MISS:      28457
cpu0_DTLB PREFETCH  ACCESS:          0  HIT:          0  MISS:          0
cpu0_DTLB WRITEBACK ACCESS:          0  HIT:          0  MISS:          0
cpu0_ITLB TOTAL     ACCESS:     457816  HIT:     457816  MISS:          0
cpu0_ITLB LOAD      ACCESS:     457816  HIT:     457816  MISS:          0
cpu0_ITLB RFO       ACCESS:          0  HIT:          0  MISS:          0
cpu0_ITLB PREFETCH  ACCESS:          0  HIT:          0  MISS:          0
cpu0_ITLB WRITEBACK ACCESS:          0  HIT:          0  MISS:          0
cpu0_L1I TOTAL     ACCESS:     529433  HIT:     529433  MISS:          0
cpu0_L1I LOAD      ACCESS:     529433  HIT:     529433  MISS:          0
cpu0_L1I RFO       ACCESS:          0  HIT:          0  MISS:          0
cpu0_L1I PREFETCH  ACCESS:          0  HIT:          0  MISS:          0
cpu0_L1I WRITEBACK ACCESS:          0  HIT:          0  MISS:          0
cpu0_STLB TOTAL     ACCESS:      32925  HIT:      15059  MISS:      17866
cpu0_STLB LOAD      ACCESS:       4468  HIT:          0  MISS:       4468
cpu0_STLB RFO       ACCESS:      28457  HIT:      15059  MISS:      13398
cpu0_STLB PREFETCH  ACCESS:          0  HIT:          0  MISS:          0
cpu0_STLB WRITEBACK ACCESS:          0  HIT:          0  MISS:          0
cpu0_L1D TOTAL     ACCESS:    5691183  HIT:    3805049  MISS:    1886134
cpu0_L1D LOAD      ACCESS:    1348933  HIT:    1063139  MISS:     285794
cpu0_L1D RFO       ACCESS:    4325344  HIT:    2725012  MISS:    1600332
cpu0_L1D PREFETCH  ACCESS:          0  HIT:          0  MISS:          0
cpu0_L1D WRITEBACK ACCESS:          0  HIT:          0  MISS:          0
cpu0_L2C TOTAL     ACCESS:    3486468  HIT:    2318281  MISS:    1168187
cpu0_L2C LOAD      ACCESS:     285794  HIT:          1  MISS:     285793
cpu0_L2C RFO       ACCESS:    1600332  HIT:     718007  MISS:     882325
cpu0_L2C PREFETCH  ACCESS:          0  HIT:          0  MISS:          0
cpu0_L2C WRITEBACK ACCESS:    1600334  HIT:    1600273  MISS:         61
LLC TOTAL     ACCESS:    2050533  HIT:     893776  MISS:    1156757
LLC LOAD      ACCESS:     285793  HIT:          0  MISS:     285793
LLC RFO       ACCESS:     882286  HIT:      24963  MISS:     857323
LLC PREFETCH  ACCESS:          0  HIT:          0  MISS:          0
LLC WRITEBACK ACCESS:     882446  HIT:     868813  MISS:      13633
Heartbeat CPU 0 instructions: 76000003 cycles: 136326298 heartbeat IPC: 0.219845 cumulative IPC: 0.210739 (Simulation time: 2 hr 20 min 0 sec) 

Region of Interest Statistics
cpu0_DTLB TOTAL     ACCESS:    4635963  HIT:    4600435  MISS:      35528
cpu0_DTLB LOAD      ACCESS:    2061826  HIT:    2057005  MISS:       4821
cpu0_DTLB RFO       ACCESS:    2574137  HIT:    2543430  MISS:      30707
cpu0_DTLB PREFETCH  ACCESS:          0  HIT:          0  MISS:          0
cpu0_DTLB WRITEBACK ACCESS:          0  HIT:          0  MISS:          0
cpu0_ITLB TOTAL     ACCESS:     493515  HIT:     493515  MISS:          0
cpu0_ITLB LOAD      ACCESS:     493515  HIT:     493515  MISS:          0
cpu0_ITLB RFO       ACCESS:          0  HIT:          0  MISS:          0
cpu0_ITLB PREFETCH  ACCESS:          0  HIT:          0  MISS:          0
cpu0_ITLB WRITEBACK ACCESS:          0  HIT:          0  MISS:          0
cpu0_L1I TOTAL     ACCESS:     572315  HIT:     572315  MISS:          0
cpu0_L1I LOAD      ACCESS:     572315  HIT:     572315  MISS:          0
cpu0_L1I RFO       ACCESS:          0  HIT:          0  MISS:          0
cpu0_L1I PREFETCH  ACCESS:          0  HIT:          0  MISS:          0
cpu0_L1I WRITEBACK ACCESS:          0  HIT:          0  MISS:          0
cpu0_STLB TOTAL     ACCESS:      35528  HIT:      16250  MISS:      19278
cpu0_STLB LOAD      ACCESS:       4821  HIT:          0  MISS:       4821
cpu0_STLB RFO       ACCESS:      30707  HIT:      16250  MISS:      14457
cpu0_STLB PREFETCH  ACCESS:          0  HIT:          0  MISS:          0
cpu0_STLB WRITEBACK ACCESS:          0  HIT:          0  MISS:          0
cpu0_L1D TOTAL     ACCESS:    6159574  HIT:    4124317  MISS:    2035257
cpu0_L1D LOAD      ACCESS:    1461575  HIT:    1153193  MISS:     308382
cpu0_L1D RFO       ACCESS:    4679681  HIT:    2952814  MISS:    1726867
cpu0_L1D PREFETCH  ACCESS:          0  HIT:          0  MISS:          0
cpu0_L1D WRITEBACK ACCESS:          0  HIT:          0  MISS:          0
cpu0_L2C TOTAL     ACCESS:    3762123  HIT:    2501518  MISS:    1260605
cpu0_L2C LOAD      ACCESS:     308382  HIT:          1  MISS:     308381
cpu0_L2C RFO       ACCESS:    1726867  HIT:     774712  MISS:     952155
cpu0_L2C PREFETCH  ACCESS:          0  HIT:          0  MISS:          0
cpu0_L2C WRITEBACK ACCESS:    1726866  HIT:    1726805  MISS:         61
LLC TOTAL     ACCESS:    2212839  HIT:     964476  MISS:    1248363
LLC LOAD      ACCESS:     308381  HIT:          0  MISS:     308381
LLC RFO       ACCESS:     952114  HIT:      27000  MISS:     925114
LLC PREFETCH  ACCESS:          0  HIT:          0  MISS:          0
LLC WRITEBACK ACCESS:     952336  HIT:     937476  MISS:      14860
Heartbeat CPU 0 instructions: 78000001 cycles: 145839716 heartbeat IPC: 0.210229 cumulative IPC: 0.210703 (Simulation time: 2 hr 29 min 6 sec) 

Region of Interest Statistics
cpu0_DTLB TOTAL     ACCESS:    4992484  HIT:    4954221  MISS:      38263
cpu0_DTLB LOAD      ACCESS:    2220228  HIT:    2215036  MISS:       5192
cpu0_DTLB RFO       ACCESS:    2772256  HIT:    2739185  MISS:      33071
cpu0_DTLB PREFETCH  ACCESS:          0  HIT:          0  MISS:          0
cpu0_DTLB WRITEBACK ACCESS:          0  HIT:          0  MISS:          0
cpu0_ITLB TOTAL     ACCESS:     531866  HIT:     531866  MISS:          0
cpu0_ITLB LOAD      ACCESS:     531866  HIT:     531866  MISS:          0
cpu0_ITLB RFO       ACCESS:          0  HIT:          0  MISS:          0
cpu0_ITLB PREFETCH  ACCESS:          0  HIT:          0  MISS:          0
cpu0_ITLB WRITEBACK ACCESS:          0  HIT:          0  MISS:          0
cpu0_L1I TOTAL     ACCESS:     615834  HIT:     615834  MISS:          0
cpu0_L1I LOAD      ACCESS:     615834  HIT:     615834  MISS:          0
cpu0_L1I RFO       ACCESS:          0  HIT:          0  MISS:          0
cpu0_L1I PREFETCH  ACCESS:          0  HIT:          0  MISS:          0
cpu0_L1I WRITEBACK ACCESS:          0  HIT:          0  MISS:          0
cpu0_STLB TOTAL     ACCESS:      38263  HIT:      17501  MISS:      20762
cpu0_STLB LOAD      ACCESS:       5192  HIT:          0  MISS:       5192
cpu0_STLB RFO       ACCESS:      33071  HIT:      17501  MISS:      15570
cpu0_STLB PREFETCH  ACCESS:          0  HIT:          0  MISS:          0
cpu0_STLB WRITEBACK ACCESS:          0  HIT:          0  MISS:          0
cpu0_L1D TOTAL     ACCESS:    6633153  HIT:    4441273  MISS:    2191880
cpu0_L1D LOAD      ACCESS:    1573823  HIT:    1241709  MISS:     332114
cpu0_L1D RFO       ACCESS:    5039528  HIT:    3179770  MISS:    1859758
cpu0_L1D PREFETCH  ACCESS:          0  HIT:          0  MISS:          0
cpu0_L1D WRITEBACK ACCESS:          0  HIT:          0  MISS:          0
cpu0_L2C TOTAL     ACCESS:    4051636  HIT:    2693812  MISS:    1357824
cpu0_L2C LOAD      ACCESS:     332114  HIT:          1  MISS:     332113
cpu0_L2C RFO       ACCESS:    1859758  HIT:     834120  MISS:    1025638
cpu0_L2C PREFETCH  ACCESS:          0  HIT:          0  MISS:          0
cpu0_L2C WRITEBACK ACCESS:    1859756  HIT:    1859691  MISS:         65
LLC TOTAL     ACCESS:    2383524  HIT:    1039343  MISS:    1344181
LLC LOAD      ACCESS:     332113  HIT:          0  MISS:     332113
LLC RFO       ACCESS:    1025594  HIT:      29289  MISS:     996305
LLC PREFETCH  ACCESS:          0  HIT:          0  MISS:          0
LLC WRITEBACK ACCESS:    1025809  HIT:    1010054  MISS:      15755
Heartbeat CPU 0 instructions: 80000003 cycles: 155048129 heartbeat IPC: 0.217193 cumulative IPC: 0.211123 (Simulation time: 2 hr 37 min 32 sec) 

Region of Interest Statistics
cpu0_DTLB TOTAL     ACCESS:    5345040  HIT:    5304136  MISS:      40904
cpu0_DTLB LOAD      ACCESS:    2378733  HIT:    2373182  MISS:       5551
cpu0_DTLB RFO       ACCESS:    2966307  HIT:    2930954  MISS:      35353
cpu0_DTLB PREFETCH  ACCESS:          0  HIT:          0  MISS:          0
cpu0_DTLB WRITEBACK ACCESS:          0  HIT:          0  MISS:          0
cpu0_ITLB TOTAL     ACCESS:     566876  HIT:     566876  MISS:          0
cpu0_ITLB LOAD      ACCESS:     566876  HIT:     566876  MISS:          0
cpu0_ITLB RFO       ACCESS:          0  HIT:          0  MISS:          0
cpu0_ITLB PREFETCH  ACCESS:          0  HIT:          0  MISS:          0
cpu0_ITLB WRITEBACK ACCESS:          0  HIT:          0  MISS:          0
cpu0_L1I TOTAL     ACCESS:     661524  HIT:     661524  MISS:          0
cpu0_L1I LOAD      ACCESS:     661524  HIT:     661524  MISS:          0
cpu0_L1I RFO       ACCESS:          0  HIT:          0  MISS:          0
cpu0_L1I PREFETCH  ACCESS:          0  HIT:          0  MISS:          0
cpu0_L1I WRITEBACK ACCESS:          0  HIT:          0  MISS:          0
cpu0_STLB TOTAL     ACCESS:      40904  HIT:      18708  MISS:      22196
cpu0_STLB LOAD      ACCESS:       5551  HIT:          0  MISS:       5551
cpu0_STLB RFO       ACCESS:      35353  HIT:      18708  MISS:      16645
cpu0_STLB PREFETCH  ACCESS:          0  HIT:          0  MISS:          0
cpu0_STLB WRITEBACK ACCESS:          0  HIT:          0  MISS:          0
cpu0_L1D TOTAL     ACCESS:    7104143  HIT:    4760872  MISS:    2343271
cpu0_L1D LOAD      ACCESS:    1686684  HIT:    1331629  MISS:     355055
cpu0_L1D RFO       ACCESS:    5396223  HIT:    3408017  MISS:    1988206
cpu0_L1D PREFETCH  ACCESS:          0  HIT:          0  MISS:          0
cpu0_L1D WRITEBACK ACCESS:          0  HIT:          0  MISS:          0
cpu0_L2C TOTAL     ACCESS:    4331475  HIT:    2879639  MISS:    1451836
cpu0_L2C LOAD      ACCESS:     355055  HIT:          1  MISS:     355054
cpu0_L2C RFO       ACCESS:    1988206  HIT:     891511  MISS:    1096695
cpu0_L2C PREFETCH  ACCESS:          0  HIT:          0  MISS:          0
cpu0_L2C WRITEBACK ACCESS:    1988204  HIT:    1988127  MISS:         77
LLC TOTAL     ACCESS:    2548685  HIT:    1110847  MISS:    1437838
LLC LOAD      ACCESS:     355054  HIT:          0  MISS:     355054
LLC RFO       ACCESS:    1096651  HIT:      31541  MISS:    1065110
LLC PREFETCH  ACCESS:          0  HIT:          0  MISS:          0
LLC WRITEBACK ACCESS:    1096970  HIT:    1079306  MISS:      17664
Heartbeat CPU 0 instructions: 82000001 cycles: 165149332 heartbeat IPC: 0.197996 cumulative IPC: 0.210252 (Simulation time: 2 hr 46 min 41 sec) 

Region of Interest Statistics
cpu0_DTLB TOTAL     ACCESS:    5711617  HIT:    5667786  MISS:      43831
cpu0_DTLB LOAD      ACCESS:    2538687  HIT:    2532739  MISS:       5948
cpu0_DTLB RFO       ACCESS:    3172930  HIT:    3135047  MISS:      37883
cpu0_DTLB PREFETCH  ACCESS:          0  HIT:          0  MISS:          0
cpu0_DTLB WRITEBACK ACCESS:          0  HIT:          0  MISS:          0
cpu0_ITLB TOTAL     ACCESS:     607741  HIT:     607741  MISS:          0
cpu0_ITLB LOAD      ACCESS:     607741  HIT:     607741  MISS:          0
cpu0_ITLB RFO       ACCESS:          0  HIT:          0  MISS:          0
cpu0_ITLB PREFETCH  ACCESS:          0  HIT:          0  MISS:          0
cpu0_ITLB WRITEBACK ACCESS:          0  HIT:          0  MISS:          0
cpu0_L1I TOTAL     ACCESS:     707241  HIT:     707241  MISS:          0
cpu0_L1I LOAD      ACCESS:     707241  HIT:     707241  MISS:          0
cpu0_L1I RFO       ACCESS:          0  HIT:          0  MISS:          0
cpu0_L1I PREFETCH  ACCESS:          0  HIT:          0  MISS:          0
cpu0_L1I WRITEBACK ACCESS:          0  HIT:          0  MISS:          0
cpu0_STLB TOTAL     ACCESS:      43831  HIT:      20047  MISS:      23784
cpu0_STLB LOAD      ACCESS:       5948  HIT:          0  MISS:       5948
cpu0_STLB RFO       ACCESS:      37883  HIT:      20047  MISS:      17836
cpu0_STLB PREFETCH  ACCESS:          0  HIT:          0  MISS:          0
cpu0_STLB WRITEBACK ACCESS:          0  HIT:          0  MISS:          0
cpu0_L1D TOTAL     ACCESS:    7586283  HIT:    5075414  MISS:    2510869
cpu0_L1D LOAD      ACCESS:    1798923  HIT:    1418473  MISS:     380450
cpu0_L1D RFO       ACCESS:    5764536  HIT:    3634127  MISS:    2130409
cpu0_L1D PREFETCH  ACCESS:          0  HIT:          0  MISS:          0
cpu0_L1D WRITEBACK ACCESS:          0  HIT:          0  MISS:          0
cpu0_L2C TOTAL     ACCESS:    4641273  HIT:    3085234  MISS:    1556039
cpu0_L2C LOAD      ACCESS:     380450  HIT:          1  MISS:     380449
cpu0_L2C RFO       ACCESS:    2130409  HIT:     954910  MISS:    1175499
cpu0_L2C PREFETCH  ACCESS:          0  HIT:          0  MISS:          0
cpu0_L2C WRITEBACK ACCESS:    2130404  HIT:    2130323  MISS:         81
LLC TOTAL     ACCESS:    2731763  HIT:    1191545  MISS:    1540218
LLC LOAD      ACCESS:     380449  HIT:          0  MISS:     380449
LLC RFO       ACCESS:    1175453  HIT:      34155  MISS:    1141298
LLC PREFETCH  ACCESS:          0  HIT:          0  MISS:          0
LLC WRITEBACK ACCESS:    1175851  HIT:    1157390  MISS:      18461
Heartbeat CPU 0 instructions: 84000001 cycles: 174545138 heartbeat IPC: 0.212861 cumulative IPC: 0.210404 (Simulation time: 2 hr 55 min 28 sec) 

Region of Interest Statistics
cpu0_DTLB TOTAL     ACCESS:    6066096  HIT:    6019559  MISS:      46537
cpu0_DTLB LOAD      ACCESS:    2696531  HIT:    2690216  MISS:       6315
cpu0_DTLB RFO       ACCESS:    3369565  HIT:    3329343  MISS:      40222
cpu0_DTLB PREFETCH  ACCESS:          0  HIT:          0  MISS:          0
cpu0_DTLB WRITEBACK ACCESS:          0  HIT:          0  MISS:          0
cpu0_ITLB TOTAL     ACCESS:     645093  HIT:     645093  MISS:          0
cpu0_ITLB LOAD      ACCESS:     645093  HIT:     645093  MISS:          0
cpu0_ITLB RFO       ACCESS:          0  HIT:          0  MISS:          0
cpu0_ITLB PREFETCH  ACCESS:          0  HIT:          0  MISS:          0
cpu0_ITLB WRITEBACK ACCESS:          0  HIT:          0  MISS:          0
cpu0_L1I TOTAL     ACCESS:     750683  HIT:     750683  MISS:          0
cpu0_L1I LOAD      ACCESS:     750683  HIT:     750683  MISS:          0
cpu0_L1I RFO       ACCESS:          0  HIT:          0  MISS:          0
cpu0_L1I PREFETCH  ACCESS:          0  HIT:          0  MISS:          0
cpu0_L1I WRITEBACK ACCESS:          0  HIT:          0  MISS:          0
cpu0_STLB TOTAL     ACCESS:      46537  HIT:      21285  MISS:      25252
cpu0_STLB LOAD      ACCESS:       6315  HIT:          0  MISS:       6315
cpu0_STLB RFO       ACCESS:      40222  HIT:      21285  MISS:      18937
cpu0_STLB PREFETCH  ACCESS:          0  HIT:          0  MISS:          0
cpu0_STLB WRITEBACK ACCESS:          0  HIT:          0  MISS:          0
cpu0_L1D TOTAL     ACCESS:    8059176  HIT:    5393341  MISS:    2665835
cpu0_L1D LOAD      ACCESS:    1911422  HIT:    1507492  MISS:     403930
cpu0_L1D RFO       ACCESS:    6123462  HIT:    3861567  MISS:    2261895
cpu0_L1D PREFETCH  ACCESS:          0  HIT:          0  MISS:          0
cpu0_L1D WRITEBACK ACCESS:          0  HIT:          0  MISS:          0
cpu0_L2C TOTAL     ACCESS:    4927724  HIT:    3275502  MISS:    1652222
cpu0_L2C LOAD      ACCESS:     403930  HIT:          1  MISS:     403929
cpu0_L2C RFO       ACCESS:    2261895  HIT:    1013694  MISS:    1248201
cpu0_L2C PREFETCH  ACCESS:          0  HIT:          0  MISS:          0
cpu0_L2C WRITEBACK ACCESS:    2261889  HIT:    2261807  MISS:         82
LLC TOTAL     ACCESS:    2900513  HIT:    1264948  MISS:    1635565
LLC LOAD      ACCESS:     403929  HIT:          0  MISS:     403929
LLC RFO       ACCESS:    1248154  HIT:      36416  MISS:    1211738
LLC PREFETCH  ACCESS:          0  HIT:          0  MISS:          0
LLC WRITEBACK ACCESS:    1248420  HIT:    1228532  MISS:      19888
Heartbeat CPU 0 instructions: 86000003 cycles: 184001267 heartbeat IPC: 0.211503 cumulative IPC: 0.210464 (Simulation time: 3 hr 3 min 50 sec) 

Region of Interest Statistics
cpu0_DTLB TOTAL     ACCESS:    6421870  HIT:    6372617  MISS:      49253
cpu0_DTLB LOAD      ACCESS:    2855033  HIT:    2848350  MISS:       6683
cpu0_DTLB RFO       ACCESS:    3566837  HIT:    3524267  MISS:      42570
cpu0_DTLB PREFETCH  ACCESS:          0  HIT:          0  MISS:          0
cpu0_DTLB WRITEBACK ACCESS:          0  HIT:          0  MISS:          0
cpu0_ITLB TOTAL     ACCESS:     682753  HIT:     682753  MISS:          0
cpu0_ITLB LOAD      ACCESS:     682753  HIT:     682753  MISS:          0
cpu0_ITLB RFO       ACCESS:          0  HIT:          0  MISS:          0
cpu0_ITLB PREFETCH  ACCESS:          0  HIT:          0  MISS:          0
cpu0_ITLB WRITEBACK ACCESS:          0  HIT:          0  MISS:          0
cpu0_L1I TOTAL     ACCESS:     794481  HIT:     794481  MISS:          0
cpu0_L1I LOAD      ACCESS:     794481  HIT:     794481  MISS:          0
cpu0_L1I RFO       ACCESS:          0  HIT:          0  MISS:          0
cpu0_L1I PREFETCH  ACCESS:          0  HIT:          0  MISS:          0
cpu0_L1I WRITEBACK ACCESS:          0  HIT:          0  MISS:          0
cpu0_STLB TOTAL     ACCESS:      49253  HIT:      22529  MISS:      26724
cpu0_STLB LOAD      ACCESS:       6683  HIT:          0  MISS:       6683
cpu0_STLB RFO       ACCESS:      42570  HIT:      22529  MISS:      20041
cpu0_STLB PREFETCH  ACCESS:          0  HIT:          0  MISS:          0
cpu0_STLB WRITEBACK ACCESS:          0  HIT:          0  MISS:          0
cpu0_L1D TOTAL     ACCESS:    8532071  HIT:    5710646  MISS:    2821425
cpu0_L1D LOAD      ACCESS:    2023856  HIT:    1596349  MISS:     427507
cpu0_L1D RFO       ACCESS:    6482732  HIT:    4088824  MISS:    2393908
cpu0_L1D PREFETCH  ACCESS:          0  HIT:          0  MISS:          0
cpu0_L1D WRITEBACK ACCESS:          0  HIT:          0  MISS:          0
cpu0_L2C TOTAL     ACCESS:    5215332  HIT:    3466697  MISS:    1748635
cpu0_L2C LOAD      ACCESS:     427507  HIT:          1  MISS:     427506
cpu0_L2C RFO       ACCESS:    2393908  HIT:    1072875  MISS:    1321033
cpu0_L2C PREFETCH  ACCESS:          0  HIT:          0  MISS:          0
cpu0_L2C WRITEBACK ACCESS:    2393907  HIT:    2393821  MISS:         86
LLC TOTAL     ACCESS:    3070017  HIT:    1339196  MISS:    1730821
LLC LOAD      ACCESS:     427506  HIT:          0  MISS:     427506
LLC RFO       ACCESS:    1320980  HIT:      38471  MISS:    1282509
LLC PREFETCH  ACCESS:          0  HIT:          0  MISS:          0
LLC WRITEBACK ACCESS:    1321521  HIT:    1300725  MISS:      20796
Heartbeat CPU 0 instructions: 88000003 cycles: 192801809 heartbeat IPC: 0.227259 cumulative IPC: 0.211286 (Simulation time: 3 hr 11 min 38 sec) 

Region of Interest Statistics
cpu0_DTLB TOTAL     ACCESS:    6766704  HIT:    6714949  MISS:      51755
cpu0_DTLB LOAD      ACCESS:    3012060  HIT:    3005036  MISS:       7024
cpu0_DTLB RFO       ACCESS:    3754644  HIT:    3709913  MISS:      44731
cpu0_DTLB PREFETCH  ACCESS:          0  HIT:          0  MISS:          0
cpu0_DTLB WRITEBACK ACCESS:          0  HIT:          0  MISS:          0
cpu0_ITLB TOTAL     ACCESS:     715745  HIT:     715745  MISS:          0
cpu0_ITLB LOAD      ACCESS:     715745  HIT:     715745  MISS:          0
cpu0_ITLB RFO       ACCESS:          0  HIT:          0  MISS:          0
cpu0_ITLB PREFETCH  ACCESS:          0  HIT:          0  MISS:          0
cpu0_ITLB WRITEBACK ACCESS:          0  HIT:          0  MISS:          0
cpu0_L1I TOTAL     ACCESS:     838818  HIT:     838818  MISS:          0
cpu0_L1I LOAD      ACCESS:     838818  HIT:     838818  MISS:          0
cpu0_L1I RFO       ACCESS:          0  HIT:          0  MISS:          0
cpu0_L1I PREFETCH  ACCESS:          0  HIT:          0  MISS:          0
cpu0_L1I WRITEBACK ACCESS:          0  HIT:          0  MISS:          0
cpu0_STLB TOTAL     ACCESS:      51755  HIT:      23669  MISS:      28086
cpu0_STLB LOAD      ACCESS:       7024  HIT:          0  MISS:       7024
cpu0_STLB RFO       ACCESS:      44731  HIT:      23669  MISS:      21062
cpu0_STLB PREFETCH  ACCESS:          0  HIT:          0  MISS:          0
cpu0_STLB WRITEBACK ACCESS:          0  HIT:          0  MISS:          0
cpu0_L1D TOTAL     ACCESS:    8996556  HIT:    6031546  MISS:    2965010
cpu0_L1D LOAD      ACCESS:    2136616  HIT:    1687352  MISS:     449264
cpu0_L1D RFO       ACCESS:    6833429  HIT:    4317695  MISS:    2515734
cpu0_L1D PREFETCH  ACCESS:          0  HIT:          0  MISS:          0
cpu0_L1D WRITEBACK ACCESS:          0  HIT:          0  MISS:          0
cpu0_L2C TOTAL     ACCESS:    5480741  HIT:    3642608  MISS:    1838133
cpu0_L2C LOAD      ACCESS:     449264  HIT:          1  MISS:     449263
cpu0_L2C RFO       ACCESS:    2515734  HIT:    1126971  MISS:    1388763
cpu0_L2C PREFETCH  ACCESS:          0  HIT:          0  MISS:          0
cpu0_L2C WRITEBACK ACCESS:    2515731  HIT:    2515636  MISS:         95
LLC TOTAL     ACCESS:    3226889  HIT:    1408054  MISS:    1818835
LLC LOAD      ACCESS:     449263  HIT:          0  MISS:     449263
LLC RFO       ACCESS:    1388710  HIT:      40944  MISS:    1347766
LLC PREFETCH  ACCESS:          0  HIT:          0  MISS:          0
LLC WRITEBACK ACCESS:    1388904  HIT:    1367110  MISS:      21794
Heartbeat CPU 0 instructions: 90000004 cycles: 203342340 heartbeat IPC: 0.189744 cumulative IPC: 0.210094 (Simulation time: 3 hr 20 min 57 sec) 

Region of Interest Statistics
cpu0_DTLB TOTAL     ACCESS:    7141160  HIT:    7086337  MISS:      54823
cpu0_DTLB LOAD      ACCESS:    3173719  HIT:    3166279  MISS:       7440
cpu0_DTLB RFO       ACCESS:    3967441  HIT:    3920058  MISS:      47383
cpu0_DTLB PREFETCH  ACCESS:          0  HIT:          0  MISS:          0
cpu0_DTLB WRITEBACK ACCESS:          0  HIT:          0  MISS:          0
cpu0_ITLB TOTAL     ACCESS:     759553  HIT:     759553  MISS:          0
cpu0_ITLB LOAD      ACCESS:     759553  HIT:     759553  MISS:          0
cpu0_ITLB RFO       ACCESS:          0  HIT:          0  MISS:          0
cpu0_ITLB PREFETCH  ACCESS:          0  HIT:          0  MISS:          0
cpu0_ITLB WRITEBACK ACCESS:          0  HIT:          0  MISS:          0
cpu0_L1I TOTAL     ACCESS:     885348  HIT:     885348  MISS:          0
cpu0_L1I LOAD      ACCESS:     885348  HIT:     885348  MISS:          0
cpu0_L1I RFO       ACCESS:          0  HIT:          0  MISS:          0
cpu0_L1I PREFETCH  ACCESS:          0  HIT:          0  MISS:          0
cpu0_L1I WRITEBACK ACCESS:          0  HIT:          0  MISS:          0
cpu0_STLB TOTAL     ACCESS:      54823  HIT:      25073  MISS:      29750
cpu0_STLB LOAD      ACCESS:       7440  HIT:          0  MISS:       7440
cpu0_STLB RFO       ACCESS:      47383  HIT:      25073  MISS:      22310
cpu0_STLB PREFETCH  ACCESS:          0  HIT:          0  MISS:          0
cpu0_STLB WRITEBACK ACCESS:          0  HIT:          0  MISS:          0
cpu0_L1D TOTAL     ACCESS:    9484168  HIT:    6343506  MISS:    3140662
cpu0_L1D LOAD      ACCESS:    2248638  HIT:    1772749  MISS:     475889
cpu0_L1D RFO       ACCESS:    7207701  HIT:    4542941  MISS:    2664760
cpu0_L1D PREFETCH  ACCESS:          0  HIT:          0  MISS:          0
cpu0_L1D WRITEBACK ACCESS:          0  HIT:          0  MISS:          0
cpu0_L2C TOTAL     ACCESS:    5805427  HIT:    3858728  MISS:    1946699
cpu0_L2C LOAD      ACCESS:     475889  HIT:          1  MISS:     475888
cpu0_L2C RFO       ACCESS:    2664760  HIT:    1194063  MISS:    1470697
cpu0_L2C PREFETCH  ACCESS:          0  HIT:          0  MISS:          0
cpu0_L2C WRITEBACK ACCESS:    2664765  HIT:    2664664  MISS:        101
LLC TOTAL     ACCESS:    3417528  HIT:    1490569  MISS:    1926959
LLC LOAD      ACCESS:     475888  HIT:          0  MISS:     475888
LLC RFO       ACCESS:    1470640  HIT:      43046  MISS:    1427594
LLC PREFETCH  ACCESS:          0  HIT:          0  MISS:          0
LLC WRITEBACK ACCESS:    1470987  HIT:    1447523  MISS:      23464
Heartbeat CPU 0 instructions: 92000001 cycles: 212879368 heartbeat IPC: 0.209709 cumulative IPC: 0.210075 (Simulation time: 3 hr 29 min 29 sec) 

Region of Interest Statistics
cpu0_DTLB TOTAL     ACCESS:    7498908  HIT:    7441328  MISS:      57580
cpu0_DTLB LOAD      ACCESS:    3332447  HIT:    3324633  MISS:       7814
cpu0_DTLB RFO       ACCESS:    4166461  HIT:    4116695  MISS:      49766
cpu0_DTLB PREFETCH  ACCESS:          0  HIT:          0  MISS:          0
cpu0_DTLB WRITEBACK ACCESS:          0  HIT:          0  MISS:          0
cpu0_ITLB TOTAL     ACCESS:     797927  HIT:     797927  MISS:          0
cpu0_ITLB LOAD      ACCESS:     797927  HIT:     797927  MISS:          0
cpu0_ITLB RFO       ACCESS:          0  HIT:          0  MISS:          0
cpu0_ITLB PREFETCH  ACCESS:          0  HIT:          0  MISS:          0
cpu0_ITLB WRITEBACK ACCESS:          0  HIT:          0  MISS:          0
cpu0_L1I TOTAL     ACCESS:     929157  HIT:     929157  MISS:          0
cpu0_L1I LOAD      ACCESS:     929157  HIT:     929157  MISS:          0
cpu0_L1I RFO       ACCESS:          0  HIT:          0  MISS:          0
cpu0_L1I PREFETCH  ACCESS:          0  HIT:          0  MISS:          0
cpu0_L1I WRITEBACK ACCESS:          0  HIT:          0  MISS:          0
cpu0_STLB TOTAL     ACCESS:      57580  HIT:      26335  MISS:      31245
cpu0_STLB LOAD      ACCESS:       7814  HIT:          0  MISS:       7814
cpu0_STLB RFO       ACCESS:      49766  HIT:      26335  MISS:      23431
cpu0_STLB PREFETCH  ACCESS:          0  HIT:          0  MISS:          0
cpu0_STLB WRITEBACK ACCESS:          0  HIT:          0  MISS:          0
cpu0_L1D TOTAL     ACCESS:    9959283  HIT:    6660684  MISS:    3298599
cpu0_L1D LOAD      ACCESS:    2361042  HIT:    1861231  MISS:     499811
cpu0_L1D RFO       ACCESS:    7568917  HIT:    4770143  MISS:    2798774
cpu0_L1D PREFETCH  ACCESS:          0  HIT:          0  MISS:          0
cpu0_L1D WRITEBACK ACCESS:          0  HIT:          0  MISS:          0
cpu0_L2C TOTAL     ACCESS:    6097371  HIT:    4052751  MISS:    2044620
cpu0_L2C LOAD      ACCESS:     499811  HIT:          1  MISS:     499810
cpu0_L2C RFO       ACCESS:    2798774  HIT:    1254084  MISS:    1544690
cpu0_L2C PREFETCH  ACCESS:          0  HIT:          0  MISS:          0
cpu0_L2C WRITEBACK ACCESS:    2798772  HIT:    2798666  MISS:        106
LLC TOTAL     ACCESS:    3589311  HIT:    1565730  MISS:    2023581
LLC LOAD      ACCESS:     499810  HIT:          0  MISS:     499810
LLC RFO       ACCESS:    1544633  HIT:      45235  MISS:    1499398
LLC PREFETCH  ACCESS:          0  HIT:          0  MISS:          0
LLC WRITEBACK ACCESS:    1544854  HIT:    1520495  MISS:      24359
Heartbeat CPU 0 instructions: 94000000 cycles: 222711554 heartbeat IPC: 0.203413 cumulative IPC: 0.209763 (Simulation time: 3 hr 38 min 12 sec) 

Region of Interest Statistics
cpu0_DTLB TOTAL     ACCESS:    7860654  HIT:    7800246  MISS:      60408
cpu0_DTLB LOAD      ACCESS:    3491934  HIT:    3483737  MISS:       8197
cpu0_DTLB RFO       ACCESS:    4368720  HIT:    4316509  MISS:      52211
cpu0_DTLB PREFETCH  ACCESS:          0  HIT:          0  MISS:          0
cpu0_DTLB WRITEBACK ACCESS:          0  HIT:          0  MISS:          0
cpu0_ITLB TOTAL     ACCESS:     837497  HIT:     837497  MISS:          0
cpu0_ITLB LOAD      ACCESS:     837497  HIT:     837497  MISS:          0
cpu0_ITLB RFO       ACCESS:          0  HIT:          0  MISS:          0
cpu0_ITLB PREFETCH  ACCESS:          0  HIT:          0  MISS:          0
cpu0_ITLB WRITEBACK ACCESS:          0  HIT:          0  MISS:          0
cpu0_L1I TOTAL     ACCESS:     973775  HIT:     973775  MISS:          0
cpu0_L1I LOAD      ACCESS:     973775  HIT:     973775  MISS:          0
cpu0_L1I RFO       ACCESS:          0  HIT:          0  MISS:          0
cpu0_L1I PREFETCH  ACCESS:          0  HIT:          0  MISS:          0
cpu0_L1I WRITEBACK ACCESS:          0  HIT:          0  MISS:          0
cpu0_STLB TOTAL     ACCESS:      60408  HIT:      27630  MISS:      32778
cpu0_STLB LOAD      ACCESS:       8197  HIT:          0  MISS:       8197
cpu0_STLB RFO       ACCESS:      52211  HIT:      27630  MISS:      24581
cpu0_STLB PREFETCH  ACCESS:          0  HIT:          0  MISS:          0
cpu0_STLB WRITEBACK ACCESS:          0  HIT:          0  MISS:          0
cpu0_L1D TOTAL     ACCESS:   10437179  HIT:    6976575  MISS:    3460604
cpu0_L1D LOAD      ACCESS:    2473248  HIT:    1948892  MISS:     524356
cpu0_L1D RFO       ACCESS:    7933074  HIT:    4996840  MISS:    2936234
cpu0_L1D PREFETCH  ACCESS:          0  HIT:          0  MISS:          0
cpu0_L1D WRITEBACK ACCESS:          0  HIT:          0  MISS:          0
cpu0_L2C TOTAL     ACCESS:    6396839  HIT:    4251461  MISS:    2145378
cpu0_L2C LOAD      ACCESS:     524356  HIT:          1  MISS:     524355
cpu0_L2C RFO       ACCESS:    2936234  HIT:    1315332  MISS:    1620902
cpu0_L2C PREFETCH  ACCESS:          0  HIT:          0  MISS:          0
cpu0_L2C WRITEBACK ACCESS:    2936235  HIT:    2936128  MISS:        107
LLC TOTAL     ACCESS:    3766568  HIT:    1643401  MISS:    2123167
LLC LOAD      ACCESS:     524355  HIT:          0  MISS:     524355
LLC RFO       ACCESS:    1620843  HIT:      47803  MISS:    1573040
LLC PREFETCH  ACCESS:          0  HIT:          0  MISS:          0
LLC WRITEBACK ACCESS:    1621356  HIT:    1595598  MISS:      25758
Heartbeat CPU 0 instructions: 96000002 cycles: 231153820 heartbeat IPC: 0.236903 cumulative IPC: 0.210813 (Simulation time: 3 hr 45 min 38 sec) 

Region of Interest Statistics
cpu0_DTLB TOTAL     ACCESS:    8199815  HIT:    8137005  MISS:      62810
cpu0_DTLB LOAD      ACCESS:    3647976  HIT:    3639452  MISS:       8524
cpu0_DTLB RFO       ACCESS:    4551839  HIT:    4497553  MISS:      54286
cpu0_DTLB PREFETCH  ACCESS:          0  HIT:          0  MISS:          0
cpu0_DTLB WRITEBACK ACCESS:          0  HIT:          0  MISS:          0
cpu0_ITLB TOTAL     ACCESS:     868374  HIT:     868374  MISS:          0
cpu0_ITLB LOAD      ACCESS:     868374  HIT:     868374  MISS:          0
cpu0_ITLB RFO       ACCESS:          0  HIT:          0  MISS:          0
cpu0_ITLB PREFETCH  ACCESS:          0  HIT:          0  MISS:          0
cpu0_ITLB WRITEBACK ACCESS:          0  HIT:          0  MISS:          0
cpu0_L1I TOTAL     ACCESS:    1017411  HIT:    1017411  MISS:          0
cpu0_L1I LOAD      ACCESS:    1017411  HIT:    1017411  MISS:          0
cpu0_L1I RFO       ACCESS:          0  HIT:          0  MISS:          0
cpu0_L1I PREFETCH  ACCESS:          0  HIT:          0  MISS:          0
cpu0_L1I WRITEBACK ACCESS:          0  HIT:          0  MISS:          0
cpu0_STLB TOTAL     ACCESS:      62810  HIT:      28726  MISS:      34084
cpu0_STLB LOAD      ACCESS:       8524  HIT:          0  MISS:       8524
cpu0_STLB RFO       ACCESS:      54286  HIT:      28726  MISS:      25560
cpu0_STLB PREFETCH  ACCESS:          0  HIT:          0  MISS:          0
cpu0_STLB WRITEBACK ACCESS:          0  HIT:          0  MISS:          0
cpu0_L1D TOTAL     ACCESS:   10898188  HIT:    7300072  MISS:    3598116
cpu0_L1D LOAD      ACCESS:    2586447  HIT:    2041255  MISS:     545192
cpu0_L1D RFO       ACCESS:    8279578  HIT:    5226670  MISS:    3052908
cpu0_L1D PREFETCH  ACCESS:          0  HIT:          0  MISS:          0
cpu0_L1D WRITEBACK ACCESS:          0  HIT:          0  MISS:          0
cpu0_L2C TOTAL     ACCESS:    6651020  HIT:    4420304  MISS:    2230716
cpu0_L2C LOAD      ACCESS:     545192  HIT:          1  MISS:     545191
cpu0_L2C RFO       ACCESS:    3052908  HIT:    1367517  MISS:    1685391
cpu0_L2C PREFETCH  ACCESS:          0  HIT:          0  MISS:          0
cpu0_L2C WRITEBACK ACCESS:    3052904  HIT:    3052786  MISS:        118
LLC TOTAL     ACCESS:    3916011  HIT:    1708480  MISS:    2207531
LLC LOAD      ACCESS:     545191  HIT:          0  MISS:     545191
LLC RFO       ACCESS:    1685322  HIT:      49785  MISS:    1635537
LLC PREFETCH  ACCESS:          0  HIT:          0  MISS:          0
LLC WRITEBACK ACCESS:    1685482  HIT:    1658695  MISS:      26787
Heartbeat CPU 0 instructions: 98000002 cycles: 241381414 heartbeat IPC: 0.195549 cumulative IPC: 0.21013 (Simulation time: 3 hr 55 min 0 sec) 

Region of Interest Statistics
cpu0_DTLB TOTAL     ACCESS:    8568740  HIT:    8502971  MISS:      65769
cpu0_DTLB LOAD      ACCESS:    3808663  HIT:    3799738  MISS:       8925
cpu0_DTLB RFO       ACCESS:    4760077  HIT:    4703233  MISS:      56844
cpu0_DTLB PREFETCH  ACCESS:          0  HIT:          0  MISS:          0
cpu0_DTLB WRITEBACK ACCESS:          0  HIT:          0  MISS:          0
cpu0_ITLB TOTAL     ACCESS:     910599  HIT:     910599  MISS:          0
cpu0_ITLB LOAD      ACCESS:     910599  HIT:     910599  MISS:          0
cpu0_ITLB RFO       ACCESS:          0  HIT:          0  MISS:          0
cpu0_ITLB PREFETCH  ACCESS:          0  HIT:          0  MISS:          0
cpu0_ITLB WRITEBACK ACCESS:          0  HIT:          0  MISS:          0
cpu0_L1I TOTAL     ACCESS:    1063395  HIT:    1063395  MISS:          0
cpu0_L1I LOAD      ACCESS:    1063395  HIT:    1063395  MISS:          0
cpu0_L1I RFO       ACCESS:          0  HIT:          0  MISS:          0
cpu0_L1I PREFETCH  ACCESS:          0  HIT:          0  MISS:          0
cpu0_L1I WRITEBACK ACCESS:          0  HIT:          0  MISS:          0
cpu0_STLB TOTAL     ACCESS:      65769  HIT:      30081  MISS:      35688
cpu0_STLB LOAD      ACCESS:       8925  HIT:          0  MISS:       8925
cpu0_STLB RFO       ACCESS:      56844  HIT:      30081  MISS:      26763
cpu0_STLB PREFETCH  ACCESS:          0  HIT:          0  MISS:          0
cpu0_STLB WRITEBACK ACCESS:          0  HIT:          0  MISS:          0
cpu0_L1D TOTAL     ACCESS:   11381302  HIT:    7613655  MISS:    3767647
cpu0_L1D LOAD      ACCESS:    2698651  HIT:    2127766  MISS:     570885
cpu0_L1D RFO       ACCESS:    8648884  HIT:    5452138  MISS:    3196746
cpu0_L1D PREFETCH  ACCESS:          0  HIT:          0  MISS:          0
cpu0_L1D WRITEBACK ACCESS:          0  HIT:          0  MISS:          0
cpu0_L2C TOTAL     ACCESS:    6964393  HIT:    4628048  MISS:    2336345
cpu0_L2C LOAD      ACCESS:     570885  HIT:          3  MISS:     570882
cpu0_L2C RFO       ACCESS:    3196746  HIT:    1431426  MISS:    1765320
cpu0_L2C PREFETCH  ACCESS:          0  HIT:          0  MISS:          0
cpu0_L2C WRITEBACK ACCESS:    3196746  HIT:    3196619  MISS:        127
LLC TOTAL     ACCESS:    4101740  HIT:    1789151  MISS:    2312589
LLC LOAD      ACCESS:     570882  HIT:          0  MISS:     570882
LLC RFO       ACCESS:    1765250  HIT:      52655  MISS:    1712595
LLC PREFETCH  ACCESS:          0  HIT:          0  MISS:          0
LLC WRITEBACK ACCESS:    1765592  HIT:    1736496  MISS:      29096
Heartbeat CPU 0 instructions: 100000002 cycles: 251377568 heartbeat IPC: 0.200077 cumulative IPC: 0.209708 (Simulation time: 4 hr 4 min 7 sec) 

Region of Interest Statistics
cpu0_DTLB TOTAL     ACCESS:    8933608  HIT:    8864951  MISS:      68657
cpu0_DTLB LOAD      ACCESS:    3968563  HIT:    3959246  MISS:       9317
cpu0_DTLB RFO       ACCESS:    4965045  HIT:    4905705  MISS:      59340
cpu0_DTLB PREFETCH  ACCESS:          0  HIT:          0  MISS:          0
cpu0_DTLB WRITEBACK ACCESS:          0  HIT:          0  MISS:          0
cpu0_ITLB TOTAL     ACCESS:     951031  HIT:     951031  MISS:          0
cpu0_ITLB LOAD      ACCESS:     951031  HIT:     951031  MISS:          0
cpu0_ITLB RFO       ACCESS:          0  HIT:          0  MISS:          0
cpu0_ITLB PREFETCH  ACCESS:          0  HIT:          0  MISS:          0
cpu0_ITLB WRITEBACK ACCESS:          0  HIT:          0  MISS:          0
cpu0_L1I TOTAL     ACCESS:    1108308  HIT:    1108308  MISS:          0
cpu0_L1I LOAD      ACCESS:    1108308  HIT:    1108308  MISS:          0
cpu0_L1I RFO       ACCESS:          0  HIT:          0  MISS:          0
cpu0_L1I PREFETCH  ACCESS:          0  HIT:          0  MISS:          0
cpu0_L1I WRITEBACK ACCESS:          0  HIT:          0  MISS:          0
cpu0_STLB TOTAL     ACCESS:      68657  HIT:      31401  MISS:      37256
cpu0_STLB LOAD      ACCESS:       9317  HIT:          0  MISS:       9317
cpu0_STLB RFO       ACCESS:      59340  HIT:      31401  MISS:      27939
cpu0_STLB PREFETCH  ACCESS:          0  HIT:          0  MISS:          0
cpu0_STLB WRITEBACK ACCESS:          0  HIT:          0  MISS:          0
cpu0_L1D TOTAL     ACCESS:   11862362  HIT:    7929242  MISS:    3933120
cpu0_L1D LOAD      ACCESS:    2810976  HIT:    2215022  MISS:     595954
cpu0_L1D RFO       ACCESS:    9016051  HIT:    5678901  MISS:    3337150
cpu0_L1D PREFETCH  ACCESS:          0  HIT:          0  MISS:          0
cpu0_L1D WRITEBACK ACCESS:          0  HIT:          0  MISS:          0
cpu0_L2C TOTAL     ACCESS:    7270266  HIT:    4831470  MISS:    2438796
cpu0_L2C LOAD      ACCESS:     595954  HIT:          3  MISS:     595951
cpu0_L2C RFO       ACCESS:    3337150  HIT:    1494451  MISS:    1842699
cpu0_L2C PREFETCH  ACCESS:          0  HIT:          0  MISS:          0
cpu0_L2C WRITEBACK ACCESS:    3337146  HIT:    3337016  MISS:        130
LLC TOTAL     ACCESS:    4281598  HIT:    1867322  MISS:    2414276
LLC LOAD      ACCESS:     595951  HIT:          0  MISS:     595951
LLC RFO       ACCESS:    1842629  HIT:      54810  MISS:    1787819
LLC PREFETCH  ACCESS:          0  HIT:          0  MISS:          0
LLC WRITEBACK ACCESS:    1843002  HIT:    1812512  MISS:      30490
Heartbeat CPU 0 instructions: 102000003 cycles: 261343447 heartbeat IPC: 0.200685 cumulative IPC: 0.209346 (Simulation time: 4 hr 13 min 14 sec) 

Region of Interest Statistics
cpu0_DTLB TOTAL     ACCESS:    9297932  HIT:    9226396  MISS:      71536
cpu0_DTLB LOAD      ACCESS:    4128487  HIT:    4118780  MISS:       9707
cpu0_DTLB RFO       ACCESS:    5169445  HIT:    5107616  MISS:      61829
cpu0_DTLB PREFETCH  ACCESS:          0  HIT:          0  MISS:          0
cpu0_DTLB WRITEBACK ACCESS:          0  HIT:          0  MISS:          0
cpu0_ITLB TOTAL     ACCESS:     991222  HIT:     991222  MISS:          0
cpu0_ITLB LOAD      ACCESS:     991222  HIT:     991222  MISS:          0
cpu0_ITLB RFO       ACCESS:          0  HIT:          0  MISS:          0
cpu0_ITLB PREFETCH  ACCESS:          0  HIT:          0  MISS:          0
cpu0_ITLB WRITEBACK ACCESS:          0  HIT:          0  MISS:          0
cpu0_L1I TOTAL     ACCESS:    1153484  HIT:    1153484  MISS:          0
cpu0_L1I LOAD      ACCESS:    1153484  HIT:    1153484  MISS:          0
cpu0_L1I RFO       ACCESS:          0  HIT:          0  MISS:          0
cpu0_L1I PREFETCH  ACCESS:          0  HIT:          0  MISS:          0
cpu0_L1I WRITEBACK ACCESS:          0  HIT:          0  MISS:          0
cpu0_STLB TOTAL     ACCESS:      71536  HIT:      32720  MISS:      38816
cpu0_STLB LOAD      ACCESS:       9707  HIT:          0  MISS:       9707
cpu0_STLB RFO       ACCESS:      61829  HIT:      32720  MISS:      29109
cpu0_STLB PREFETCH  ACCESS:          0  HIT:          0  MISS:          0
cpu0_STLB WRITEBACK ACCESS:          0  HIT:          0  MISS:          0
cpu0_L1D TOTAL     ACCESS:   12342718  HIT:    8244763  MISS:    4097955
cpu0_L1D LOAD      ACCESS:    2923394  HIT:    2302463  MISS:     620931
cpu0_L1D RFO       ACCESS:    9382429  HIT:    5905421  MISS:    3477008
cpu0_L1D PREFETCH  ACCESS:          0  HIT:          0  MISS:          0
cpu0_L1D WRITEBACK ACCESS:          0  HIT:          0  MISS:          0
cpu0_L2C TOTAL     ACCESS:    7574964  HIT:    5033954  MISS:    2541010
cpu0_L2C LOAD      ACCESS:     620931  HIT:          3  MISS:     620928
cpu0_L2C RFO       ACCESS:    3477008  HIT:    1557072  MISS:    1919936
cpu0_L2C PREFETCH  ACCESS:          0  HIT:          0  MISS:          0
cpu0_L2C WRITEBACK ACCESS:    3477009  HIT:    3476879  MISS:        130
LLC TOTAL     ACCESS:    4460984  HIT:    1945743  MISS:    2515241
LLC LOAD      ACCESS:     620928  HIT:          0  MISS:     620928
LLC RFO       ACCESS:    1919853  HIT:      57115  MISS:    1862738
LLC PREFETCH  ACCESS:          0  HIT:          0  MISS:          0
LLC WRITEBACK ACCESS:    1920187  HIT:    1888628  MISS:      31559
Heartbeat CPU 0 instructions: 104000000 cycles: 270021290 heartbeat IPC: 0.230472 cumulative IPC: 0.210059 (Simulation time: 4 hr 20 min 56 sec) 

Region of Interest Statistics
cpu0_DTLB TOTAL     ACCESS:    9641542  HIT:    9567522  MISS:      74020
cpu0_DTLB LOAD      ACCESS:    4285152  HIT:    4275108  MISS:      10044
cpu0_DTLB RFO       ACCESS:    5356390  HIT:    5292414  MISS:      63976
cpu0_DTLB PREFETCH  ACCESS:          0  HIT:          0  MISS:          0
cpu0_DTLB WRITEBACK ACCESS:          0  HIT:          0  MISS:          0
cpu0_ITLB TOTAL     ACCESS:    1024798  HIT:    1024798  MISS:          0
cpu0_ITLB LOAD      ACCESS:    1024798  HIT:    1024798  MISS:          0
cpu0_ITLB RFO       ACCESS:          0  HIT:          0  MISS:          0
cpu0_ITLB PREFETCH  ACCESS:          0  HIT:          0  MISS:          0
cpu0_ITLB WRITEBACK ACCESS:          0  HIT:          0  MISS:          0
cpu0_L1I TOTAL     ACCESS:    1195899  HIT:    1195899  MISS:          0
cpu0_L1I LOAD      ACCESS:    1195899  HIT:    1195899  MISS:          0
cpu0_L1I RFO       ACCESS:          0  HIT:          0  MISS:          0
cpu0_L1I PREFETCH  ACCESS:          0  HIT:          0  MISS:          0
cpu0_L1I WRITEBACK ACCESS:          0  HIT:          0  MISS:          0
cpu0_STLB TOTAL     ACCESS:      74020  HIT:      33856  MISS:      40164
cpu0_STLB LOAD      ACCESS:      10044  HIT:          0  MISS:      10044
cpu0_STLB RFO       ACCESS:      63976  HIT:      33856  MISS:      30120
cpu0_STLB PREFETCH  ACCESS:          0  HIT:          0  MISS:          0
cpu0_STLB WRITEBACK ACCESS:          0  HIT:          0  MISS:          0
cpu0_L1D TOTAL     ACCESS:   12805956  HIT:    8565746  MISS:    4240210
cpu0_L1D LOAD      ACCESS:    3036108  HIT:    2393626  MISS:     642482
cpu0_L1D RFO       ACCESS:    9731605  HIT:    6133893  MISS:    3597712
cpu0_L1D PREFETCH  ACCESS:          0  HIT:          0  MISS:          0
cpu0_L1D WRITEBACK ACCESS:          0  HIT:          0  MISS:          0
cpu0_L2C TOTAL     ACCESS:    7837922  HIT:    5208618  MISS:    2629304
cpu0_L2C LOAD      ACCESS:     642482  HIT:          3  MISS:     642479
cpu0_L2C RFO       ACCESS:    3597712  HIT:    1611037  MISS:    1986675
cpu0_L2C PREFETCH  ACCESS:          0  HIT:          0  MISS:          0
cpu0_L2C WRITEBACK ACCESS:    3597712  HIT:    3597578  MISS:        134
LLC TOTAL     ACCESS:    4616136  HIT:    2013900  MISS:    2602236
LLC LOAD      ACCESS:     642479  HIT:          0  MISS:     642479
LLC RFO       ACCESS:    1986587  HIT:      59184  MISS:    1927403
LLC PREFETCH  ACCESS:          0  HIT:          0  MISS:          0
LLC WRITEBACK ACCESS:    1987054  HIT:    1954716  MISS:      32338
Heartbeat CPU 0 instructions: 106000000 cycles: 279985897 heartbeat IPC: 0.20071 cumulative IPC: 0.20971 (Simulation time: 4 hr 30 min 0 sec) 

Region of Interest Statistics
cpu0_DTLB TOTAL     ACCESS:   10006450  HIT:    9929551  MISS:      76899
cpu0_DTLB LOAD      ACCESS:    4445486  HIT:    4435051  MISS:      10435
cpu0_DTLB RFO       ACCESS:    5560964  HIT:    5494500  MISS:      66464
cpu0_DTLB PREFETCH  ACCESS:          0  HIT:          0  MISS:          0
cpu0_DTLB WRITEBACK ACCESS:          0  HIT:          0  MISS:          0
cpu0_ITLB TOTAL     ACCESS:    1063795  HIT:    1063795  MISS:          0
cpu0_ITLB LOAD      ACCESS:    1063795  HIT:    1063795  MISS:          0
cpu0_ITLB RFO       ACCESS:          0  HIT:          0  MISS:          0
cpu0_ITLB PREFETCH  ACCESS:          0  HIT:          0  MISS:          0
cpu0_ITLB WRITEBACK ACCESS:          0  HIT:          0  MISS:          0
cpu0_L1I TOTAL     ACCESS:    1243700  HIT:    1243700  MISS:          0
cpu0_L1I LOAD      ACCESS:    1243700  HIT:    1243700  MISS:          0
cpu0_L1I RFO       ACCESS:          0  HIT:          0  MISS:          0
cpu0_L1I PREFETCH  ACCESS:          0  HIT:          0  MISS:          0
cpu0_L1I WRITEBACK ACCESS:          0  HIT:          0  MISS:          0
cpu0_STLB TOTAL     ACCESS:      76899  HIT:      35171  MISS:      41728
cpu0_STLB LOAD      ACCESS:      10435  HIT:          0  MISS:      10435
cpu0_STLB RFO       ACCESS:      66464  HIT:      35171  MISS:      31293
cpu0_STLB PREFETCH  ACCESS:          0  HIT:          0  MISS:          0
cpu0_STLB WRITEBACK ACCESS:          0  HIT:          0  MISS:          0
cpu0_L1D TOTAL     ACCESS:   13285444  HIT:    8880204  MISS:    4405240
cpu0_L1D LOAD      ACCESS:    3148102  HIT:    2480613  MISS:     667489
cpu0_L1D RFO       ACCESS:   10097535  HIT:    6359802  MISS:    3737733
cpu0_L1D PREFETCH  ACCESS:          0  HIT:          0  MISS:          0
cpu0_L1D WRITEBACK ACCESS:          0  HIT:          0  MISS:          0
cpu0_L2C TOTAL     ACCESS:    8142970  HIT:    5411128  MISS:    2731842
cpu0_L2C LOAD      ACCESS:     667489  HIT:          3  MISS:     667486
cpu0_L2C RFO       ACCESS:    3737733  HIT:    1673543  MISS:    2064190
cpu0_L2C PREFETCH  ACCESS:          0  HIT:          0  MISS:          0
[...]
LLC LOAD      ACCESS:   17715610  HIT:         48  MISS:   17715562
LLC RFO       ACCESS:   54781557  HIT:    1633581  MISS:   53147976
LLC PREFETCH  ACCESS:          0  HIT:          0  MISS:          0
LLC WRITEBACK ACCESS:   54787140  HIT:   53908524  MISS:     878616
Heartbeat CPU 0 instructions: 1550000003 cycles: 7116634184 heartbeat IPC: 0.237977 cumulative IPC: 0.211158 (Simulation time: 32 hr 46 min 25 sec) 

Region of Interest Statistics
cpu0_DTLB TOTAL     ACCESS:  267153591  HIT:  265110156  MISS:    2043435
cpu0_DTLB LOAD      ACCESS:  118935457  HIT:  118658172  MISS:     277285
cpu0_DTLB RFO       ACCESS:  148218134  HIT:  146451984  MISS:    1766150
cpu0_DTLB PREFETCH  ACCESS:          0  HIT:          0  MISS:          0
cpu0_DTLB WRITEBACK ACCESS:          0  HIT:          0  MISS:          0
cpu0_ITLB TOTAL     ACCESS:   28102692  HIT:   28102692  MISS:          0
cpu0_ITLB LOAD      ACCESS:   28102692  HIT:   28102692  MISS:          0
cpu0_ITLB RFO       ACCESS:          0  HIT:          0  MISS:          0
cpu0_ITLB PREFETCH  ACCESS:          0  HIT:          0  MISS:          0
cpu0_ITLB WRITEBACK ACCESS:          0  HIT:          0  MISS:          0
cpu0_L1I TOTAL     ACCESS:   33389192  HIT:   33389192  MISS:          0
cpu0_L1I LOAD      ACCESS:   33389192  HIT:   33389192  MISS:          0
cpu0_L1I RFO       ACCESS:          0  HIT:          0  MISS:          0
cpu0_L1I PREFETCH  ACCESS:          0  HIT:          0  MISS:          0
cpu0_L1I WRITEBACK ACCESS:          0  HIT:          0  MISS:          0
cpu0_STLB TOTAL     ACCESS:    2043435  HIT:     934647  MISS:    1108788
cpu0_STLB LOAD      ACCESS:     277285  HIT:          0  MISS:     277285
cpu0_STLB RFO       ACCESS:    1766150  HIT:     934647  MISS:     831503
cpu0_STLB PREFETCH  ACCESS:          0  HIT:          0  MISS:          0
cpu0_STLB WRITEBACK ACCESS:          0  HIT:          0  MISS:          0
cpu0_L1D TOTAL     ACCESS:  355162462  HIT:  238104838  MISS:  117057624
cpu0_L1D LOAD      ACCESS:   84337702  HIT:   66600807  MISS:   17736895
cpu0_L1D RFO       ACCESS:  269780260  HIT:  170460098  MISS:   99320162
cpu0_L1D PREFETCH  ACCESS:          0  HIT:          0  MISS:          0
cpu0_L1D WRITEBACK ACCESS:          0  HIT:          0  MISS:          0
cpu0_L2C TOTAL     ACCESS:  216377774  HIT:  143789465  MISS:   72588309
cpu0_L2C LOAD      ACCESS:   17736895  HIT:        489  MISS:   17736406
cpu0_L2C RFO       ACCESS:   99320156  HIT:   44472137  MISS:   54848019
cpu0_L2C PREFETCH  ACCESS:          0  HIT:          0  MISS:          0
cpu0_L2C WRITEBACK ACCESS:   99320156  HIT:   99316827  MISS:       3329
LLC TOTAL     ACCESS:  127434177  HIT:   55607217  MISS:   71826960
LLC LOAD      ACCESS:   17736406  HIT:         48  MISS:   17736358
LLC RFO       ACCESS:   54845836  HIT:    1635475  MISS:   53210361
LLC PREFETCH  ACCESS:          0  HIT:          0  MISS:          0
LLC WRITEBACK ACCESS:   54851380  HIT:   53971669  MISS:     879711
Finished CPU 0 instructions: 1500000000 cycles: 7103683218 cumulative IPC: 0.211158 (Simulation time: 32 hr 46 min 25 sec) 

ChampSim completed all CPUs

Region of Interest Statistics

CPU 0 cumulative IPC: 0.211158 instructions: 1500000000 cycles: 7103683218
cpu0_DTLB TOTAL     ACCESS:  267153591  HIT:  265110156  MISS:    2043435
cpu0_DTLB LOAD      ACCESS:  118935457  HIT:  118658172  MISS:     277285
cpu0_DTLB RFO       ACCESS:  148218134  HIT:  146451984  MISS:    1766150
cpu0_DTLB PREFETCH  ACCESS:          0  HIT:          0  MISS:          0
cpu0_DTLB WRITEBACK ACCESS:          0  HIT:          0  MISS:          0
cpu0_DTLB TRANSLATION ACCESS:          0  HIT:          0  MISS:          0
cpu0_DTLB PREFETCH  REQUESTED:          0  ISSUED:          0  USEFUL:          0  USELESS:          0
cpu0_DTLB AVERAGE MISS LATENCY: 524.258 cycles
cpu0_ITLB TOTAL     ACCESS:   28102692  HIT:   28102692  MISS:          0
cpu0_ITLB LOAD      ACCESS:   28102692  HIT:   28102692  MISS:          0
cpu0_ITLB RFO       ACCESS:          0  HIT:          0  MISS:          0
cpu0_ITLB PREFETCH  ACCESS:          0  HIT:          0  MISS:          0
cpu0_ITLB WRITEBACK ACCESS:          0  HIT:          0  MISS:          0
cpu0_ITLB TRANSLATION ACCESS:          0  HIT:          0  MISS:          0
cpu0_ITLB PREFETCH  REQUESTED:          0  ISSUED:          0  USEFUL:          0  USELESS:          0
cpu0_ITLB AVERAGE MISS LATENCY: -nan cycles
cpu0_L1I TOTAL     ACCESS:   33389192  HIT:   33389192  MISS:          0
cpu0_L1I LOAD      ACCESS:   33389192  HIT:   33389192  MISS:          0
cpu0_L1I RFO       ACCESS:          0  HIT:          0  MISS:          0
cpu0_L1I PREFETCH  ACCESS:          0  HIT:          0  MISS:          0
cpu0_L1I WRITEBACK ACCESS:          0  HIT:          0  MISS:          0
cpu0_L1I TRANSLATION ACCESS:          0  HIT:          0  MISS:          0
cpu0_L1I PREFETCH  REQUESTED:          0  ISSUED:          0  USEFUL:          0  USELESS:          0
cpu0_L1I AVERAGE MISS LATENCY: -nan cycles
cpu0_STLB TOTAL     ACCESS:    2043435  HIT:     934647  MISS:    1108788
cpu0_STLB LOAD      ACCESS:     277285  HIT:          0  MISS:     277285
cpu0_STLB RFO       ACCESS:    1766150  HIT:     934647  MISS:     831503
cpu0_STLB PREFETCH  ACCESS:          0  HIT:          0  MISS:          0
cpu0_STLB WRITEBACK ACCESS:          0  HIT:          0  MISS:          0
cpu0_STLB TRANSLATION ACCESS:          0  HIT:          0  MISS:          0
cpu0_STLB PREFETCH  REQUESTED:          0  ISSUED:          0  USEFUL:          0  USELESS:          0
cpu0_STLB AVERAGE MISS LATENCY: 949.451 cycles
cpu0_L1D TOTAL     ACCESS:  355162462  HIT:  238104838  MISS:  117057624
cpu0_L1D LOAD      ACCESS:   84337702  HIT:   66600807  MISS:   17736895
cpu0_L1D RFO       ACCESS:  269780260  HIT:  170460098  MISS:   99320162
cpu0_L1D PREFETCH  ACCESS:          0  HIT:          0  MISS:          0
cpu0_L1D WRITEBACK ACCESS:          0  HIT:          0  MISS:          0
cpu0_L1D TRANSLATION ACCESS:    1044500  HIT:    1043933  MISS:        567
cpu0_L1D PREFETCH  REQUESTED:          0  ISSUED:          0  USEFUL:          0  USELESS:          0
cpu0_L1D AVERAGE MISS LATENCY: 758.55 cycles
cpu0_L2C TOTAL     ACCESS:  216377774  HIT:  143789465  MISS:   72588309
cpu0_L2C LOAD      ACCESS:   17736895  HIT:        489  MISS:   17736406
cpu0_L2C RFO       ACCESS:   99320156  HIT:   44472137  MISS:   54848019
cpu0_L2C PREFETCH  ACCESS:          0  HIT:          0  MISS:          0
cpu0_L2C WRITEBACK ACCESS:   99320156  HIT:   99316827  MISS:       3329
cpu0_L2C TRANSLATION ACCESS:        567  HIT:         12  MISS:        555
cpu0_L2C PREFETCH  REQUESTED:          0  ISSUED:          0  USEFUL:          0  USELESS:          0
cpu0_L2C AVERAGE MISS LATENCY: 1205.43 cycles
LLC TOTAL     ACCESS:  127434177  HIT:   55607217  MISS:   71826960
LLC LOAD      ACCESS:   17736406  HIT:         48  MISS:   17736358
LLC RFO       ACCESS:   54845836  HIT:    1635475  MISS:   53210361
LLC PREFETCH  ACCESS:          0  HIT:          0  MISS:          0
LLC WRITEBACK ACCESS:   54851380  HIT:   53971669  MISS:     879711
LLC TRANSLATION ACCESS:        555  HIT:         25  MISS:        530
LLC PREFETCH  REQUESTED:          0  ISSUED:          0  USEFUL:          0  USELESS:          0
LLC AVERAGE MISS LATENCY: 1196.99 cycles
~~~~~~~~~~Reuse Distance Profiler output~~~~~~~~~~
0	62890800	6782688
1	33444400	6172560
2	16191232	4663568
3	9170032	3901776
4	12441808	4502096
5	9865008	5169392
6	1801584	1369488
7	2093744	1519088
8	1717856	342032
9	4088192	1830896
10	2258496	1555696
11	5550368	2435040
12	2181392	1182240
13	944464	199120
14	507936	140320
15	379184	63408
16	336224	56576
17	457744	140848
18	972464	652512
19	856448	512912
20	3872640	1237872
21	932336	131840
22	3037712	1078496
23	2631808	82688
24	2917344	1233504
25	763760	93424
26	532880	138272
27	577840	68048
28	862432	51904
29	968096	122144
30	1186160	160976
31	1518896	719424
32	2170992	1396592
33	4513424	3502960
34	2354560	1046016
35	1798544	583440
36	1399504	416912
37	1350752	763744
38	744128	385600
39	525664	120432
40	429488	107536
41	416480	81056
42	433296	88480
43	408304	115584
44	552560	177552
45	879520	80592
46	1447984	979392
47	978992	246208
48	519872	108624
49	1650544	57840
50	284752	56752
51	313136	117056
52	407776	274576
53	1848096	674608
54	405424	248832
55	569104	243504
56	266672	145008
57	504528	303168
58	711904	114288
59	578416	73056
60	393344	91792
61	563248	50928
62	306384	42864
63	196224	56960
64	261264	95856
66	683488	559792
68	466736	373616
70	341984	215792
72	328864	93632
74	303728	68864
76	278272	162592
78	338928	189472
80	522304	413424
82	539488	385184
84	875968	215488
86	681952	156528
88	976128	121232
90	1103504	235600
92	2121392	1122416
94	1782208	601248
96	1285504	256704
98	1377888	779664
100	1116144	315008
102	643728	157728
104	243696	86032
106	269712	74768
108	245200	78944
110	287648	97584
112	196000	59856
114	198560	51216
116	195872	54080
118	198304	48288
120	133024	46304
122	121152	50528
124	116784	32688
126	125088	30608
128	178928	52608
132	127456	46512
136	122688	45296
140	91008	37360
144	105984	32656
148	69152	28240
152	76496	24224
156	103856	22816
160	117328	20336
164	86800	18016
168	70944	15792
172	154816	18384
176	1047936	17472
180	778576	13088
184	685168	9664
188	1421840	8752
192	905616	8144
196	578656	7168
200	273360	7504
204	45552	6896
208	19424	7168
212	17728	7168
216	31392	7984
220	43136	7696
224	41360	8416
228	38192	8912
232	35216	8720
236	33696	8208
240	34848	8832
244	31728	9296
248	26432	8640
252	23024	9168
256	76592	19424
264	85488	19872
272	73232	23808
280	81056	24976
288	67408	25616
296	74336	24976
304	102080	24208
312	81744	28320
320	87984	30512
328	72112	29632
336	61776	26704
344	91168	24752
352	78512	26368
360	77504	29216
368	70592	27200
376	46416	23568
384	69136	20016
392	70640	18592
400	62256	19520
408	60048	18432
416	36016	15440
424	39840	13152
432	49744	11120
440	43152	10912
448	43808	11120
456	29424	9488
464	19104	6912
472	23488	5712
480	21424	5472
488	23616	5136
496	19536	4880
504	8864	3312
512	12400	5760
528	15888	4320
544	9088	3472
560	5680	2544
576	7424	2032
592	6080	2096
608	5456	2048
624	6176	2352
640	5744	2336
656	6608	1680
672	6320	1776
688	4288	1712
704	5232	1296
720	5136	1520
736	3456	1296
752	3648	1072
768	3104	912
784	2432	800
800	2480	816
816	1904	560
832	1456	384
848	1632	352
864	1056	256
880	960	192
896	784	256
912	816	288
928	656	192
944	368	112
960	272	80
976	400	96
992	176	128
1008	288	32
1024	400	112
1056	384	128
1088	432	160
1120	336	128
1152	416	224
1184	128	64
1216	160	32
1248	128	48
1280	112	48
1312	96	64
1344	32	32
1376	16	16
1408	32	16
1440	0	0
1472	0	0
1504	16	0
1536	0	0
1568	0	0
1600	16	0
1632	0	0
1664	0	0
1696	0	0
1728	0	0
1760	0	0
1792	0	0
1824	0	0
1856	0	0
1888	0	0
1920	0	0
1952	0	0
1984	0	0
2016	0	0
2048	0	0
2112	0	0
2176	0	0
2240	0	0
2304	0	0
2368	0	0
2432	0	0
2496	0	0
2560	0	0
2624	0	0
2688	0	0
2752	0	0
2816	0	0
2880	0	0
2944	0	0
3008	0	0
3072	0	0
3136	0	0
3200	0	0
3264	0	0
3328	0	0
3392	0	0
3456	0	0
3520	0	0
3584	0	0
3648	0	0
3712	0	0
3776	0	0
3840	0	0
3904	0	0
3968	0	0
4032	176	0
4096	168704	0
4224	33200	0
4352	7456	0
4480	5392	0
4608	3120	0
4736	3840	0
4864	3888	0
4992	3616	0
5120	3152	0
5248	3072	0
5376	3296	0
5504	3728	0
5632	3632	0
5760	4288	0
5888	5744	0
6016	10368	0
6144	11152	0
6272	15760	0
6400	27376	0
6528	35296	0
6656	47264	0
6784	63856	0
6912	88048	0
7040	128592	0
7168	165440	0
7296	212416	0
7424	282160	0
7552	352272	0
7680	433616	0
7808	534096	0
7936	630240	0
8064	737552	0
8192	1758528	0
8448	2247776	544
8704	2719712	0
8960	2976560	64
9216	3250800	0
9472	3309584	0
9728	3220768	0
9984	2982240	0
10240	2634672	0
10496	2239120	0
10752	1846400	0
11008	1473232	0
11264	1148624	0
11520	877808	0
11776	657776	0
12032	468224	0
12288	336336	0
12544	241072	0
12800	166880	0
13056	137360	0
13312	109920	0
13568	95024	0
13824	85264	0
14080	85104	0
14336	84432	0
14592	93904	0
14848	101472	0
15104	111568	0
15360	126848	0
15616	144352	0
15872	160224	0
16128	178464	0
16384	420832	0
16896	509488	0
17408	627824	0
17920	699712	0
18432	779952	0
18944	758640	0
19456	618736	0
19968	557664	0
20480	497760	0
20992	420448	0
21504	342720	0
22016	276368	0
22528	208480	0
23040	161232	0
23552	119696	0
24064	83296	0
24576	57808	0
25088	39376	0
25600	30736	0
26112	23792	0
26624	18688	0
27136	14992	0
27648	13680	0
28160	13120	0
28672	12928	0
29184	12640	0
29696	12064	0
30208	12064	0
30720	11504	0
31232	11776	0
31744	11472	0
32256	12448	0
32768	24032	0
33792	24976	0
34816	26816	0
35840	24736	0
36864	17744	0
37888	3440	0
38912	416	0
39936	0	0
40960	0	0
41984	0	0
43008	0	0
44032	0	0
45056	0	0
46080	0	0
47104	0	0
48128	0	0
49152	0	0
50176	0	0
51200	0	0
52224	0	0
53248	0	0
54272	0	0
55296	0	0
56320	0	0
57344	0	0
58368	0	0
59392	0	0
60416	0	0
61440	0	0
62464	0	0
63488	0	0
64512	0	0
65536	0	0
67584	0	0
69632	0	0
71680	0	0
73728	0	0
75776	0	0
77824	0	0
79872	0	0
81920	0	0
83968	0	0
86016	0	0
88064	0	0
90112	0	0
92160	0	0
94208	0	0
96256	0	0
98304	0	0
100352	0	0
102400	0	0
104448	0	0
106496	0	0
108544	0	0
110592	0	0
112640	0	0
114688	0	0
116736	0	0
118784	0	0
120832	0	0
122880	0	0
124928	0	0
126976	0	0
129024	0	0
131072	0	0
135168	0	0
139264	0	0
143360	0	0
147456	0	0
151552	0	0
155648	0	0
159744	0	0
163840	0	0
167936	0	0
172032	0	0
176128	0	0
180224	0	0
184320	0	0
188416	0	0
192512	0	0
196608	0	0
200704	0	0
204800	0	0
208896	0	0
212992	0	0
217088	0	0
221184	0	0
225280	0	0
229376	0	0
233472	0	0
237568	0	0
241664	0	0
245760	0	0
249856	0	0
253952	0	0
258048	0	0
262144	0	0
270336	0	0
278528	0	0
286720	0	0
294912	0	0
303104	0	0
311296	0	0
319488	0	0
327680	0	0
335872	0	0
344064	0	0
352256	0	0
360448	0	0
368640	0	0
376832	0	0
385024	0	0
393216	0	0
401408	0	0
409600	0	0
417792	0	0
425984	0	0
434176	0	0
442368	0	0
450560	0	0
458752	0	0
466944	0	0
475136	0	0
483328	0	0
491520	0	0
499712	0	0
507904	0	0
516096	0	0
524288	0	0
540672	0	0
557056	0	0
573440	0	0
589824	0	0
606208	0	0
622592	0	0
638976	0	0
655360	0	0
671744	0	0
688128	0	0
704512	0	0
720896	0	0
737280	0	0
753664	0	0
770048	0	0
786432	0	0
802816	0	0
819200	0	0
835584	0	0
851968	0	0
868352	0	0
884736	0	0
901120	0	0
917504	0	0
933888	0	0
950272	0	0
966656	0	0
983040	0	0
999424	0	0
1015808	0	0
1032192	0	0
1048576	0	0
1081344	0	0
1114112	0	0
1146880	0	0
1179648	0	0
1212416	0	0
1245184	0	0
1277952	0	0
1310720	0	0
1343488	0	0
1376256	0	0
1409024	0	0
1441792	0	0
1474560	0	0
1507328	0	0
1540096	0	0
1572864	0	0
1605632	0	0
1638400	0	0
1671168	0	0
1703936	0	0
1736704	0	0
1769472	0	0
1802240	0	0
1835008	0	0
1867776	298400	0
1900544	2867040	0
1933312	8054368	0
1966080	13153744	0
1998848	7475936	0
2031616	2892784	0
2064384	715392	0
2097152	696576	0
2162688	173008	0
2228224	113552	0
2293760	44960	0
2359296	0	0
2424832	0	0
2490368	0	0
2555904	0	0
2621440	0	0
2686976	0	0
2752512	0	0
2818048	0	0
2883584	0	0
2949120	0	0
3014656	0	0
3080192	0	0
3145728	0	0
3211264	0	0
3276800	0	0
3342336	0	0
3407872	0	0
3473408	0	0
3538944	0	0
3604480	0	0
3670016	0	0
3735552	0	0
3801088	0	0
3866624	0	0
3932160	0	0
3997696	0	0
4063232	0	0
4128768	0	0
4194304	0	0
4325376	0	0
4456448	0	0
4587520	0	0
4718592	0	0
4849664	0	0
4980736	0	0
5111808	0	0
5242880	0	0
5373952	0	0
5505024	0	0
5636096	0	0
5767168	0	0
5898240	0	0
6029312	0	0
6160384	0	0
6291456	0	0
6422528	0	0
6553600	0	0
6684672	0	0
6815744	0	0
6946816	0	0
7077888	0	0
7208960	0	0
7340032	0	0
7471104	0	0
7602176	0	0
7733248	0	0
7864320	0	0
7995392	0	0
8126464	0	0
8257536	0	0
8388608	0	0
8650752	0	0
8912896	0	0
9175040	0	0
9437184	0	0
9699328	0	0
9961472	0	0
10223616	0	0
10485760	0	0
10747904	0	0
11010048	0	0
11272192	0	0
11534336	0	0
11796480	0	0
12058624	0	0
12320768	0	0
12582912	0	0
12845056	0	0
13107200	0	0
13369344	0	0
13631488	0	0
13893632	0	0
14155776	0	0
14417920	0	0
14680064	0	0
14942208	0	0
15204352	0	0
15466496	0	0
15728640	0	0
15990784	0	0
16252928	0	0
16515072	0	0
16777216	0	0
17301504	0	0
17825792	0	0
18350080	0	0
18874368	0	0
19398656	0	0
19922944	0	0
20447232	0	0
20971520	0	0
21495808	0	0
22020096	0	0
22544384	0	0
23068672	0	0
23592960	0	0
24117248	0	0
24641536	0	0
25165824	0	0
25690112	0	0
26214400	0	0
26738688	0	0
27262976	0	0
27787264	0	0
28311552	0	0
28835840	0	0
29360128	0	0
29884416	0	0
30408704	0	0
30932992	0	0
31457280	0	0
31981568	0	0
32505856	0	0
33030144	0	0
33554432	0	0
34603008	0	0
35651584	0	0
36700160	0	0
37748736	0	0
38797312	0	0
39845888	0	0
40894464	0	0
41943040	0	0
42991616	0	0
44040192	0	0
45088768	0	0
46137344	0	0
47185920	0	0
48234496	0	0
49283072	0	0
50331648	0	0
51380224	0	0
52428800	0	0
53477376	0	0
54525952	0	0
55574528	0	0
56623104	0	0
57671680	0	0
58720256	0	0
59768832	0	0
60817408	0	0
61865984	0	0
62914560	0	0
63963136	0	0
65011712	0	0
66060288	0	0
67108864	0	0
69206016	0	0
71303168	0	0
73400320	0	0
75497472	0	0
77594624	0	0
79691776	0	0
81788928	0	0
83886080	0	0
85983232	0	0
88080384	0	0
90177536	0	0
92274688	0	0
94371840	0	0
96468992	0	0
98566144	0	0
100663296	0	0
102760448	0	0
104857600	0	0
106954752	0	0
109051904	0	0
111149056	0	0
113246208	0	0
115343360	0	0
117440512	0	0
119537664	0	0
121634816	0	0
123731968	0	0
125829120	0	0
127926272	0	0
130023424	0	0
132120576	0	0
134217728	0	0
138412032	0	0
142606336	0	0
146800640	0	0
150994944	0	0
155189248	0	0
159383552	0	0
163577856	0	0
167772160	0	0
171966464	0	0
176160768	0	0
180355072	0	0
184549376	0	0
188743680	0	0
192937984	0	0
197132288	0	0
201326592	0	0
205520896	0	0
209715200	0	0
213909504	0	0
218103808	0	0
222298112	0	0
226492416	0	0
230686720	0	0
234881024	0	0
239075328	0	0
243269632	0	0
247463936	0	0
251658240	0	0
255852544	0	0
260046848	0	0
264241152	0	0
268435456	0	0
276824064	0	0
285212672	0	0
293601280	0	0
301989888	0	0
310378496	0	0
318767104	0	0
327155712	0	0
335544320	0	0
343932928	0	0
352321536	0	0
360710144	0	0
369098752	0	0
377487360	0	0
385875968	0	0
394264576	0	0
402653184	0	0
411041792	0	0
419430400	0	0
427819008	0	0
436207616	0	0
444596224	0	0
452984832	0	0
461373440	0	0
469762048	0	0
478150656	0	0
486539264	0	0
494927872	0	0
503316480	0	0
511705088	0	0
520093696	0	0
528482304	0	0
536870912	0	0
553648128	0	0
570425344	0	0
587202560	0	0
603979776	0	0
620756992	0	0
637534208	0	0
654311424	0	0
671088640	0	0
687865856	0	0
704643072	0	0
721420288	0	0
738197504	0	0
754974720	0	0
771751936	0	0
788529152	0	0
805306368	0	0
822083584	0	0
838860800	0	0
855638016	0	0
872415232	0	0
889192448	0	0
905969664	0	0
922746880	0	0
939524096	0	0
956301312	0	0
973078528	0	0
989855744	0	0
1006632960	0	0
1023410176	0	0
1040187392	0	0
1056964608	0	0
1073741824	0	0
1107296256	0	0
1140850688	0	0
1174405120	0	0
1207959552	0	0
1241513984	0	0
1275068416	0	0
1308622848	0	0
1342177280	0	0
1375731712	0	0
1409286144	0	0
1442840576	0	0
1476395008	0	0
1509949440	0	0
1543503872	0	0
1577058304	0	0
1610612736	0	0
1644167168	0	0
1677721600	0	0
1711276032	0	0
1744830464	0	0
1778384896	0	0
1811939328	0	0
1845493760	0	0
1879048192	0	0
1912602624	0	0
1946157056	0	0
1979711488	0	0
2013265920	0	0
2046820352	0	0
2080374784	0	0
2113929216	0	0
2147483648	0	0
2214592512	0	0
2281701376	0	0
2348810240	0	0
2415919104	0	0
2483027968	0	0
2550136832	0	0
2617245696	0	0
2684354560	0	0
2751463424	0	0
2818572288	0	0
2885681152	0	0
2952790016	0	0
3019898880	0	0
3087007744	0	0
3154116608	0	0
3221225472	0	0
3288334336	0	0
3355443200	0	0
3422552064	0	0
3489660928	0	0
3556769792	0	0
3623878656	0	0
3690987520	0	0
3758096384	0	0
3825205248	0	0
3892314112	0	0
3959422976	0	0
4026531840	0	0
4093640704	0	0
4160749568	0	0
4227858432	0	0
~~~~~~~~~~Reuse Distance Profiler output end~~~~~~~~~~

Sampler size:2301991

DRAM Statistics
 CHANNEL 0
 RQ ROW_BUFFER_HIT:    2175432  ROW_BUFFER_MISS:   68771455
 DBUS AVG_CONGESTED_CYCLE:    4.00327
 WQ ROW_BUFFER_HIT:     657523  ROW_BUFFER_MISS:   52556398  FULL:          0


CPU 0 Branch Prediction Accuracy: 96.0416% MPKI: 0.707559 Average ROB Occupancy at Mispredict: 258.106
Branch type MPKI
BRANCH_DIRECT_JUMP: 0
BRANCH_INDIRECT: 0
BRANCH_CONDITIONAL: 0.707559
BRANCH_DIRECT_CALL: 0
BRANCH_INDIRECT_CALL: 0
BRANCH_RETURN: 0

