
*** ChampSim Multicore Out-of-Order Simulator ***

Warmup Instructions: 50000000
Simulation Instructions: 1500000000
Number of CPUs: 1
Off-chip DRAM Size: 4 GiB Channels: 1 Width: 64-bit Data Rate: 3200 MT/s

VirtualMemory physical capacity: 8588881920 num_ppages: 2096895
VirtualMemory page size: 4096 log2_page_size: 12

CPU 0 runs /s/traces/champsim_traces/619.lbm_s-3766B.champsimtrace.xz
CPU 0 Bimodal branch predictor
Basic BTB sets: 1024 ways: 8 indirect buffer size: 4096 RAS size: 64
Initializing LRU.
Initializing LRU.
Initializing LRU.
Initializing LRU.
Initializing rdLRU.
Initializing LRU.
Heartbeat CPU 0 instructions: 2000001 cycles: 500112 heartbeat IPC: 3.99911 cumulative IPC: 3.99911 (Simulation time: 0 hr 0 min 54 sec) 
Heartbeat CPU 0 instructions: 4000001 cycles: 1000112 heartbeat IPC: 4 cumulative IPC: 3.99955 (Simulation time: 0 hr 1 min 47 sec) 
Heartbeat CPU 0 instructions: 6000001 cycles: 1500112 heartbeat IPC: 4 cumulative IPC: 3.9997 (Simulation time: 0 hr 2 min 41 sec) 
Heartbeat CPU 0 instructions: 8000001 cycles: 2000112 heartbeat IPC: 4 cumulative IPC: 3.99978 (Simulation time: 0 hr 3 min 29 sec) 
Heartbeat CPU 0 instructions: 10000001 cycles: 2500112 heartbeat IPC: 4 cumulative IPC: 3.99982 (Simulation time: 0 hr 4 min 16 sec) 
Heartbeat CPU 0 instructions: 12000001 cycles: 3000112 heartbeat IPC: 4 cumulative IPC: 3.99985 (Simulation time: 0 hr 5 min 1 sec) 
Heartbeat CPU 0 instructions: 14000002 cycles: 3505108 heartbeat IPC: 3.96043 cumulative IPC: 3.99417 (Simulation time: 0 hr 5 min 50 sec) 
Heartbeat CPU 0 instructions: 16000002 cycles: 4005108 heartbeat IPC: 4 cumulative IPC: 3.9949 (Simulation time: 0 hr 6 min 33 sec) 
Heartbeat CPU 0 instructions: 18000002 cycles: 4505108 heartbeat IPC: 4 cumulative IPC: 3.99547 (Simulation time: 0 hr 7 min 16 sec) 
Heartbeat CPU 0 instructions: 20000002 cycles: 5005108 heartbeat IPC: 4 cumulative IPC: 3.99592 (Simulation time: 0 hr 8 min 2 sec) 
Heartbeat CPU 0 instructions: 22000002 cycles: 5505108 heartbeat IPC: 4 cumulative IPC: 3.99629 (Simulation time: 0 hr 8 min 45 sec) 
Heartbeat CPU 0 instructions: 24000002 cycles: 6005108 heartbeat IPC: 4 cumulative IPC: 3.9966 (Simulation time: 0 hr 9 min 33 sec) 
Heartbeat CPU 0 instructions: 26000002 cycles: 6505108 heartbeat IPC: 4 cumulative IPC: 3.99686 (Simulation time: 0 hr 10 min 22 sec) 
Heartbeat CPU 0 instructions: 28000002 cycles: 7005108 heartbeat IPC: 4 cumulative IPC: 3.99708 (Simulation time: 0 hr 11 min 12 sec) 
Heartbeat CPU 0 instructions: 30000002 cycles: 7505108 heartbeat IPC: 4 cumulative IPC: 3.99728 (Simulation time: 0 hr 12 min 1 sec) 
Heartbeat CPU 0 instructions: 32000000 cycles: 8010082 heartbeat IPC: 3.9606 cumulative IPC: 3.99497 (Simulation time: 0 hr 12 min 50 sec) 
Heartbeat CPU 0 instructions: 34000000 cycles: 8510082 heartbeat IPC: 4 cumulative IPC: 3.99526 (Simulation time: 0 hr 13 min 38 sec) 
Heartbeat CPU 0 instructions: 36000000 cycles: 9010082 heartbeat IPC: 4 cumulative IPC: 3.99552 (Simulation time: 0 hr 14 min 23 sec) 
Heartbeat CPU 0 instructions: 38000000 cycles: 9510082 heartbeat IPC: 4 cumulative IPC: 3.99576 (Simulation time: 0 hr 15 min 5 sec) 
Heartbeat CPU 0 instructions: 40000000 cycles: 10010082 heartbeat IPC: 4 cumulative IPC: 3.99597 (Simulation time: 0 hr 15 min 53 sec) 
Heartbeat CPU 0 instructions: 42000000 cycles: 10510082 heartbeat IPC: 4 cumulative IPC: 3.99616 (Simulation time: 0 hr 16 min 39 sec) 
Heartbeat CPU 0 instructions: 44000000 cycles: 11010082 heartbeat IPC: 4 cumulative IPC: 3.99634 (Simulation time: 0 hr 17 min 23 sec) 
Heartbeat CPU 0 instructions: 46000000 cycles: 11510082 heartbeat IPC: 4 cumulative IPC: 3.9965 (Simulation time: 0 hr 18 min 8 sec) 
Heartbeat CPU 0 instructions: 48000000 cycles: 12010082 heartbeat IPC: 4 cumulative IPC: 3.99664 (Simulation time: 0 hr 18 min 52 sec) 
Heartbeat CPU 0 instructions: 50000002 cycles: 12515122 heartbeat IPC: 3.96009 cumulative IPC: 3.99517 (Simulation time: 0 hr 19 min 39 sec) 

Warmup complete CPU 0 instructions: 50000002 cycles: 12515122 (Simulation time: 0 hr 19 min 39 sec) 

Heartbeat CPU 0 instructions: 52000001 cycles: 17240295 heartbeat IPC: 0.423265 cumulative IPC: 0.423265 (Simulation time: 0 hr 22 min 58 sec) 

Region of Interest Statistics
cpu0_DTLB TOTAL     ACCESS:     277764  HIT:     276532  MISS:       1232
cpu0_DTLB LOAD      ACCESS:     146849  HIT:     146682  MISS:        167
cpu0_DTLB RFO       ACCESS:     130915  HIT:     129850  MISS:       1065
cpu0_DTLB PREFETCH  ACCESS:          0  HIT:          0  MISS:          0
cpu0_DTLB WRITEBACK ACCESS:          0  HIT:          0  MISS:          0
cpu0_ITLB TOTAL     ACCESS:       9279  HIT:       9279  MISS:          0
cpu0_ITLB LOAD      ACCESS:       9279  HIT:       9279  MISS:          0
cpu0_ITLB RFO       ACCESS:          0  HIT:          0  MISS:          0
cpu0_ITLB PREFETCH  ACCESS:          0  HIT:          0  MISS:          0
cpu0_ITLB WRITEBACK ACCESS:          0  HIT:          0  MISS:          0
cpu0_L1I TOTAL     ACCESS:      38152  HIT:      38152  MISS:          0
cpu0_L1I LOAD      ACCESS:      38152  HIT:      38152  MISS:          0
cpu0_L1I RFO       ACCESS:          0  HIT:          0  MISS:          0
cpu0_L1I PREFETCH  ACCESS:          0  HIT:          0  MISS:          0
cpu0_L1I WRITEBACK ACCESS:          0  HIT:          0  MISS:          0
cpu0_STLB TOTAL     ACCESS:       1232  HIT:        564  MISS:        668
cpu0_STLB LOAD      ACCESS:        167  HIT:          0  MISS:        167
cpu0_STLB RFO       ACCESS:       1065  HIT:        564  MISS:        501
cpu0_STLB PREFETCH  ACCESS:          0  HIT:          0  MISS:          0
cpu0_STLB WRITEBACK ACCESS:          0  HIT:          0  MISS:          0
cpu0_L1D TOTAL     ACCESS:     412231  HIT:     341698  MISS:      70533
cpu0_L1D LOAD      ACCESS:     114554  HIT:     103869  MISS:      10685
cpu0_L1D RFO       ACCESS:     297009  HIT:     237161  MISS:      59848
cpu0_L1D PREFETCH  ACCESS:          0  HIT:          0  MISS:          0
cpu0_L1D WRITEBACK ACCESS:          0  HIT:          0  MISS:          0
cpu0_L2C TOTAL     ACCESS:     130376  HIT:      86519  MISS:      43857
cpu0_L2C LOAD      ACCESS:      10685  HIT:          0  MISS:      10685
cpu0_L2C RFO       ACCESS:      59848  HIT:      26676  MISS:      33172
cpu0_L2C PREFETCH  ACCESS:          0  HIT:          0  MISS:          0
cpu0_L2C WRITEBACK ACCESS:      59843  HIT:      59843  MISS:          0
LLC TOTAL     ACCESS:      76945  HIT:      34032  MISS:      42913
LLC LOAD      ACCESS:      10685  HIT:          0  MISS:      10685
LLC RFO       ACCESS:      33172  HIT:       1112  MISS:      32060
LLC PREFETCH  ACCESS:          0  HIT:          0  MISS:          0
LLC WRITEBACK ACCESS:      33088  HIT:      32920  MISS:        168
Heartbeat CPU 0 instructions: 54000000 cycles: 21952579 heartbeat IPC: 0.424422 cumulative IPC: 0.423843 (Simulation time: 0 hr 26 min 7 sec) 

Region of Interest Statistics
cpu0_DTLB TOTAL     ACCESS:     555837  HIT:     553373  MISS:       2464
cpu0_DTLB LOAD      ACCESS:     294006  HIT:     293672  MISS:        334
cpu0_DTLB RFO       ACCESS:     261831  HIT:     259701  MISS:       2130
cpu0_DTLB PREFETCH  ACCESS:          0  HIT:          0  MISS:          0
cpu0_DTLB WRITEBACK ACCESS:          0  HIT:          0  MISS:          0
cpu0_ITLB TOTAL     ACCESS:      18560  HIT:      18560  MISS:          0
cpu0_ITLB LOAD      ACCESS:      18560  HIT:      18560  MISS:          0
cpu0_ITLB RFO       ACCESS:          0  HIT:          0  MISS:          0
cpu0_ITLB PREFETCH  ACCESS:          0  HIT:          0  MISS:          0
cpu0_ITLB WRITEBACK ACCESS:          0  HIT:          0  MISS:          0
cpu0_L1I TOTAL     ACCESS:      76383  HIT:      76383  MISS:          0
cpu0_L1I LOAD      ACCESS:      76383  HIT:      76383  MISS:          0
cpu0_L1I RFO       ACCESS:          0  HIT:          0  MISS:          0
cpu0_L1I PREFETCH  ACCESS:          0  HIT:          0  MISS:          0
cpu0_L1I WRITEBACK ACCESS:          0  HIT:          0  MISS:          0
cpu0_STLB TOTAL     ACCESS:       2464  HIT:       1128  MISS:       1336
cpu0_STLB LOAD      ACCESS:        334  HIT:          0  MISS:        334
cpu0_STLB RFO       ACCESS:       2130  HIT:       1128  MISS:       1002
cpu0_STLB PREFETCH  ACCESS:          0  HIT:          0  MISS:          0
cpu0_STLB WRITEBACK ACCESS:          0  HIT:          0  MISS:          0
cpu0_L1D TOTAL     ACCESS:     824847  HIT:     683762  MISS:     141085
cpu0_L1D LOAD      ACCESS:     229433  HIT:     208058  MISS:      21375
cpu0_L1D RFO       ACCESS:     594078  HIT:     474368  MISS:     119710
cpu0_L1D PREFETCH  ACCESS:          0  HIT:          0  MISS:          0
cpu0_L1D WRITEBACK ACCESS:          0  HIT:          0  MISS:          0
cpu0_L2C TOTAL     ACCESS:     260792  HIT:     172870  MISS:      87922
cpu0_L2C LOAD      ACCESS:      21375  HIT:          0  MISS:      21375
cpu0_L2C RFO       ACCESS:     119710  HIT:      53163  MISS:      66547
cpu0_L2C PREFETCH  ACCESS:          0  HIT:          0  MISS:          0
cpu0_L2C WRITEBACK ACCESS:     119707  HIT:     119707  MISS:          0
LLC TOTAL     ACCESS:     154691  HIT:      68977  MISS:      85714
LLC LOAD      ACCESS:      21375  HIT:          0  MISS:      21375
LLC RFO       ACCESS:      66547  HIT:       2415  MISS:      64132
LLC PREFETCH  ACCESS:          0  HIT:          0  MISS:          0
LLC WRITEBACK ACCESS:      66769  HIT:      66562  MISS:        207
Heartbeat CPU 0 instructions: 56000001 cycles: 26689188 heartbeat IPC: 0.422243 cumulative IPC: 0.423308 (Simulation time: 0 hr 29 min 21 sec) 

Region of Interest Statistics
cpu0_DTLB TOTAL     ACCESS:     833785  HIT:     830089  MISS:       3696
cpu0_DTLB LOAD      ACCESS:     441032  HIT:     440530  MISS:        502
cpu0_DTLB RFO       ACCESS:     392753  HIT:     389559  MISS:       3194
cpu0_DTLB PREFETCH  ACCESS:          0  HIT:          0  MISS:          0
cpu0_DTLB WRITEBACK ACCESS:          0  HIT:          0  MISS:          0
cpu0_ITLB TOTAL     ACCESS:      27872  HIT:      27872  MISS:          0
cpu0_ITLB LOAD      ACCESS:      27872  HIT:      27872  MISS:          0
cpu0_ITLB RFO       ACCESS:          0  HIT:          0  MISS:          0
cpu0_ITLB PREFETCH  ACCESS:          0  HIT:          0  MISS:          0
cpu0_ITLB WRITEBACK ACCESS:          0  HIT:          0  MISS:          0
cpu0_L1I TOTAL     ACCESS:     114583  HIT:     114583  MISS:          0
cpu0_L1I LOAD      ACCESS:     114583  HIT:     114583  MISS:          0
cpu0_L1I RFO       ACCESS:          0  HIT:          0  MISS:          0
cpu0_L1I PREFETCH  ACCESS:          0  HIT:          0  MISS:          0
cpu0_L1I WRITEBACK ACCESS:          0  HIT:          0  MISS:          0
cpu0_STLB TOTAL     ACCESS:       3696  HIT:       1691  MISS:       2005
cpu0_STLB LOAD      ACCESS:        502  HIT:          0  MISS:        502
cpu0_STLB RFO       ACCESS:       3194  HIT:       1691  MISS:       1503
cpu0_STLB PREFETCH  ACCESS:          0  HIT:          0  MISS:          0
cpu0_STLB WRITEBACK ACCESS:          0  HIT:          0  MISS:          0
cpu0_L1D TOTAL     ACCESS:    1237309  HIT:    1025652  MISS:     211657
cpu0_L1D LOAD      ACCESS:     344161  HIT:     312093  MISS:      32068
cpu0_L1D RFO       ACCESS:     891143  HIT:     711554  MISS:     179589
cpu0_L1D PREFETCH  ACCESS:          0  HIT:          0  MISS:          0
cpu0_L1D WRITEBACK ACCESS:          0  HIT:          0  MISS:          0
cpu0_L2C TOTAL     ACCESS:     391245  HIT:     259148  MISS:     132097
cpu0_L2C LOAD      ACCESS:      32068  HIT:          0  MISS:      32068
cpu0_L2C RFO       ACCESS:     179589  HIT:      79560  MISS:     100029
cpu0_L2C PREFETCH  ACCESS:          0  HIT:          0  MISS:          0
cpu0_L2C WRITEBACK ACCESS:     179588  HIT:     179588  MISS:          0
LLC TOTAL     ACCESS:     231970  HIT:     103447  MISS:     128523
LLC LOAD      ACCESS:      32068  HIT:          0  MISS:      32068
LLC RFO       ACCESS:     100029  HIT:       3820  MISS:      96209
LLC PREFETCH  ACCESS:          0  HIT:          0  MISS:          0
LLC WRITEBACK ACCESS:      99873  HIT:      99627  MISS:        246
Heartbeat CPU 0 instructions: 58000004 cycles: 31409236 heartbeat IPC: 0.423725 cumulative IPC: 0.423412 (Simulation time: 0 hr 32 min 38 sec) 

Region of Interest Statistics
cpu0_DTLB TOTAL     ACCESS:    1111690  HIT:    1106762  MISS:       4928
cpu0_DTLB LOAD      ACCESS:     587998  HIT:     587330  MISS:        668
cpu0_DTLB RFO       ACCESS:     523692  HIT:     519432  MISS:       4260
cpu0_DTLB PREFETCH  ACCESS:          0  HIT:          0  MISS:          0
cpu0_DTLB WRITEBACK ACCESS:          0  HIT:          0  MISS:          0
cpu0_ITLB TOTAL     ACCESS:      37151  HIT:      37151  MISS:          0
cpu0_ITLB LOAD      ACCESS:      37151  HIT:      37151  MISS:          0
cpu0_ITLB RFO       ACCESS:          0  HIT:          0  MISS:          0
cpu0_ITLB PREFETCH  ACCESS:          0  HIT:          0  MISS:          0
cpu0_ITLB WRITEBACK ACCESS:          0  HIT:          0  MISS:          0
cpu0_L1I TOTAL     ACCESS:     152761  HIT:     152761  MISS:          0
cpu0_L1I LOAD      ACCESS:     152761  HIT:     152761  MISS:          0
cpu0_L1I RFO       ACCESS:          0  HIT:          0  MISS:          0
cpu0_L1I PREFETCH  ACCESS:          0  HIT:          0  MISS:          0
cpu0_L1I WRITEBACK ACCESS:          0  HIT:          0  MISS:          0
cpu0_STLB TOTAL     ACCESS:       4928  HIT:       2256  MISS:       2672
cpu0_STLB LOAD      ACCESS:        668  HIT:          0  MISS:        668
cpu0_STLB RFO       ACCESS:       4260  HIT:       2256  MISS:       2004
cpu0_STLB PREFETCH  ACCESS:          0  HIT:          0  MISS:          0
cpu0_STLB WRITEBACK ACCESS:          0  HIT:          0  MISS:          0
cpu0_L1D TOTAL     ACCESS:    1649782  HIT:    1367591  MISS:     282191
cpu0_L1D LOAD      ACCESS:     458892  HIT:     416137  MISS:      42755
cpu0_L1D RFO       ACCESS:    1188218  HIT:     948782  MISS:     239436
cpu0_L1D PREFETCH  ACCESS:          0  HIT:          0  MISS:          0
cpu0_L1D WRITEBACK ACCESS:          0  HIT:          0  MISS:          0
cpu0_L2C TOTAL     ACCESS:     521624  HIT:     345996  MISS:     175628
cpu0_L2C LOAD      ACCESS:      42755  HIT:          0  MISS:      42755
cpu0_L2C RFO       ACCESS:     239436  HIT:     106563  MISS:     132873
cpu0_L2C PREFETCH  ACCESS:          0  HIT:          0  MISS:          0
cpu0_L2C WRITEBACK ACCESS:     239433  HIT:     239433  MISS:          0
LLC TOTAL     ACCESS:     308498  HIT:     137227  MISS:     171271
LLC LOAD      ACCESS:      42755  HIT:          0  MISS:      42755
LLC RFO       ACCESS:     132873  HIT:       4603  MISS:     128270
LLC PREFETCH  ACCESS:          0  HIT:          0  MISS:          0
LLC WRITEBACK ACCESS:     132870  HIT:     132624  MISS:        246
Heartbeat CPU 0 instructions: 60000000 cycles: 36138191 heartbeat IPC: 0.422926 cumulative IPC: 0.423315 (Simulation time: 0 hr 35 min 48 sec) 

Region of Interest Statistics
cpu0_DTLB TOTAL     ACCESS:    1389533  HIT:    1383375  MISS:       6158
cpu0_DTLB LOAD      ACCESS:     734941  HIT:     734106  MISS:        835
cpu0_DTLB RFO       ACCESS:     654592  HIT:     649269  MISS:       5323
cpu0_DTLB PREFETCH  ACCESS:          0  HIT:          0  MISS:          0
cpu0_DTLB WRITEBACK ACCESS:          0  HIT:          0  MISS:          0
cpu0_ITLB TOTAL     ACCESS:      46430  HIT:      46430  MISS:          0
cpu0_ITLB LOAD      ACCESS:      46430  HIT:      46430  MISS:          0
cpu0_ITLB RFO       ACCESS:          0  HIT:          0  MISS:          0
cpu0_ITLB PREFETCH  ACCESS:          0  HIT:          0  MISS:          0
cpu0_ITLB WRITEBACK ACCESS:          0  HIT:          0  MISS:          0
cpu0_L1I TOTAL     ACCESS:     190925  HIT:     190925  MISS:          0
cpu0_L1I LOAD      ACCESS:     190925  HIT:     190925  MISS:          0
cpu0_L1I RFO       ACCESS:          0  HIT:          0  MISS:          0
cpu0_L1I PREFETCH  ACCESS:          0  HIT:          0  MISS:          0
cpu0_L1I WRITEBACK ACCESS:          0  HIT:          0  MISS:          0
cpu0_STLB TOTAL     ACCESS:       6158  HIT:       2818  MISS:       3340
cpu0_STLB LOAD      ACCESS:        835  HIT:          0  MISS:        835
cpu0_STLB RFO       ACCESS:       5323  HIT:       2818  MISS:       2505
cpu0_STLB PREFETCH  ACCESS:          0  HIT:          0  MISS:          0
cpu0_STLB WRITEBACK ACCESS:          0  HIT:          0  MISS:          0
cpu0_L1D TOTAL     ACCESS:    2062189  HIT:    1709456  MISS:     352733
cpu0_L1D LOAD      ACCESS:     573613  HIT:     520170  MISS:      53443
cpu0_L1D RFO       ACCESS:    1485236  HIT:    1185947  MISS:     299289
cpu0_L1D PREFETCH  ACCESS:          0  HIT:          0  MISS:          0
cpu0_L1D WRITEBACK ACCESS:          0  HIT:          0  MISS:          0
cpu0_L2C TOTAL     ACCESS:     652022  HIT:     433019  MISS:     219003
cpu0_L2C LOAD      ACCESS:      53443  HIT:          0  MISS:      53443
cpu0_L2C RFO       ACCESS:     299289  HIT:     133730  MISS:     165559
cpu0_L2C PREFETCH  ACCESS:          0  HIT:          0  MISS:          0
cpu0_L2C WRITEBACK ACCESS:     299289  HIT:     299289  MISS:          0
LLC TOTAL     ACCESS:     384596  HIT:     170566  MISS:     214030
LLC LOAD      ACCESS:      53443  HIT:          0  MISS:      53443
LLC RFO       ACCESS:     165559  HIT:       5227  MISS:     160332
LLC PREFETCH  ACCESS:          0  HIT:          0  MISS:          0
LLC WRITEBACK ACCESS:     165593  HIT:     165339  MISS:        254
Heartbeat CPU 0 instructions: 62000004 cycles: 40907618 heartbeat IPC: 0.419338 cumulative IPC: 0.422647 (Simulation time: 0 hr 38 min 55 sec) 

Region of Interest Statistics
cpu0_DTLB TOTAL     ACCESS:    1667452  HIT:    1660060  MISS:       7392
cpu0_DTLB LOAD      ACCESS:     881894  HIT:     880891  MISS:       1003
cpu0_DTLB RFO       ACCESS:     785558  HIT:     779169  MISS:       6389
cpu0_DTLB PREFETCH  ACCESS:          0  HIT:          0  MISS:          0
cpu0_DTLB WRITEBACK ACCESS:          0  HIT:          0  MISS:          0
cpu0_ITLB TOTAL     ACCESS:      55743  HIT:      55743  MISS:          0
cpu0_ITLB LOAD      ACCESS:      55743  HIT:      55743  MISS:          0
cpu0_ITLB RFO       ACCESS:          0  HIT:          0  MISS:          0
cpu0_ITLB PREFETCH  ACCESS:          0  HIT:          0  MISS:          0
cpu0_ITLB WRITEBACK ACCESS:          0  HIT:          0  MISS:          0
cpu0_L1I TOTAL     ACCESS:     229084  HIT:     229084  MISS:          0
cpu0_L1I LOAD      ACCESS:     229084  HIT:     229084  MISS:          0
cpu0_L1I RFO       ACCESS:          0  HIT:          0  MISS:          0
cpu0_L1I PREFETCH  ACCESS:          0  HIT:          0  MISS:          0
cpu0_L1I WRITEBACK ACCESS:          0  HIT:          0  MISS:          0
cpu0_STLB TOTAL     ACCESS:       7392  HIT:       3383  MISS:       4009
cpu0_STLB LOAD      ACCESS:       1003  HIT:          0  MISS:       1003
cpu0_STLB RFO       ACCESS:       6389  HIT:       3383  MISS:       3006
cpu0_STLB PREFETCH  ACCESS:          0  HIT:          0  MISS:          0
cpu0_STLB WRITEBACK ACCESS:          0  HIT:          0  MISS:          0
cpu0_L1D TOTAL     ACCESS:    2474611  HIT:    2051295  MISS:     423316
cpu0_L1D LOAD      ACCESS:     688289  HIT:     624152  MISS:      64137
cpu0_L1D RFO       ACCESS:    1782313  HIT:    1423135  MISS:     359178
cpu0_L1D PREFETCH  ACCESS:          0  HIT:          0  MISS:          0
cpu0_L1D WRITEBACK ACCESS:          0  HIT:          0  MISS:          0
cpu0_L2C TOTAL     ACCESS:     782491  HIT:     519651  MISS:     262840
cpu0_L2C LOAD      ACCESS:      64137  HIT:          0  MISS:      64137
cpu0_L2C RFO       ACCESS:     359178  HIT:     160476  MISS:     198702
cpu0_L2C PREFETCH  ACCESS:          0  HIT:          0  MISS:          0
cpu0_L2C WRITEBACK ACCESS:     359175  HIT:     359175  MISS:          0
LLC TOTAL     ACCESS:     461660  HIT:     204801  MISS:     256859
LLC LOAD      ACCESS:      64138  HIT:          0  MISS:      64138
LLC RFO       ACCESS:     198702  HIT:       6286  MISS:     192416
LLC PREFETCH  ACCESS:          0  HIT:          0  MISS:          0
LLC WRITEBACK ACCESS:     198819  HIT:     198515  MISS:        304
Heartbeat CPU 0 instructions: 64000002 cycles: 45585171 heartbeat IPC: 0.427574 cumulative IPC: 0.423344 (Simulation time: 0 hr 42 min 7 sec) 

Region of Interest Statistics
cpu0_DTLB TOTAL     ACCESS:    1945289  HIT:    1936666  MISS:       8623
cpu0_DTLB LOAD      ACCESS:    1028761  HIT:    1027591  MISS:       1170
cpu0_DTLB RFO       ACCESS:     916528  HIT:     909075  MISS:       7453
cpu0_DTLB PREFETCH  ACCESS:          0  HIT:          0  MISS:          0
cpu0_DTLB WRITEBACK ACCESS:          0  HIT:          0  MISS:          0
cpu0_ITLB TOTAL     ACCESS:      65023  HIT:      65023  MISS:          0
cpu0_ITLB LOAD      ACCESS:      65023  HIT:      65023  MISS:          0
cpu0_ITLB RFO       ACCESS:          0  HIT:          0  MISS:          0
cpu0_ITLB PREFETCH  ACCESS:          0  HIT:          0  MISS:          0
cpu0_ITLB WRITEBACK ACCESS:          0  HIT:          0  MISS:          0
cpu0_L1I TOTAL     ACCESS:     267203  HIT:     267203  MISS:          0
cpu0_L1I LOAD      ACCESS:     267203  HIT:     267203  MISS:          0
cpu0_L1I RFO       ACCESS:          0  HIT:          0  MISS:          0
cpu0_L1I PREFETCH  ACCESS:          0  HIT:          0  MISS:          0
cpu0_L1I WRITEBACK ACCESS:          0  HIT:          0  MISS:          0
cpu0_STLB TOTAL     ACCESS:       8623  HIT:       3946  MISS:       4677
cpu0_STLB LOAD      ACCESS:       1170  HIT:          0  MISS:       1170
cpu0_STLB RFO       ACCESS:       7453  HIT:       3946  MISS:       3507
cpu0_STLB PREFETCH  ACCESS:          0  HIT:          0  MISS:          0
cpu0_STLB WRITEBACK ACCESS:          0  HIT:          0  MISS:          0
cpu0_L1D TOTAL     ACCESS:    2886897  HIT:    2393043  MISS:     493854
cpu0_L1D LOAD      ACCESS:     802929  HIT:     728104  MISS:      74825
cpu0_L1D RFO       ACCESS:    2079361  HIT:    1660333  MISS:     419028
cpu0_L1D PREFETCH  ACCESS:          0  HIT:          0  MISS:          0
cpu0_L1D WRITEBACK ACCESS:          0  HIT:          0  MISS:          0
cpu0_L2C TOTAL     ACCESS:     912878  HIT:     606243  MISS:     306635
cpu0_L2C LOAD      ACCESS:      74825  HIT:          0  MISS:      74825
cpu0_L2C RFO       ACCESS:     419028  HIT:     187219  MISS:     231809
cpu0_L2C PREFETCH  ACCESS:          0  HIT:          0  MISS:          0
cpu0_L2C WRITEBACK ACCESS:     419024  HIT:     419024  MISS:          0
LLC TOTAL     ACCESS:     538223  HIT:     238613  MISS:     299610
LLC LOAD      ACCESS:      74825  HIT:          0  MISS:      74825
LLC RFO       ACCESS:     231809  HIT:       7329  MISS:     224480
LLC PREFETCH  ACCESS:          0  HIT:          0  MISS:          0
LLC WRITEBACK ACCESS:     231588  HIT:     231284  MISS:        304
Heartbeat CPU 0 instructions: 66000000 cycles: 50363639 heartbeat IPC: 0.418544 cumulative IPC: 0.422738 (Simulation time: 0 hr 45 min 20 sec) 

Region of Interest Statistics
cpu0_DTLB TOTAL     ACCESS:    2223253  HIT:    2213398  MISS:       9855
cpu0_DTLB LOAD      ACCESS:    1175783  HIT:    1174446  MISS:       1337
cpu0_DTLB RFO       ACCESS:    1047470  HIT:    1038952  MISS:       8518
cpu0_DTLB PREFETCH  ACCESS:          0  HIT:          0  MISS:          0
cpu0_DTLB WRITEBACK ACCESS:          0  HIT:          0  MISS:          0
cpu0_ITLB TOTAL     ACCESS:      74341  HIT:      74341  MISS:          0
cpu0_ITLB LOAD      ACCESS:      74341  HIT:      74341  MISS:          0
cpu0_ITLB RFO       ACCESS:          0  HIT:          0  MISS:          0
cpu0_ITLB PREFETCH  ACCESS:          0  HIT:          0  MISS:          0
cpu0_ITLB WRITEBACK ACCESS:          0  HIT:          0  MISS:          0
cpu0_L1I TOTAL     ACCESS:     305374  HIT:     305374  MISS:          0
cpu0_L1I LOAD      ACCESS:     305374  HIT:     305374  MISS:          0
cpu0_L1I RFO       ACCESS:          0  HIT:          0  MISS:          0
cpu0_L1I PREFETCH  ACCESS:          0  HIT:          0  MISS:          0
cpu0_L1I WRITEBACK ACCESS:          0  HIT:          0  MISS:          0
cpu0_STLB TOTAL     ACCESS:       9855  HIT:       4510  MISS:       5345
cpu0_STLB LOAD      ACCESS:       1337  HIT:          0  MISS:       1337
cpu0_STLB RFO       ACCESS:       8518  HIT:       4510  MISS:       4008
cpu0_STLB PREFETCH  ACCESS:          0  HIT:          0  MISS:          0
cpu0_STLB WRITEBACK ACCESS:          0  HIT:          0  MISS:          0
cpu0_L1D TOTAL     ACCESS:    3299175  HIT:    2734747  MISS:     564428
cpu0_L1D LOAD      ACCESS:     917667  HIT:     832149  MISS:      85518
cpu0_L1D RFO       ACCESS:    2376399  HIT:    1897490  MISS:     478909
cpu0_L1D PREFETCH  ACCESS:          0  HIT:          0  MISS:          0
cpu0_L1D WRITEBACK ACCESS:          0  HIT:          0  MISS:          0
cpu0_L2C TOTAL     ACCESS:    1043335  HIT:     692205  MISS:     351130
cpu0_L2C LOAD      ACCESS:      85518  HIT:          0  MISS:      85518
cpu0_L2C RFO       ACCESS:     478909  HIT:     213298  MISS:     265611
cpu0_L2C PREFETCH  ACCESS:          0  HIT:          0  MISS:          0
cpu0_L2C WRITEBACK ACCESS:     478907  HIT:     478907  MISS:          0
LLC TOTAL     ACCESS:     616831  HIT:     274301  MISS:     342530
LLC LOAD      ACCESS:      85518  HIT:          0  MISS:      85518
LLC RFO       ACCESS:     265611  HIT:       9052  MISS:     256559
LLC PREFETCH  ACCESS:          0  HIT:          0  MISS:          0
LLC WRITEBACK ACCESS:     265701  HIT:     265249  MISS:        452
Heartbeat CPU 0 instructions: 68000001 cycles: 55057942 heartbeat IPC: 0.426049 cumulative IPC: 0.423103 (Simulation time: 0 hr 48 min 30 sec) 

Region of Interest Statistics
cpu0_DTLB TOTAL     ACCESS:    2501262  HIT:    2490175  MISS:      11087
cpu0_DTLB LOAD      ACCESS:    1322862  HIT:    1321358  MISS:       1504
cpu0_DTLB RFO       ACCESS:    1178400  HIT:    1168817  MISS:       9583
cpu0_DTLB PREFETCH  ACCESS:          0  HIT:          0  MISS:          0
cpu0_DTLB WRITEBACK ACCESS:          0  HIT:          0  MISS:          0
cpu0_ITLB TOTAL     ACCESS:      83614  HIT:      83614  MISS:          0
cpu0_ITLB LOAD      ACCESS:      83614  HIT:      83614  MISS:          0
cpu0_ITLB RFO       ACCESS:          0  HIT:          0  MISS:          0
cpu0_ITLB PREFETCH  ACCESS:          0  HIT:          0  MISS:          0
cpu0_ITLB WRITEBACK ACCESS:          0  HIT:          0  MISS:          0
cpu0_L1I TOTAL     ACCESS:     343564  HIT:     343564  MISS:          0
cpu0_L1I LOAD      ACCESS:     343564  HIT:     343564  MISS:          0
cpu0_L1I RFO       ACCESS:          0  HIT:          0  MISS:          0
cpu0_L1I PREFETCH  ACCESS:          0  HIT:          0  MISS:          0
cpu0_L1I WRITEBACK ACCESS:          0  HIT:          0  MISS:          0
cpu0_STLB TOTAL     ACCESS:      11087  HIT:       5074  MISS:       6013
cpu0_STLB LOAD      ACCESS:       1504  HIT:          0  MISS:       1504
cpu0_STLB RFO       ACCESS:       9583  HIT:       5074  MISS:       4509
cpu0_STLB PREFETCH  ACCESS:          0  HIT:          0  MISS:          0
cpu0_STLB WRITEBACK ACCESS:          0  HIT:          0  MISS:          0
cpu0_L1D TOTAL     ACCESS:    3711601  HIT:    3076639  MISS:     634962
cpu0_L1D LOAD      ACCESS:    1032521  HIT:     936316  MISS:      96205
cpu0_L1D RFO       ACCESS:    2673467  HIT:    2134711  MISS:     538756
cpu0_L1D PREFETCH  ACCESS:          0  HIT:          0  MISS:          0
cpu0_L1D WRITEBACK ACCESS:          0  HIT:          0  MISS:          0
cpu0_L2C TOTAL     ACCESS:    1173714  HIT:     779049  MISS:     394665
cpu0_L2C LOAD      ACCESS:      96205  HIT:          0  MISS:      96205
cpu0_L2C RFO       ACCESS:     538756  HIT:     240297  MISS:     298459
cpu0_L2C PREFETCH  ACCESS:          0  HIT:          0  MISS:          0
cpu0_L2C WRITEBACK ACCESS:     538752  HIT:     538752  MISS:          0
LLC TOTAL     ACCESS:     693026  HIT:     307090  MISS:     385936
LLC LOAD      ACCESS:      96205  HIT:          0  MISS:      96205
LLC RFO       ACCESS:     298459  HIT:       9839  MISS:     288620
LLC PREFETCH  ACCESS:          0  HIT:          0  MISS:          0
LLC WRITEBACK ACCESS:     298361  HIT:     297251  MISS:       1110
Heartbeat CPU 0 instructions: 70000001 cycles: 60171402 heartbeat IPC: 0.391125 cumulative IPC: 0.419672 (Simulation time: 0 hr 51 min 56 sec) 

Region of Interest Statistics
cpu0_DTLB TOTAL     ACCESS:    2784858  HIT:    2772436  MISS:      12422
cpu0_DTLB LOAD      ACCESS:    1470914  HIT:    1469228  MISS:       1686
cpu0_DTLB RFO       ACCESS:    1313944  HIT:    1303208  MISS:      10736
cpu0_DTLB PREFETCH  ACCESS:          0  HIT:          0  MISS:          0
cpu0_DTLB WRITEBACK ACCESS:          0  HIT:          0  MISS:          0
cpu0_ITLB TOTAL     ACCESS:      93621  HIT:      93621  MISS:          0
cpu0_ITLB LOAD      ACCESS:      93621  HIT:      93621  MISS:          0
cpu0_ITLB RFO       ACCESS:          0  HIT:          0  MISS:          0
cpu0_ITLB PREFETCH  ACCESS:          0  HIT:          0  MISS:          0
cpu0_ITLB WRITEBACK ACCESS:          0  HIT:          0  MISS:          0
cpu0_L1I TOTAL     ACCESS:     383923  HIT:     383923  MISS:          0
cpu0_L1I LOAD      ACCESS:     383923  HIT:     383923  MISS:          0
cpu0_L1I RFO       ACCESS:          0  HIT:          0  MISS:          0
cpu0_L1I PREFETCH  ACCESS:          0  HIT:          0  MISS:          0
cpu0_L1I WRITEBACK ACCESS:          0  HIT:          0  MISS:          0
cpu0_STLB TOTAL     ACCESS:      12422  HIT:       5682  MISS:       6740
cpu0_STLB LOAD      ACCESS:       1686  HIT:          0  MISS:       1686
cpu0_STLB RFO       ACCESS:      10736  HIT:       5682  MISS:       5054
cpu0_STLB PREFETCH  ACCESS:          0  HIT:          0  MISS:          0
cpu0_STLB WRITEBACK ACCESS:          0  HIT:          0  MISS:          0
cpu0_L1D TOTAL     ACCESS:    4128687  HIT:    3417198  MISS:     711489
cpu0_L1D LOAD      ACCESS:    1147251  HIT:    1039450  MISS:     107801
cpu0_L1D RFO       ACCESS:    2975276  HIT:    2371591  MISS:     603685
cpu0_L1D PREFETCH  ACCESS:          0  HIT:          0  MISS:          0
cpu0_L1D WRITEBACK ACCESS:          0  HIT:          0  MISS:          0
cpu0_L2C TOTAL     ACCESS:    1315167  HIT:     873512  MISS:     441655
cpu0_L2C LOAD      ACCESS:     107801  HIT:          0  MISS:     107801
cpu0_L2C RFO       ACCESS:     603685  HIT:     269840  MISS:     333845
cpu0_L2C PREFETCH  ACCESS:          0  HIT:          0  MISS:          0
cpu0_L2C WRITEBACK ACCESS:     603678  HIT:     603672  MISS:          6
LLC TOTAL     ACCESS:     775325  HIT:     342900  MISS:     432425
LLC LOAD      ACCESS:     107801  HIT:          0  MISS:     107801
LLC RFO       ACCESS:     333845  HIT:      10446  MISS:     323399
LLC PREFETCH  ACCESS:          0  HIT:          0  MISS:          0
LLC WRITEBACK ACCESS:     333676  HIT:     332454  MISS:       1222
Heartbeat CPU 0 instructions: 72000004 cycles: 64912030 heartbeat IPC: 0.421886 cumulative IPC: 0.419872 (Simulation time: 0 hr 55 min 10 sec) 

Region of Interest Statistics
cpu0_DTLB TOTAL     ACCESS:    3062488  HIT:    3048832  MISS:      13656
cpu0_DTLB LOAD      ACCESS:    1617636  HIT:    1615783  MISS:       1853
cpu0_DTLB RFO       ACCESS:    1444852  HIT:    1433049  MISS:      11803
cpu0_DTLB PREFETCH  ACCESS:          0  HIT:          0  MISS:          0
cpu0_DTLB WRITEBACK ACCESS:          0  HIT:          0  MISS:          0
cpu0_ITLB TOTAL     ACCESS:     102939  HIT:     102939  MISS:          0
cpu0_ITLB LOAD      ACCESS:     102939  HIT:     102939  MISS:          0
cpu0_ITLB RFO       ACCESS:          0  HIT:          0  MISS:          0
cpu0_ITLB PREFETCH  ACCESS:          0  HIT:          0  MISS:          0
cpu0_ITLB WRITEBACK ACCESS:          0  HIT:          0  MISS:          0
cpu0_L1I TOTAL     ACCESS:     422054  HIT:     422054  MISS:          0
cpu0_L1I LOAD      ACCESS:     422054  HIT:     422054  MISS:          0
cpu0_L1I RFO       ACCESS:          0  HIT:          0  MISS:          0
cpu0_L1I PREFETCH  ACCESS:          0  HIT:          0  MISS:          0
cpu0_L1I WRITEBACK ACCESS:          0  HIT:          0  MISS:          0
cpu0_STLB TOTAL     ACCESS:      13656  HIT:       6248  MISS:       7408
cpu0_STLB LOAD      ACCESS:       1853  HIT:          0  MISS:       1853
cpu0_STLB RFO       ACCESS:      11803  HIT:       6248  MISS:       5555
cpu0_STLB PREFETCH  ACCESS:          0  HIT:          0  MISS:          0
cpu0_STLB WRITEBACK ACCESS:          0  HIT:          0  MISS:          0
cpu0_L1D TOTAL     ACCESS:    4540727  HIT:    3758678  MISS:     782049
cpu0_L1D LOAD      ACCESS:    1261737  HIT:    1143241  MISS:     118496
cpu0_L1D RFO       ACCESS:    3272326  HIT:    2608776  MISS:     663550
cpu0_L1D PREFETCH  ACCESS:          0  HIT:          0  MISS:          0
cpu0_L1D WRITEBACK ACCESS:          0  HIT:          0  MISS:          0
cpu0_L2C TOTAL     ACCESS:    1445596  HIT:     960407  MISS:     485189
cpu0_L2C LOAD      ACCESS:     118496  HIT:          0  MISS:     118496
cpu0_L2C RFO       ACCESS:     663550  HIT:     296866  MISS:     366684
cpu0_L2C PREFETCH  ACCESS:          0  HIT:          0  MISS:          0
cpu0_L2C WRITEBACK ACCESS:     663547  HIT:     663541  MISS:          6
LLC TOTAL     ACCESS:     851770  HIT:     376540  MISS:     475230
LLC LOAD      ACCESS:     118496  HIT:          0  MISS:     118496
LLC RFO       ACCESS:     366684  HIT:      11215  MISS:     355469
LLC PREFETCH  ACCESS:          0  HIT:          0  MISS:          0
LLC WRITEBACK ACCESS:     366587  HIT:     365325  MISS:       1262
Heartbeat CPU 0 instructions: 74000002 cycles: 69610864 heartbeat IPC: 0.425637 cumulative IPC: 0.420347 (Simulation time: 0 hr 58 min 20 sec) 

Region of Interest Statistics
cpu0_DTLB TOTAL     ACCESS:    3340315  HIT:    3325428  MISS:      14887
cpu0_DTLB LOAD      ACCESS:    1764561  HIT:    1762541  MISS:       2020
cpu0_DTLB RFO       ACCESS:    1575754  HIT:    1562887  MISS:      12867
cpu0_DTLB PREFETCH  ACCESS:          0  HIT:          0  MISS:          0
cpu0_DTLB WRITEBACK ACCESS:          0  HIT:          0  MISS:          0
cpu0_ITLB TOTAL     ACCESS:     112220  HIT:     112220  MISS:          0
cpu0_ITLB LOAD      ACCESS:     112220  HIT:     112220  MISS:          0
cpu0_ITLB RFO       ACCESS:          0  HIT:          0  MISS:          0
cpu0_ITLB PREFETCH  ACCESS:          0  HIT:          0  MISS:          0
cpu0_ITLB WRITEBACK ACCESS:          0  HIT:          0  MISS:          0
cpu0_L1I TOTAL     ACCESS:     460230  HIT:     460230  MISS:          0
cpu0_L1I LOAD      ACCESS:     460230  HIT:     460230  MISS:          0
cpu0_L1I RFO       ACCESS:          0  HIT:          0  MISS:          0
cpu0_L1I PREFETCH  ACCESS:          0  HIT:          0  MISS:          0
cpu0_L1I WRITEBACK ACCESS:          0  HIT:          0  MISS:          0
cpu0_STLB TOTAL     ACCESS:      14887  HIT:       6811  MISS:       8076
cpu0_STLB LOAD      ACCESS:       2020  HIT:          0  MISS:       2020
cpu0_STLB RFO       ACCESS:      12867  HIT:       6811  MISS:       6056
cpu0_STLB PREFETCH  ACCESS:          0  HIT:          0  MISS:          0
cpu0_STLB WRITEBACK ACCESS:          0  HIT:          0  MISS:          0
cpu0_L1D TOTAL     ACCESS:    4952948  HIT:    4100340  MISS:     852608
cpu0_L1D LOAD      ACCESS:    1376385  HIT:    1247202  MISS:     129183
cpu0_L1D RFO       ACCESS:    3569394  HIT:    2845972  MISS:     723422
cpu0_L1D PREFETCH  ACCESS:          0  HIT:          0  MISS:          0
cpu0_L1D WRITEBACK ACCESS:          0  HIT:          0  MISS:          0
cpu0_L2C TOTAL     ACCESS:    1576025  HIT:    1047164  MISS:     528861
cpu0_L2C LOAD      ACCESS:     129183  HIT:          0  MISS:     129183
cpu0_L2C RFO       ACCESS:     723422  HIT:     323753  MISS:     399669
cpu0_L2C PREFETCH  ACCESS:          0  HIT:          0  MISS:          0
cpu0_L2C WRITEBACK ACCESS:     723417  HIT:     723411  MISS:          6
LLC TOTAL     ACCESS:     928573  HIT:     410543  MISS:     518030
LLC LOAD      ACCESS:     129183  HIT:          0  MISS:     129183
LLC RFO       ACCESS:     399669  HIT:      12124  MISS:     387545
LLC PREFETCH  ACCESS:          0  HIT:          0  MISS:          0
LLC WRITEBACK ACCESS:     399718  HIT:     398419  MISS:       1299
Heartbeat CPU 0 instructions: 76000001 cycles: 74329007 heartbeat IPC: 0.423895 cumulative IPC: 0.420617 (Simulation time: 1 hr 1 min 26 sec) 

Region of Interest Statistics
cpu0_DTLB TOTAL     ACCESS:    3618286  HIT:    3602167  MISS:      16119
cpu0_DTLB LOAD      ACCESS:    1911610  HIT:    1909423  MISS:       2187
cpu0_DTLB RFO       ACCESS:    1706676  HIT:    1692744  MISS:      13932
cpu0_DTLB PREFETCH  ACCESS:          0  HIT:          0  MISS:          0
cpu0_DTLB WRITEBACK ACCESS:          0  HIT:          0  MISS:          0
cpu0_ITLB TOTAL     ACCESS:     121499  HIT:     121499  MISS:          0
cpu0_ITLB LOAD      ACCESS:     121499  HIT:     121499  MISS:          0
cpu0_ITLB RFO       ACCESS:          0  HIT:          0  MISS:          0
cpu0_ITLB PREFETCH  ACCESS:          0  HIT:          0  MISS:          0
cpu0_ITLB WRITEBACK ACCESS:          0  HIT:          0  MISS:          0
cpu0_L1I TOTAL     ACCESS:     498433  HIT:     498433  MISS:          0
cpu0_L1I LOAD      ACCESS:     498433  HIT:     498433  MISS:          0
cpu0_L1I RFO       ACCESS:          0  HIT:          0  MISS:          0
cpu0_L1I PREFETCH  ACCESS:          0  HIT:          0  MISS:          0
cpu0_L1I WRITEBACK ACCESS:          0  HIT:          0  MISS:          0
cpu0_STLB TOTAL     ACCESS:      16119  HIT:       7375  MISS:       8744
cpu0_STLB LOAD      ACCESS:       2187  HIT:          0  MISS:       2187
cpu0_STLB RFO       ACCESS:      13932  HIT:       7375  MISS:       6557
cpu0_STLB PREFETCH  ACCESS:          0  HIT:          0  MISS:          0
cpu0_STLB WRITEBACK ACCESS:          0  HIT:          0  MISS:          0
cpu0_L1D TOTAL     ACCESS:    5365411  HIT:    4442262  MISS:     923149
cpu0_L1D LOAD      ACCESS:    1491167  HIT:    1351296  MISS:     139871
cpu0_L1D RFO       ACCESS:    3866457  HIT:    3083184  MISS:     783273
cpu0_L1D PREFETCH  ACCESS:          0  HIT:          0  MISS:          0
cpu0_L1D WRITEBACK ACCESS:          0  HIT:          0  MISS:          0
cpu0_L2C TOTAL     ACCESS:    1706420  HIT:    1133895  MISS:     572525
cpu0_L2C LOAD      ACCESS:     139871  HIT:          0  MISS:     139871
cpu0_L2C RFO       ACCESS:     783273  HIT:     350630  MISS:     432643
cpu0_L2C PREFETCH  ACCESS:          0  HIT:          0  MISS:          0
cpu0_L2C WRITEBACK ACCESS:     783271  HIT:     783265  MISS:          6
LLC TOTAL     ACCESS:    1004981  HIT:     444146  MISS:     560835
LLC LOAD      ACCESS:     139871  HIT:          0  MISS:     139871
LLC RFO       ACCESS:     432643  HIT:      13036  MISS:     419607
LLC PREFETCH  ACCESS:          0  HIT:          0  MISS:          0
LLC WRITEBACK ACCESS:     432462  HIT:     431110  MISS:       1352
Heartbeat CPU 0 instructions: 78000002 cycles: 79047365 heartbeat IPC: 0.423876 cumulative IPC: 0.420849 (Simulation time: 1 hr 4 min 36 sec) 

Region of Interest Statistics
cpu0_DTLB TOTAL     ACCESS:    3896384  HIT:    3879034  MISS:      17350
cpu0_DTLB LOAD      ACCESS:    2058700  HIT:    2056346  MISS:       2354
cpu0_DTLB RFO       ACCESS:    1837684  HIT:    1822688  MISS:      14996
cpu0_DTLB PREFETCH  ACCESS:          0  HIT:          0  MISS:          0
cpu0_DTLB WRITEBACK ACCESS:          0  HIT:          0  MISS:          0
cpu0_ITLB TOTAL     ACCESS:     130817  HIT:     130817  MISS:          0
cpu0_ITLB LOAD      ACCESS:     130817  HIT:     130817  MISS:          0
cpu0_ITLB RFO       ACCESS:          0  HIT:          0  MISS:          0
cpu0_ITLB PREFETCH  ACCESS:          0  HIT:          0  MISS:          0
cpu0_ITLB WRITEBACK ACCESS:          0  HIT:          0  MISS:          0
cpu0_L1I TOTAL     ACCESS:     536597  HIT:     536597  MISS:          0
cpu0_L1I LOAD      ACCESS:     536597  HIT:     536597  MISS:          0
cpu0_L1I RFO       ACCESS:          0  HIT:          0  MISS:          0
cpu0_L1I PREFETCH  ACCESS:          0  HIT:          0  MISS:          0
cpu0_L1I WRITEBACK ACCESS:          0  HIT:          0  MISS:          0
cpu0_STLB TOTAL     ACCESS:      17350  HIT:       7938  MISS:       9412
cpu0_STLB LOAD      ACCESS:       2354  HIT:          0  MISS:       2354
cpu0_STLB RFO       ACCESS:      14996  HIT:       7938  MISS:       7058
cpu0_STLB PREFETCH  ACCESS:          0  HIT:          0  MISS:          0
cpu0_STLB WRITEBACK ACCESS:          0  HIT:          0  MISS:          0
cpu0_L1D TOTAL     ACCESS:    5777996  HIT:    4784276  MISS:     993720
cpu0_L1D LOAD      ACCESS:    1606001  HIT:    1455438  MISS:     150563
cpu0_L1D RFO       ACCESS:    4163540  HIT:    3320388  MISS:     843152
cpu0_L1D PREFETCH  ACCESS:          0  HIT:          0  MISS:          0
cpu0_L1D WRITEBACK ACCESS:          0  HIT:          0  MISS:          0
cpu0_L2C TOTAL     ACCESS:    1836867  HIT:    1220594  MISS:     616273
cpu0_L2C LOAD      ACCESS:     150563  HIT:          0  MISS:     150563
cpu0_L2C RFO       ACCESS:     843152  HIT:     377453  MISS:     465699
cpu0_L2C PREFETCH  ACCESS:          0  HIT:          0  MISS:          0
cpu0_L2C WRITEBACK ACCESS:     843147  HIT:     843141  MISS:          6
LLC TOTAL     ACCESS:    1081774  HIT:     478167  MISS:     603607
LLC LOAD      ACCESS:     150563  HIT:          0  MISS:     150563
LLC RFO       ACCESS:     465699  HIT:      14012  MISS:     451687
LLC PREFETCH  ACCESS:          0  HIT:          0  MISS:          0
LLC WRITEBACK ACCESS:     465507  HIT:     464155  MISS:       1352
Heartbeat CPU 0 instructions: 80000003 cycles: 83738038 heartbeat IPC: 0.426378 cumulative IPC: 0.421213 (Simulation time: 1 hr 7 min 43 sec) 

Region of Interest Statistics
cpu0_DTLB TOTAL     ACCESS:    4174553  HIT:    4155971  MISS:      18582
cpu0_DTLB LOAD      ACCESS:    2205922  HIT:    2203401  MISS:       2521
cpu0_DTLB RFO       ACCESS:    1968631  HIT:    1952570  MISS:      16061
cpu0_DTLB PREFETCH  ACCESS:          0  HIT:          0  MISS:          0
cpu0_DTLB WRITEBACK ACCESS:          0  HIT:          0  MISS:          0
cpu0_ITLB TOTAL     ACCESS:     140090  HIT:     140090  MISS:          0
cpu0_ITLB LOAD      ACCESS:     140090  HIT:     140090  MISS:          0
cpu0_ITLB RFO       ACCESS:          0  HIT:          0  MISS:          0
cpu0_ITLB PREFETCH  ACCESS:          0  HIT:          0  MISS:          0
cpu0_ITLB WRITEBACK ACCESS:          0  HIT:          0  MISS:          0
cpu0_L1I TOTAL     ACCESS:     574799  HIT:     574799  MISS:          0
cpu0_L1I LOAD      ACCESS:     574799  HIT:     574799  MISS:          0
cpu0_L1I RFO       ACCESS:          0  HIT:          0  MISS:          0
cpu0_L1I PREFETCH  ACCESS:          0  HIT:          0  MISS:          0
cpu0_L1I WRITEBACK ACCESS:          0  HIT:          0  MISS:          0
cpu0_STLB TOTAL     ACCESS:      18582  HIT:       8502  MISS:      10080
cpu0_STLB LOAD      ACCESS:       2521  HIT:          0  MISS:       2521
cpu0_STLB RFO       ACCESS:      16061  HIT:       8502  MISS:       7559
cpu0_STLB PREFETCH  ACCESS:          0  HIT:          0  MISS:          0
cpu0_STLB WRITEBACK ACCESS:          0  HIT:          0  MISS:          0
cpu0_L1D TOTAL     ACCESS:    6190712  HIT:    5126451  MISS:    1064261
cpu0_L1D LOAD      ACCESS:    1720997  HIT:    1559746  MISS:     161251
cpu0_L1D RFO       ACCESS:    4460592  HIT:    3557587  MISS:     903005
cpu0_L1D PREFETCH  ACCESS:          0  HIT:          0  MISS:          0
cpu0_L1D WRITEBACK ACCESS:          0  HIT:          0  MISS:          0
cpu0_L2C TOTAL     ACCESS:    1967262  HIT:    1307379  MISS:     659883
cpu0_L2C LOAD      ACCESS:     161251  HIT:          0  MISS:     161251
cpu0_L2C RFO       ACCESS:     903005  HIT:     404384  MISS:     498621
cpu0_L2C PREFETCH  ACCESS:          0  HIT:          0  MISS:          0
cpu0_L2C WRITEBACK ACCESS:     903001  HIT:     902995  MISS:          6
LLC TOTAL     ACCESS:    1158510  HIT:     512153  MISS:     646357
LLC LOAD      ACCESS:     161251  HIT:          0  MISS:     161251
LLC RFO       ACCESS:     498620  HIT:      14871  MISS:     483749
LLC PREFETCH  ACCESS:          0  HIT:          0  MISS:          0
LLC WRITEBACK ACCESS:     498634  HIT:     497282  MISS:       1352
Heartbeat CPU 0 instructions: 82000003 cycles: 88456585 heartbeat IPC: 0.423859 cumulative IPC: 0.421377 (Simulation time: 1 hr 10 min 53 sec) 

Region of Interest Statistics
cpu0_DTLB TOTAL     ACCESS:    4452723  HIT:    4432909  MISS:      19814
cpu0_DTLB LOAD      ACCESS:    2353145  HIT:    2350457  MISS:       2688
cpu0_DTLB RFO       ACCESS:    2099578  HIT:    2082452  MISS:      17126
cpu0_DTLB PREFETCH  ACCESS:          0  HIT:          0  MISS:          0
cpu0_DTLB WRITEBACK ACCESS:          0  HIT:          0  MISS:          0
cpu0_ITLB TOTAL     ACCESS:     149370  HIT:     149370  MISS:          0
cpu0_ITLB LOAD      ACCESS:     149370  HIT:     149370  MISS:          0
cpu0_ITLB RFO       ACCESS:          0  HIT:          0  MISS:          0
cpu0_ITLB PREFETCH  ACCESS:          0  HIT:          0  MISS:          0
cpu0_ITLB WRITEBACK ACCESS:          0  HIT:          0  MISS:          0
cpu0_L1I TOTAL     ACCESS:     613035  HIT:     613035  MISS:          0
cpu0_L1I LOAD      ACCESS:     613035  HIT:     613035  MISS:          0
cpu0_L1I RFO       ACCESS:          0  HIT:          0  MISS:          0
cpu0_L1I PREFETCH  ACCESS:          0  HIT:          0  MISS:          0
cpu0_L1I WRITEBACK ACCESS:          0  HIT:          0  MISS:          0
cpu0_STLB TOTAL     ACCESS:      19814  HIT:       9066  MISS:      10748
cpu0_STLB LOAD      ACCESS:       2688  HIT:          0  MISS:       2688
cpu0_STLB RFO       ACCESS:      17126  HIT:       9066  MISS:       8060
cpu0_STLB PREFETCH  ACCESS:          0  HIT:          0  MISS:          0
cpu0_STLB WRITEBACK ACCESS:          0  HIT:          0  MISS:          0
cpu0_L1D TOTAL     ACCESS:    6603308  HIT:    5468495  MISS:    1134813
cpu0_L1D LOAD      ACCESS:    1835919  HIT:    1663978  MISS:     171941
cpu0_L1D RFO       ACCESS:    4757598  HIT:    3794731  MISS:     962867
cpu0_L1D PREFETCH  ACCESS:          0  HIT:          0  MISS:          0
cpu0_L1D WRITEBACK ACCESS:          0  HIT:          0  MISS:          0
cpu0_L2C TOTAL     ACCESS:    2097677  HIT:    1394191  MISS:     703486
cpu0_L2C LOAD      ACCESS:     171941  HIT:          0  MISS:     171941
cpu0_L2C RFO       ACCESS:     962867  HIT:     431333  MISS:     531534
cpu0_L2C PREFETCH  ACCESS:          0  HIT:          0  MISS:          0
cpu0_L2C WRITEBACK ACCESS:     962864  HIT:     962858  MISS:          6
LLC TOTAL     ACCESS:    1235139  HIT:     546022  MISS:     689117
LLC LOAD      ACCESS:     171941  HIT:          0  MISS:     171941
LLC RFO       ACCESS:     531532  HIT:      15713  MISS:     515819
LLC PREFETCH  ACCESS:          0  HIT:          0  MISS:          0
LLC WRITEBACK ACCESS:     531661  HIT:     530309  MISS:       1352
Heartbeat CPU 0 instructions: 84000000 cycles: 93193873 heartbeat IPC: 0.422182 cumulative IPC: 0.421424 (Simulation time: 1 hr 14 min 8 sec) 

Region of Interest Statistics
cpu0_DTLB TOTAL     ACCESS:    4730913  HIT:    4709868  MISS:      21045
cpu0_DTLB LOAD      ACCESS:    2500399  HIT:    2497544  MISS:       2855
cpu0_DTLB RFO       ACCESS:    2230514  HIT:    2212324  MISS:      18190
cpu0_DTLB PREFETCH  ACCESS:          0  HIT:          0  MISS:          0
cpu0_DTLB WRITEBACK ACCESS:          0  HIT:          0  MISS:          0
cpu0_ITLB TOTAL     ACCESS:     158689  HIT:     158689  MISS:          0
cpu0_ITLB LOAD      ACCESS:     158689  HIT:     158689  MISS:          0
cpu0_ITLB RFO       ACCESS:          0  HIT:          0  MISS:          0
cpu0_ITLB PREFETCH  ACCESS:          0  HIT:          0  MISS:          0
cpu0_ITLB WRITEBACK ACCESS:          0  HIT:          0  MISS:          0
cpu0_L1I TOTAL     ACCESS:     651272  HIT:     651272  MISS:          0
cpu0_L1I LOAD      ACCESS:     651272  HIT:     651272  MISS:          0
cpu0_L1I RFO       ACCESS:          0  HIT:          0  MISS:          0
cpu0_L1I PREFETCH  ACCESS:          0  HIT:          0  MISS:          0
cpu0_L1I WRITEBACK ACCESS:          0  HIT:          0  MISS:          0
cpu0_STLB TOTAL     ACCESS:      21045  HIT:       9629  MISS:      11416
cpu0_STLB LOAD      ACCESS:       2855  HIT:          0  MISS:       2855
cpu0_STLB RFO       ACCESS:      18190  HIT:       9629  MISS:       8561
cpu0_STLB PREFETCH  ACCESS:          0  HIT:          0  MISS:          0
cpu0_STLB WRITEBACK ACCESS:          0  HIT:          0  MISS:          0
cpu0_L1D TOTAL     ACCESS:    7015988  HIT:    5810608  MISS:    1205380
cpu0_L1D LOAD      ACCESS:    1950884  HIT:    1768251  MISS:     182633
cpu0_L1D RFO       ACCESS:    5054645  HIT:    4031903  MISS:    1022742
cpu0_L1D PREFETCH  ACCESS:          0  HIT:          0  MISS:          0
cpu0_L1D WRITEBACK ACCESS:          0  HIT:          0  MISS:          0
cpu0_L2C TOTAL     ACCESS:    2228119  HIT:    1480852  MISS:     747267
cpu0_L2C LOAD      ACCESS:     182633  HIT:          0  MISS:     182633
cpu0_L2C RFO       ACCESS:    1022742  HIT:     458119  MISS:     564623
cpu0_L2C PREFETCH  ACCESS:          0  HIT:          0  MISS:          0
cpu0_L2C WRITEBACK ACCESS:    1022739  HIT:    1022733  MISS:          6
LLC TOTAL     ACCESS:    1311968  HIT:     579956  MISS:     732012
LLC LOAD      ACCESS:     182633  HIT:          0  MISS:     182633
LLC RFO       ACCESS:     564621  HIT:      16726  MISS:     547895
LLC PREFETCH  ACCESS:          0  HIT:          0  MISS:          0
LLC WRITEBACK ACCESS:     564709  HIT:     563230  MISS:       1479
Heartbeat CPU 0 instructions: 86000003 cycles: 97947959 heartbeat IPC: 0.420691 cumulative IPC: 0.421384 (Simulation time: 1 hr 17 min 20 sec) 

Region of Interest Statistics
cpu0_DTLB TOTAL     ACCESS:    5008994  HIT:    4986717  MISS:      22277
cpu0_DTLB LOAD      ACCESS:    2647556  HIT:    2644534  MISS:       3022
cpu0_DTLB RFO       ACCESS:    2361438  HIT:    2342183  MISS:      19255
cpu0_DTLB PREFETCH  ACCESS:          0  HIT:          0  MISS:          0
cpu0_DTLB WRITEBACK ACCESS:          0  HIT:          0  MISS:          0
cpu0_ITLB TOTAL     ACCESS:     167962  HIT:     167962  MISS:          0
cpu0_ITLB LOAD      ACCESS:     167962  HIT:     167962  MISS:          0
cpu0_ITLB RFO       ACCESS:          0  HIT:          0  MISS:          0
cpu0_ITLB PREFETCH  ACCESS:          0  HIT:          0  MISS:          0
cpu0_ITLB WRITEBACK ACCESS:          0  HIT:          0  MISS:          0
cpu0_L1I TOTAL     ACCESS:     689476  HIT:     689476  MISS:          0
cpu0_L1I LOAD      ACCESS:     689476  HIT:     689476  MISS:          0
cpu0_L1I RFO       ACCESS:          0  HIT:          0  MISS:          0
cpu0_L1I PREFETCH  ACCESS:          0  HIT:          0  MISS:          0
cpu0_L1I WRITEBACK ACCESS:          0  HIT:          0  MISS:          0
cpu0_STLB TOTAL     ACCESS:      22277  HIT:      10193  MISS:      12084
cpu0_STLB LOAD      ACCESS:       3022  HIT:          0  MISS:       3022
cpu0_STLB RFO       ACCESS:      19255  HIT:      10193  MISS:       9062
cpu0_STLB PREFETCH  ACCESS:          0  HIT:          0  MISS:          0
cpu0_STLB WRITEBACK ACCESS:          0  HIT:          0  MISS:          0
cpu0_L1D TOTAL     ACCESS:    7428554  HIT:    6152635  MISS:    1275919
cpu0_L1D LOAD      ACCESS:    2065771  HIT:    1872450  MISS:     193321
cpu0_L1D RFO       ACCESS:    5351656  HIT:    4269063  MISS:    1082593
cpu0_L1D PREFETCH  ACCESS:          0  HIT:          0  MISS:          0
cpu0_L1D WRITEBACK ACCESS:          0  HIT:          0  MISS:          0
cpu0_L2C TOTAL     ACCESS:    2358509  HIT:    1567255  MISS:     791254
cpu0_L2C LOAD      ACCESS:     193321  HIT:          0  MISS:     193321
cpu0_L2C RFO       ACCESS:    1082593  HIT:     484671  MISS:     597922
cpu0_L2C PREFETCH  ACCESS:          0  HIT:          0  MISS:          0
cpu0_L2C WRITEBACK ACCESS:    1082590  HIT:    1082584  MISS:          6
LLC TOTAL     ACCESS:    1389051  HIT:     614195  MISS:     774856
LLC LOAD      ACCESS:     193321  HIT:          0  MISS:     193321
LLC RFO       ACCESS:     597920  HIT:      17963  MISS:     579957
LLC PREFETCH  ACCESS:          0  HIT:          0  MISS:          0
LLC WRITEBACK ACCESS:     597805  HIT:     596232  MISS:       1573
Heartbeat CPU 0 instructions: 88000003 cycles: 103031254 heartbeat IPC: 0.393446 cumulative IPC: 0.419815 (Simulation time: 1 hr 20 min 53 sec) 

Region of Interest Statistics
cpu0_DTLB TOTAL     ACCESS:    5292549  HIT:    5268938  MISS:      23611
cpu0_DTLB LOAD      ACCESS:    2795648  HIT:    2792444  MISS:       3204
cpu0_DTLB RFO       ACCESS:    2496901  HIT:    2476494  MISS:      20407
cpu0_DTLB PREFETCH  ACCESS:          0  HIT:          0  MISS:          0
cpu0_DTLB WRITEBACK ACCESS:          0  HIT:          0  MISS:          0
cpu0_ITLB TOTAL     ACCESS:     177969  HIT:     177969  MISS:          0
cpu0_ITLB LOAD      ACCESS:     177969  HIT:     177969  MISS:          0
cpu0_ITLB RFO       ACCESS:          0  HIT:          0  MISS:          0
cpu0_ITLB PREFETCH  ACCESS:          0  HIT:          0  MISS:          0
cpu0_ITLB WRITEBACK ACCESS:          0  HIT:          0  MISS:          0
cpu0_L1I TOTAL     ACCESS:     729894  HIT:     729894  MISS:          0
cpu0_L1I LOAD      ACCESS:     729894  HIT:     729894  MISS:          0
cpu0_L1I RFO       ACCESS:          0  HIT:          0  MISS:          0
cpu0_L1I PREFETCH  ACCESS:          0  HIT:          0  MISS:          0
cpu0_L1I WRITEBACK ACCESS:          0  HIT:          0  MISS:          0
cpu0_STLB TOTAL     ACCESS:      23611  HIT:      10801  MISS:      12810
cpu0_STLB LOAD      ACCESS:       3204  HIT:          0  MISS:       3204
cpu0_STLB RFO       ACCESS:      20407  HIT:      10801  MISS:       9606
cpu0_STLB PREFETCH  ACCESS:          0  HIT:          0  MISS:          0
cpu0_STLB WRITEBACK ACCESS:          0  HIT:          0  MISS:          0
cpu0_L1D TOTAL     ACCESS:    7845807  HIT:    6493368  MISS:    1352439
cpu0_L1D LOAD      ACCESS:    2180454  HIT:    1975538  MISS:     204916
cpu0_L1D RFO       ACCESS:    5653500  HIT:    4505984  MISS:    1147516
cpu0_L1D PREFETCH  ACCESS:          0  HIT:          0  MISS:          0
cpu0_L1D WRITEBACK ACCESS:          0  HIT:          0  MISS:          0
cpu0_L2C TOTAL     ACCESS:    2499950  HIT:    1661222  MISS:     838728
cpu0_L2C LOAD      ACCESS:     204916  HIT:          0  MISS:     204916
cpu0_L2C RFO       ACCESS:    1147516  HIT:     513723  MISS:     633793
cpu0_L2C PREFETCH  ACCESS:          0  HIT:          0  MISS:          0
cpu0_L2C WRITEBACK ACCESS:    1147511  HIT:    1147499  MISS:         12
LLC TOTAL     ACCESS:    1472583  HIT:     650930  MISS:     821653
LLC LOAD      ACCESS:     204916  HIT:          0  MISS:     204916
LLC RFO       ACCESS:     633791  HIT:      19056  MISS:     614735
LLC PREFETCH  ACCESS:          0  HIT:          0  MISS:          0
LLC WRITEBACK ACCESS:     633869  HIT:     631874  MISS:       1995
Heartbeat CPU 0 instructions: 90000004 cycles: 107842389 heartbeat IPC: 0.415703 cumulative IPC: 0.419607 (Simulation time: 1 hr 24 min 6 sec) 

Region of Interest Statistics
cpu0_DTLB TOTAL     ACCESS:    5570372  HIT:    5545529  MISS:      24843
cpu0_DTLB LOAD      ACCESS:    2942512  HIT:    2939141  MISS:       3371
cpu0_DTLB RFO       ACCESS:    2627860  HIT:    2606388  MISS:      21472
cpu0_DTLB PREFETCH  ACCESS:          0  HIT:          0  MISS:          0
cpu0_DTLB WRITEBACK ACCESS:          0  HIT:          0  MISS:          0
cpu0_ITLB TOTAL     ACCESS:     187287  HIT:     187287  MISS:          0
cpu0_ITLB LOAD      ACCESS:     187287  HIT:     187287  MISS:          0
cpu0_ITLB RFO       ACCESS:          0  HIT:          0  MISS:          0
cpu0_ITLB PREFETCH  ACCESS:          0  HIT:          0  MISS:          0
cpu0_ITLB WRITEBACK ACCESS:          0  HIT:          0  MISS:          0
cpu0_L1I TOTAL     ACCESS:     768022  HIT:     768022  MISS:          0
cpu0_L1I LOAD      ACCESS:     768022  HIT:     768022  MISS:          0
cpu0_L1I RFO       ACCESS:          0  HIT:          0  MISS:          0
cpu0_L1I PREFETCH  ACCESS:          0  HIT:          0  MISS:          0
cpu0_L1I WRITEBACK ACCESS:          0  HIT:          0  MISS:          0
cpu0_STLB TOTAL     ACCESS:      24843  HIT:      11365  MISS:      13478
cpu0_STLB LOAD      ACCESS:       3371  HIT:          0  MISS:       3371
cpu0_STLB RFO       ACCESS:      21472  HIT:      11365  MISS:      10107
cpu0_STLB PREFETCH  ACCESS:          0  HIT:          0  MISS:          0
cpu0_STLB WRITEBACK ACCESS:          0  HIT:          0  MISS:          0
cpu0_L1D TOTAL     ACCESS:    8258112  HIT:    6835100  MISS:    1423012
cpu0_L1D LOAD      ACCESS:    2295033  HIT:    2079424  MISS:     215609
cpu0_L1D RFO       ACCESS:    5950558  HIT:    4743162  MISS:    1207396
cpu0_L1D PREFETCH  ACCESS:          0  HIT:          0  MISS:          0
cpu0_L1D WRITEBACK ACCESS:          0  HIT:          0  MISS:          0
cpu0_L2C TOTAL     ACCESS:    2630405  HIT:    1747936  MISS:     882469
cpu0_L2C LOAD      ACCESS:     215609  HIT:          0  MISS:     215609
cpu0_L2C RFO       ACCESS:    1207396  HIT:     540555  MISS:     666841
cpu0_L2C PREFETCH  ACCESS:          0  HIT:          0  MISS:          0
cpu0_L2C WRITEBACK ACCESS:    1207393  HIT:    1207381  MISS:         12
LLC TOTAL     ACCESS:    1549273  HIT:     684782  MISS:     864491
LLC LOAD      ACCESS:     215609  HIT:          0  MISS:     215609
LLC RFO       ACCESS:     666839  HIT:      20027  MISS:     646812
LLC PREFETCH  ACCESS:          0  HIT:          0  MISS:          0
LLC WRITEBACK ACCESS:     666818  HIT:     664755  MISS:       2063
Heartbeat CPU 0 instructions: 92000003 cycles: 112556361 heartbeat IPC: 0.42427 cumulative IPC: 0.419827 (Simulation time: 1 hr 27 min 15 sec) 

Region of Interest Statistics
cpu0_DTLB TOTAL     ACCESS:    5848423  HIT:    5822347  MISS:      26076
cpu0_DTLB LOAD      ACCESS:    3089659  HIT:    3086121  MISS:       3538
cpu0_DTLB RFO       ACCESS:    2758764  HIT:    2736226  MISS:      22538
cpu0_DTLB PREFETCH  ACCESS:          0  HIT:          0  MISS:          0
cpu0_DTLB WRITEBACK ACCESS:          0  HIT:          0  MISS:          0
cpu0_ITLB TOTAL     ACCESS:     196561  HIT:     196561  MISS:          0
cpu0_ITLB LOAD      ACCESS:     196561  HIT:     196561  MISS:          0
cpu0_ITLB RFO       ACCESS:          0  HIT:          0  MISS:          0
cpu0_ITLB PREFETCH  ACCESS:          0  HIT:          0  MISS:          0
cpu0_ITLB WRITEBACK ACCESS:          0  HIT:          0  MISS:          0
cpu0_L1I TOTAL     ACCESS:     806235  HIT:     806235  MISS:          0
cpu0_L1I LOAD      ACCESS:     806235  HIT:     806235  MISS:          0
cpu0_L1I RFO       ACCESS:          0  HIT:          0  MISS:          0
cpu0_L1I PREFETCH  ACCESS:          0  HIT:          0  MISS:          0
cpu0_L1I WRITEBACK ACCESS:          0  HIT:          0  MISS:          0
cpu0_STLB TOTAL     ACCESS:      26076  HIT:      11928  MISS:      14148
cpu0_STLB LOAD      ACCESS:       3538  HIT:          0  MISS:       3538
cpu0_STLB RFO       ACCESS:      22538  HIT:      11928  MISS:      10610
cpu0_STLB PREFETCH  ACCESS:          0  HIT:          0  MISS:          0
cpu0_STLB WRITEBACK ACCESS:          0  HIT:          0  MISS:          0
cpu0_L1D TOTAL     ACCESS:    8670737  HIT:    7177172  MISS:    1493565
cpu0_L1D LOAD      ACCESS:    2409956  HIT:    2183657  MISS:     226299
cpu0_L1D RFO       ACCESS:    6247590  HIT:    4980331  MISS:    1267259
cpu0_L1D PREFETCH  ACCESS:          0  HIT:          0  MISS:          0
cpu0_L1D WRITEBACK ACCESS:          0  HIT:          0  MISS:          0
cpu0_L2C TOTAL     ACCESS:    2760823  HIT:    1835095  MISS:     925728
cpu0_L2C LOAD      ACCESS:     226299  HIT:          0  MISS:     226299
cpu0_L2C RFO       ACCESS:    1267259  HIT:     567849  MISS:     699410
cpu0_L2C PREFETCH  ACCESS:          0  HIT:          0  MISS:          0
cpu0_L2C WRITEBACK ACCESS:    1267258  HIT:    1267246  MISS:         12
LLC TOTAL     ACCESS:    1625303  HIT:     717741  MISS:     907562
LLC LOAD      ACCESS:     226299  HIT:          0  MISS:     226299
LLC RFO       ACCESS:     699408  HIT:      20526  MISS:     678882
LLC PREFETCH  ACCESS:          0  HIT:          0  MISS:          0
LLC WRITEBACK ACCESS:     699589  HIT:     697215  MISS:       2374
Heartbeat CPU 0 instructions: 94000001 cycles: 117294799 heartbeat IPC: 0.42208 cumulative IPC: 0.419929 (Simulation time: 1 hr 30 min 28 sec) 

Region of Interest Statistics
cpu0_DTLB TOTAL     ACCESS:    6126436  HIT:    6099128  MISS:      27308
cpu0_DTLB LOAD      ACCESS:    3236763  HIT:    3233058  MISS:       3705
cpu0_DTLB RFO       ACCESS:    2889673  HIT:    2866070  MISS:      23603
cpu0_DTLB PREFETCH  ACCESS:          0  HIT:          0  MISS:          0
cpu0_DTLB WRITEBACK ACCESS:          0  HIT:          0  MISS:          0
cpu0_ITLB TOTAL     ACCESS:     205841  HIT:     205841  MISS:          0
cpu0_ITLB LOAD      ACCESS:     205841  HIT:     205841  MISS:          0
cpu0_ITLB RFO       ACCESS:          0  HIT:          0  MISS:          0
cpu0_ITLB PREFETCH  ACCESS:          0  HIT:          0  MISS:          0
cpu0_ITLB WRITEBACK ACCESS:          0  HIT:          0  MISS:          0
cpu0_L1I TOTAL     ACCESS:     844443  HIT:     844443  MISS:          0
cpu0_L1I LOAD      ACCESS:     844443  HIT:     844443  MISS:          0
cpu0_L1I RFO       ACCESS:          0  HIT:          0  MISS:          0
cpu0_L1I PREFETCH  ACCESS:          0  HIT:          0  MISS:          0
cpu0_L1I WRITEBACK ACCESS:          0  HIT:          0  MISS:          0
cpu0_STLB TOTAL     ACCESS:      27308  HIT:      12492  MISS:      14816
cpu0_STLB LOAD      ACCESS:       3705  HIT:          0  MISS:       3705
cpu0_STLB RFO       ACCESS:      23603  HIT:      12492  MISS:      11111
cpu0_STLB PREFETCH  ACCESS:          0  HIT:          0  MISS:          0
cpu0_STLB WRITEBACK ACCESS:          0  HIT:          0  MISS:          0
cpu0_L1D TOTAL     ACCESS:    9083278  HIT:    7519178  MISS:    1564100
cpu0_L1D LOAD      ACCESS:    2524780  HIT:    2287794  MISS:     236986
cpu0_L1D RFO       ACCESS:    6544639  HIT:    5217532  MISS:    1327107
cpu0_L1D PREFETCH  ACCESS:          0  HIT:          0  MISS:          0
cpu0_L1D WRITEBACK ACCESS:          0  HIT:          0  MISS:          0
cpu0_L2C TOTAL     ACCESS:    2891204  HIT:    1921691  MISS:     969513
cpu0_L2C LOAD      ACCESS:     236986  HIT:          0  MISS:     236986
cpu0_L2C RFO       ACCESS:    1327107  HIT:     594599  MISS:     732508
cpu0_L2C PREFETCH  ACCESS:          0  HIT:          0  MISS:          0
cpu0_L2C WRITEBACK ACCESS:    1327104  HIT:    1327092  MISS:         12
LLC TOTAL     ACCESS:    1701846  HIT:     751535  MISS:     950311
LLC LOAD      ACCESS:     236986  HIT:          0  MISS:     236986
LLC RFO       ACCESS:     732506  HIT:      21562  MISS:     710944
LLC PREFETCH  ACCESS:          0  HIT:          0  MISS:          0
LLC WRITEBACK ACCESS:     732347  HIT:     729973  MISS:       2374
Heartbeat CPU 0 instructions: 96000004 cycles: 122037783 heartbeat IPC: 0.421676 cumulative IPC: 0.420004 (Simulation time: 1 hr 33 min 43 sec) 

Region of Interest Statistics
cpu0_DTLB TOTAL     ACCESS:    6404111  HIT:    6375571  MISS:      28540
cpu0_DTLB LOAD      ACCESS:    3383530  HIT:    3379658  MISS:       3872
cpu0_DTLB RFO       ACCESS:    3020581  HIT:    2995913  MISS:      24668
cpu0_DTLB PREFETCH  ACCESS:          0  HIT:          0  MISS:          0
cpu0_DTLB WRITEBACK ACCESS:          0  HIT:          0  MISS:          0
cpu0_ITLB TOTAL     ACCESS:     215159  HIT:     215159  MISS:          0
cpu0_ITLB LOAD      ACCESS:     215159  HIT:     215159  MISS:          0
cpu0_ITLB RFO       ACCESS:          0  HIT:          0  MISS:          0
cpu0_ITLB PREFETCH  ACCESS:          0  HIT:          0  MISS:          0
cpu0_ITLB WRITEBACK ACCESS:          0  HIT:          0  MISS:          0
cpu0_L1I TOTAL     ACCESS:     882583  HIT:     882583  MISS:          0
cpu0_L1I LOAD      ACCESS:     882583  HIT:     882583  MISS:          0
cpu0_L1I RFO       ACCESS:          0  HIT:          0  MISS:          0
cpu0_L1I PREFETCH  ACCESS:          0  HIT:          0  MISS:          0
cpu0_L1I WRITEBACK ACCESS:          0  HIT:          0  MISS:          0
cpu0_STLB TOTAL     ACCESS:      28540  HIT:      13056  MISS:      15484
cpu0_STLB LOAD      ACCESS:       3872  HIT:          0  MISS:       3872
cpu0_STLB RFO       ACCESS:      24668  HIT:      13056  MISS:      11612
cpu0_STLB PREFETCH  ACCESS:          0  HIT:          0  MISS:          0
cpu0_STLB WRITEBACK ACCESS:          0  HIT:          0  MISS:          0
cpu0_L1D TOTAL     ACCESS:    9495526  HIT:    7860851  MISS:    1634675
cpu0_L1D LOAD      ACCESS:    2639295  HIT:    2391616  MISS:     247679
cpu0_L1D RFO       ACCESS:    6841704  HIT:    5454715  MISS:    1386989
cpu0_L1D PREFETCH  ACCESS:          0  HIT:          0  MISS:          0
cpu0_L1D WRITEBACK ACCESS:          0  HIT:          0  MISS:          0
cpu0_L2C TOTAL     ACCESS:    3021663  HIT:    2008388  MISS:    1013275
cpu0_L2C LOAD      ACCESS:     247679  HIT:          0  MISS:     247679
cpu0_L2C RFO       ACCESS:    1386989  HIT:     621412  MISS:     765577
cpu0_L2C PREFETCH  ACCESS:          0  HIT:          0  MISS:          0
cpu0_L2C WRITEBACK ACCESS:    1386988  HIT:    1386976  MISS:         12
LLC TOTAL     ACCESS:    1778725  HIT:     785641  MISS:     993084
LLC LOAD      ACCESS:     247679  HIT:          0  MISS:     247679
LLC RFO       ACCESS:     765575  HIT:      22551  MISS:     743024
LLC PREFETCH  ACCESS:          0  HIT:          0  MISS:          0
LLC WRITEBACK ACCESS:     765464  HIT:     763090  MISS:       2374
Heartbeat CPU 0 instructions: 98000003 cycles: 126780850 heartbeat IPC: 0.421668 cumulative IPC: 0.420073 (Simulation time: 1 hr 36 min 59 sec) 

Region of Interest Statistics
cpu0_DTLB TOTAL     ACCESS:    6682075  HIT:    6652304  MISS:      29771
cpu0_DTLB LOAD      ACCESS:    3530545  HIT:    3526506  MISS:       4039
cpu0_DTLB RFO       ACCESS:    3151530  HIT:    3125798  MISS:      25732
cpu0_DTLB PREFETCH  ACCESS:          0  HIT:          0  MISS:          0
cpu0_DTLB WRITEBACK ACCESS:          0  HIT:          0  MISS:          0
cpu0_ITLB TOTAL     ACCESS:     224432  HIT:     224432  MISS:          0
cpu0_ITLB LOAD      ACCESS:     224432  HIT:     224432  MISS:          0
cpu0_ITLB RFO       ACCESS:          0  HIT:          0  MISS:          0
cpu0_ITLB PREFETCH  ACCESS:          0  HIT:          0  MISS:          0
cpu0_ITLB WRITEBACK ACCESS:          0  HIT:          0  MISS:          0
cpu0_L1I TOTAL     ACCESS:     920769  HIT:     920769  MISS:          0
cpu0_L1I LOAD      ACCESS:     920769  HIT:     920769  MISS:          0
cpu0_L1I RFO       ACCESS:          0  HIT:          0  MISS:          0
cpu0_L1I PREFETCH  ACCESS:          0  HIT:          0  MISS:          0
cpu0_L1I WRITEBACK ACCESS:          0  HIT:          0  MISS:          0
cpu0_STLB TOTAL     ACCESS:      29771  HIT:      13619  MISS:      16152
cpu0_STLB LOAD      ACCESS:       4039  HIT:          0  MISS:       4039
cpu0_STLB RFO       ACCESS:      25732  HIT:      13619  MISS:      12113
cpu0_STLB PREFETCH  ACCESS:          0  HIT:          0  MISS:          0
cpu0_STLB WRITEBACK ACCESS:          0  HIT:          0  MISS:          0
cpu0_L1D TOTAL     ACCESS:    9907949  HIT:    8202738  MISS:    1705211
cpu0_L1D LOAD      ACCESS:    2754005  HIT:    2495639  MISS:     258366
cpu0_L1D RFO       ACCESS:    7138749  HIT:    5691911  MISS:    1446838
cpu0_L1D PREFETCH  ACCESS:          0  HIT:          0  MISS:          0
cpu0_L1D WRITEBACK ACCESS:          0  HIT:          0  MISS:          0
cpu0_L2C TOTAL     ACCESS:    3152046  HIT:    2094884  MISS:    1057162
cpu0_L2C LOAD      ACCESS:     258366  HIT:          0  MISS:     258366
cpu0_L2C RFO       ACCESS:    1446838  HIT:     648061  MISS:     798777
cpu0_L2C PREFETCH  ACCESS:          0  HIT:          0  MISS:          0
cpu0_L2C WRITEBACK ACCESS:    1446835  HIT:    1446823  MISS:         12
LLC TOTAL     ACCESS:    1855855  HIT:     820018  MISS:    1035837
LLC LOAD      ACCESS:     258366  HIT:          0  MISS:     258366
LLC RFO       ACCESS:     798775  HIT:      23688  MISS:     775087
LLC PREFETCH  ACCESS:          0  HIT:          0  MISS:          0
LLC WRITEBACK ACCESS:     798707  HIT:     796330  MISS:       2377
Heartbeat CPU 0 instructions: 100000001 cycles: 131532455 heartbeat IPC: 0.42091 cumulative IPC: 0.420107 (Simulation time: 1 hr 40 min 14 sec) 

Region of Interest Statistics
cpu0_DTLB TOTAL     ACCESS:    6960014  HIT:    6929011  MISS:      31003
cpu0_DTLB LOAD      ACCESS:    3677535  HIT:    3673329  MISS:       4206
cpu0_DTLB RFO       ACCESS:    3282479  HIT:    3255682  MISS:      26797
cpu0_DTLB PREFETCH  ACCESS:          0  HIT:          0  MISS:          0
cpu0_DTLB WRITEBACK ACCESS:          0  HIT:          0  MISS:          0
cpu0_ITLB TOTAL     ACCESS:     233750  HIT:     233750  MISS:          0
cpu0_ITLB LOAD      ACCESS:     233750  HIT:     233750  MISS:          0
cpu0_ITLB RFO       ACCESS:          0  HIT:          0  MISS:          0
cpu0_ITLB PREFETCH  ACCESS:          0  HIT:          0  MISS:          0
cpu0_ITLB WRITEBACK ACCESS:          0  HIT:          0  MISS:          0
cpu0_L1I TOTAL     ACCESS:     958930  HIT:     958930  MISS:          0
cpu0_L1I LOAD      ACCESS:     958930  HIT:     958930  MISS:          0
cpu0_L1I RFO       ACCESS:          0  HIT:          0  MISS:          0
cpu0_L1I PREFETCH  ACCESS:          0  HIT:          0  MISS:          0
cpu0_L1I WRITEBACK ACCESS:          0  HIT:          0  MISS:          0
cpu0_STLB TOTAL     ACCESS:      31003  HIT:      14183  MISS:      16820
cpu0_STLB LOAD      ACCESS:       4206  HIT:          0  MISS:       4206
cpu0_STLB RFO       ACCESS:      26797  HIT:      14183  MISS:      12614
cpu0_STLB PREFETCH  ACCESS:          0  HIT:          0  MISS:          0
cpu0_STLB WRITEBACK ACCESS:          0  HIT:          0  MISS:          0
cpu0_L1D TOTAL     ACCESS:   10320362  HIT:    8544580  MISS:    1775782
cpu0_L1D LOAD      ACCESS:    2868694  HIT:    2599635  MISS:     269059
cpu0_L1D RFO       ACCESS:    7435805  HIT:    5929089  MISS:    1506716
cpu0_L1D PREFETCH  ACCESS:          0  HIT:          0  MISS:          0
cpu0_L1D WRITEBACK ACCESS:          0  HIT:          0  MISS:          0
cpu0_L2C TOTAL     ACCESS:    3282497  HIT:    2181683  MISS:    1100814
cpu0_L2C LOAD      ACCESS:     269059  HIT:          0  MISS:     269059
cpu0_L2C RFO       ACCESS:    1506717  HIT:     674981  MISS:     831736
cpu0_L2C PREFETCH  ACCESS:          0  HIT:          0  MISS:          0
cpu0_L2C WRITEBACK ACCESS:    1506714  HIT:    1506702  MISS:         12
LLC TOTAL     ACCESS:    1932505  HIT:     853862  MISS:    1078643
LLC LOAD      ACCESS:     269059  HIT:          0  MISS:     269059
LLC RFO       ACCESS:     831734  HIT:      24572  MISS:     807162
LLC PREFETCH  ACCESS:          0  HIT:          0  MISS:          0
LLC WRITEBACK ACCESS:     831705  HIT:     829290  MISS:       2415
Heartbeat CPU 0 instructions: 102000001 cycles: 136273908 heartbeat IPC: 0.421812 cumulative IPC: 0.420172 (Simulation time: 1 hr 43 min 33 sec) 

Region of Interest Statistics
cpu0_DTLB TOTAL     ACCESS:    7238110  HIT:    7205876  MISS:      32234
cpu0_DTLB LOAD      ACCESS:    3824722  HIT:    3820349  MISS:       4373
cpu0_DTLB RFO       ACCESS:    3413388  HIT:    3385527  MISS:      27861
cpu0_DTLB PREFETCH  ACCESS:          0  HIT:          0  MISS:          0
cpu0_DTLB WRITEBACK ACCESS:          0  HIT:          0  MISS:          0
cpu0_ITLB TOTAL     ACCESS:     243030  HIT:     243030  MISS:          0
cpu0_ITLB LOAD      ACCESS:     243030  HIT:     243030  MISS:          0
cpu0_ITLB RFO       ACCESS:          0  HIT:          0  MISS:          0
cpu0_ITLB PREFETCH  ACCESS:          0  HIT:          0  MISS:          0
cpu0_ITLB WRITEBACK ACCESS:          0  HIT:          0  MISS:          0
cpu0_L1I TOTAL     ACCESS:     997164  HIT:     997164  MISS:          0
cpu0_L1I LOAD      ACCESS:     997164  HIT:     997164  MISS:          0
cpu0_L1I RFO       ACCESS:          0  HIT:          0  MISS:          0
cpu0_L1I PREFETCH  ACCESS:          0  HIT:          0  MISS:          0
cpu0_L1I WRITEBACK ACCESS:          0  HIT:          0  MISS:          0
cpu0_STLB TOTAL     ACCESS:      32234  HIT:      14746  MISS:      17488
cpu0_STLB LOAD      ACCESS:       4373  HIT:          0  MISS:       4373
cpu0_STLB RFO       ACCESS:      27861  HIT:      14746  MISS:      13115
cpu0_STLB PREFETCH  ACCESS:          0  HIT:          0  MISS:          0
cpu0_STLB WRITEBACK ACCESS:          0  HIT:          0  MISS:          0
cpu0_L1D TOTAL     ACCESS:   10732989  HIT:    8886655  MISS:    1846334
cpu0_L1D LOAD      ACCESS:    2983582  HIT:    2703833  MISS:     279749
cpu0_L1D RFO       ACCESS:    7732876  HIT:    6166298  MISS:    1566578
cpu0_L1D PREFETCH  ACCESS:          0  HIT:          0  MISS:          0
cpu0_L1D WRITEBACK ACCESS:          0  HIT:          0  MISS:          0
cpu0_L2C TOTAL     ACCESS:    3412911  HIT:    2268635  MISS:    1144276
cpu0_L2C LOAD      ACCESS:     279749  HIT:          0  MISS:     279749
cpu0_L2C RFO       ACCESS:    1566578  HIT:     702070  MISS:     864508
cpu0_L2C PREFETCH  ACCESS:          0  HIT:          0  MISS:          0
cpu0_L2C WRITEBACK ACCESS:    1566577  HIT:    1566565  MISS:         12
LLC TOTAL     ACCESS:    2008759  HIT:     887086  MISS:    1121673
LLC LOAD      ACCESS:     279749  HIT:          0  MISS:     279749
LLC RFO       ACCESS:     864507  HIT:      25275  MISS:     839232
LLC PREFETCH  ACCESS:          0  HIT:          0  MISS:          0
LLC WRITEBACK ACCESS:     864496  HIT:     861811  MISS:       2685
Heartbeat CPU 0 instructions: 104000003 cycles: 141030303 heartbeat IPC: 0.420487 cumulative IPC: 0.420184 (Simulation time: 1 hr 46 min 47 sec) 

Region of Interest Statistics
cpu0_DTLB TOTAL     ACCESS:    7516036  HIT:    7482570  MISS:      33466
cpu0_DTLB LOAD      ACCESS:    3971758  HIT:    3967218  MISS:       4540
cpu0_DTLB RFO       ACCESS:    3544278  HIT:    3515352  MISS:      28926
cpu0_DTLB PREFETCH  ACCESS:          0  HIT:          0  MISS:          0
cpu0_DTLB WRITEBACK ACCESS:          0  HIT:          0  MISS:          0
cpu0_ITLB TOTAL     ACCESS:     252304  HIT:     252304  MISS:          0
cpu0_ITLB LOAD      ACCESS:     252304  HIT:     252304  MISS:          0
cpu0_ITLB RFO       ACCESS:          0  HIT:          0  MISS:          0
cpu0_ITLB PREFETCH  ACCESS:          0  HIT:          0  MISS:          0
cpu0_ITLB WRITEBACK ACCESS:          0  HIT:          0  MISS:          0
cpu0_L1I TOTAL     ACCESS:    1035366  HIT:    1035366  MISS:          0
cpu0_L1I LOAD      ACCESS:    1035366  HIT:    1035366  MISS:          0
cpu0_L1I RFO       ACCESS:          0  HIT:          0  MISS:          0
cpu0_L1I PREFETCH  ACCESS:          0  HIT:          0  MISS:          0
cpu0_L1I WRITEBACK ACCESS:          0  HIT:          0  MISS:          0
cpu0_STLB TOTAL     ACCESS:      33466  HIT:      15310  MISS:      18156
cpu0_STLB LOAD      ACCESS:       4540  HIT:          0  MISS:       4540
cpu0_STLB RFO       ACCESS:      28926  HIT:      15310  MISS:      13616
cpu0_STLB PREFETCH  ACCESS:          0  HIT:          0  MISS:          0
cpu0_STLB WRITEBACK ACCESS:          0  HIT:          0  MISS:          0
cpu0_L1D TOTAL     ACCESS:   11145430  HIT:    9228557  MISS:    1916873
cpu0_L1D LOAD      ACCESS:    3098328  HIT:    2807892  MISS:     290436
cpu0_L1D RFO       ACCESS:    8029903  HIT:    6403473  MISS:    1626430
cpu0_L1D PREFETCH  ACCESS:          0  HIT:          0  MISS:          0
cpu0_L1D WRITEBACK ACCESS:          0  HIT:          0  MISS:          0
cpu0_L2C TOTAL     ACCESS:    3543299  HIT:    2355353  MISS:    1187946
cpu0_L2C LOAD      ACCESS:     290436  HIT:          0  MISS:     290436
cpu0_L2C RFO       ACCESS:    1626430  HIT:     728939  MISS:     897491
cpu0_L2C PREFETCH  ACCESS:          0  HIT:          0  MISS:          0
cpu0_L2C WRITEBACK ACCESS:    1626426  HIT:    1626414  MISS:         12
LLC TOTAL     ACCESS:    2085329  HIT:     920904  MISS:    1164425
LLC LOAD      ACCESS:     290436  HIT:          0  MISS:     290436
LLC RFO       ACCESS:     897489  HIT:      26192  MISS:     871297
LLC PREFETCH  ACCESS:          0  HIT:          0  MISS:          0
LLC WRITEBACK ACCESS:     897397  HIT:     894712  MISS:       2685
Heartbeat CPU 0 instructions: 106000000 cycles: 146255217 heartbeat IPC: 0.382781 cumulative IPC: 0.418723 (Simulation time: 1 hr 50 min 20 sec) 

Region of Interest Statistics
cpu0_DTLB TOTAL     ACCESS:    7801791  HIT:    7766949  MISS:      34842
cpu0_DTLB LOAD      ACCESS:    4120135  HIT:    4115407  MISS:       4728
cpu0_DTLB RFO       ACCESS:    3681656  HIT:    3651542  MISS:      30114
cpu0_DTLB PREFETCH  ACCESS:          0  HIT:          0  MISS:          0
cpu0_DTLB WRITEBACK ACCESS:          0  HIT:          0  MISS:          0
cpu0_ITLB TOTAL     ACCESS:     264261  HIT:     264261  MISS:          0
cpu0_ITLB LOAD      ACCESS:     264261  HIT:     264261  MISS:          0
cpu0_ITLB RFO       ACCESS:          0  HIT:          0  MISS:          0
cpu0_ITLB PREFETCH  ACCESS:          0  HIT:          0  MISS:          0
cpu0_ITLB WRITEBACK ACCESS:          0  HIT:          0  MISS:          0
cpu0_L1I TOTAL     ACCESS:    1075289  HIT:    1075289  MISS:          0
cpu0_L1I LOAD      ACCESS:    1075289  HIT:    1075289  MISS:          0
cpu0_L1I RFO       ACCESS:          0  HIT:          0  MISS:          0
cpu0_L1I PREFETCH  ACCESS:          0  HIT:          0  MISS:          0
cpu0_L1I WRITEBACK ACCESS:          0  HIT:          0  MISS:          0
cpu0_STLB TOTAL     ACCESS:      34842  HIT:      15938  MISS:      18904
cpu0_STLB LOAD      ACCESS:       4728  HIT:          0  MISS:       4728
cpu0_STLB RFO       ACCESS:      30114  HIT:      15938  MISS:      14176
cpu0_STLB PREFETCH  ACCESS:          0  HIT:          0  MISS:          0
cpu0_STLB WRITEBACK ACCESS:          0  HIT:          0  MISS:          0
cpu0_L1D TOTAL     ACCESS:   11563734  HIT:    9568059  MISS:    1995675
cpu0_L1D LOAD      ACCESS:    3212794  HIT:    2910417  MISS:     302377
cpu0_L1D RFO       ACCESS:    8332993  HIT:    6639704  MISS:    1693289
cpu0_L1D PREFETCH  ACCESS:          0  HIT:          0  MISS:          0
cpu0_L1D WRITEBACK ACCESS:          0  HIT:          0  MISS:          0
cpu0_L2C TOTAL     ACCESS:    3688962  HIT:    2452132  MISS:    1236830
cpu0_L2C LOAD      ACCESS:     302377  HIT:          0  MISS:     302377
cpu0_L2C RFO       ACCESS:    1693290  HIT:     758864  MISS:     934426
cpu0_L2C PREFETCH  ACCESS:          0  HIT:          0  MISS:          0
cpu0_L2C WRITEBACK ACCESS:    1693286  HIT:    1693268  MISS:         18
LLC TOTAL     ACCESS:    2171490  HIT:     959115  MISS:    1212375
[...]
LLC PREFETCH  ACCESS:          0  HIT:          0  MISS:          0
LLC WRITEBACK ACCESS:   53625447  HIT:   53544072  MISS:      81375
Heartbeat CPU 0 instructions: 1550000002 cycles: 6970587977 heartbeat IPC: 0.213939 cumulative IPC: 0.215577 (Simulation time: 28 hr 2 min 47 sec) 

Region of Interest Statistics
cpu0_DTLB TOTAL     ACCESS:  264988952  HIT:  262988782  MISS:    2000170
cpu0_DTLB LOAD      ACCESS:  118558804  HIT:  118287388  MISS:     271416
cpu0_DTLB RFO       ACCESS:  146430148  HIT:  144701394  MISS:    1728754
cpu0_DTLB PREFETCH  ACCESS:          0  HIT:          0  MISS:          0
cpu0_DTLB WRITEBACK ACCESS:          0  HIT:          0  MISS:          0
cpu0_ITLB TOTAL     ACCESS:   27368057  HIT:   27368057  MISS:          0
cpu0_ITLB LOAD      ACCESS:   27368057  HIT:   27368057  MISS:          0
cpu0_ITLB RFO       ACCESS:          0  HIT:          0  MISS:          0
cpu0_ITLB PREFETCH  ACCESS:          0  HIT:          0  MISS:          0
cpu0_ITLB WRITEBACK ACCESS:          0  HIT:          0  MISS:          0
cpu0_L1I TOTAL     ACCESS:   33158430  HIT:   33158430  MISS:          0
cpu0_L1I LOAD      ACCESS:   33158430  HIT:   33158430  MISS:          0
cpu0_L1I RFO       ACCESS:          0  HIT:          0  MISS:          0
cpu0_L1I PREFETCH  ACCESS:          0  HIT:          0  MISS:          0
cpu0_L1I WRITEBACK ACCESS:          0  HIT:          0  MISS:          0
cpu0_STLB TOTAL     ACCESS:    2000170  HIT:     914860  MISS:    1085310
cpu0_STLB LOAD      ACCESS:     271416  HIT:          2  MISS:     271414
cpu0_STLB RFO       ACCESS:    1728754  HIT:     914858  MISS:     813896
cpu0_STLB PREFETCH  ACCESS:          0  HIT:          0  MISS:          0
cpu0_STLB WRITEBACK ACCESS:          0  HIT:          0  MISS:          0
cpu0_L1D TOTAL     ACCESS:  353337049  HIT:  238757784  MISS:  114579265
cpu0_L1D LOAD      ACCESS:   84392098  HIT:   67030657  MISS:   17361441
cpu0_L1D RFO       ACCESS:  267922605  HIT:  170705263  MISS:   97217342
cpu0_L1D PREFETCH  ACCESS:          0  HIT:          0  MISS:          0
cpu0_L1D WRITEBACK ACCESS:          0  HIT:          0  MISS:          0
cpu0_L2C TOTAL     ACCESS:  211796598  HIT:  140737233  MISS:   71059365
cpu0_L2C LOAD      ACCESS:   17361441  HIT:        474  MISS:   17360967
cpu0_L2C RFO       ACCESS:   97217334  HIT:   43522866  MISS:   53694468
cpu0_L2C PREFETCH  ACCESS:          0  HIT:          0  MISS:          0
cpu0_L2C WRITEBACK ACCESS:   97217341  HIT:   97213893  MISS:       3448
LLC TOTAL     ACCESS:  124751442  HIT:   55230671  MISS:   69520771
LLC LOAD      ACCESS:   17360967  HIT:        401  MISS:   17360566
LLC RFO       ACCESS:   53692197  HIT:    1613863  MISS:   52078334
LLC PREFETCH  ACCESS:          0  HIT:          0  MISS:          0
LLC WRITEBACK ACCESS:   53697796  HIT:   53616406  MISS:      81390
Finished CPU 0 instructions: 1500000000 cycles: 6958072855 cumulative IPC: 0.215577 (Simulation time: 28 hr 2 min 47 sec) 

ChampSim completed all CPUs

Region of Interest Statistics

CPU 0 cumulative IPC: 0.215577 instructions: 1500000000 cycles: 6958072855
cpu0_DTLB TOTAL     ACCESS:  264988952  HIT:  262988782  MISS:    2000170
cpu0_DTLB LOAD      ACCESS:  118558804  HIT:  118287388  MISS:     271416
cpu0_DTLB RFO       ACCESS:  146430148  HIT:  144701394  MISS:    1728754
cpu0_DTLB PREFETCH  ACCESS:          0  HIT:          0  MISS:          0
cpu0_DTLB WRITEBACK ACCESS:          0  HIT:          0  MISS:          0
cpu0_DTLB TRANSLATION ACCESS:          0  HIT:          0  MISS:          0
cpu0_DTLB PREFETCH  REQUESTED:          0  ISSUED:          0  USEFUL:          0  USELESS:          0
cpu0_DTLB AVERAGE MISS LATENCY: 509.236 cycles
cpu0_ITLB TOTAL     ACCESS:   27368057  HIT:   27368057  MISS:          0
cpu0_ITLB LOAD      ACCESS:   27368057  HIT:   27368057  MISS:          0
cpu0_ITLB RFO       ACCESS:          0  HIT:          0  MISS:          0
cpu0_ITLB PREFETCH  ACCESS:          0  HIT:          0  MISS:          0
cpu0_ITLB WRITEBACK ACCESS:          0  HIT:          0  MISS:          0
cpu0_ITLB TRANSLATION ACCESS:          0  HIT:          0  MISS:          0
cpu0_ITLB PREFETCH  REQUESTED:          0  ISSUED:          0  USEFUL:          0  USELESS:          0
cpu0_ITLB AVERAGE MISS LATENCY: -nan cycles
cpu0_L1I TOTAL     ACCESS:   33158430  HIT:   33158430  MISS:          0
cpu0_L1I LOAD      ACCESS:   33158430  HIT:   33158430  MISS:          0
cpu0_L1I RFO       ACCESS:          0  HIT:          0  MISS:          0
cpu0_L1I PREFETCH  ACCESS:          0  HIT:          0  MISS:          0
cpu0_L1I WRITEBACK ACCESS:          0  HIT:          0  MISS:          0
cpu0_L1I TRANSLATION ACCESS:          0  HIT:          0  MISS:          0
cpu0_L1I PREFETCH  REQUESTED:          0  ISSUED:          0  USEFUL:          0  USELESS:          0
cpu0_L1I AVERAGE MISS LATENCY: -nan cycles
cpu0_STLB TOTAL     ACCESS:    2000170  HIT:     914860  MISS:    1085310
cpu0_STLB LOAD      ACCESS:     271416  HIT:          2  MISS:     271414
cpu0_STLB RFO       ACCESS:    1728754  HIT:     914858  MISS:     813896
cpu0_STLB PREFETCH  ACCESS:          0  HIT:          0  MISS:          0
cpu0_STLB WRITEBACK ACCESS:          0  HIT:          0  MISS:          0
cpu0_STLB TRANSLATION ACCESS:          0  HIT:          0  MISS:          0
cpu0_STLB PREFETCH  REQUESTED:          0  ISSUED:          0  USEFUL:          0  USELESS:          0
cpu0_STLB AVERAGE MISS LATENCY: 921.773 cycles
cpu0_L1D TOTAL     ACCESS:  353337049  HIT:  238757784  MISS:  114579265
cpu0_L1D LOAD      ACCESS:   84392098  HIT:   67030657  MISS:   17361441
cpu0_L1D RFO       ACCESS:  267922605  HIT:  170705263  MISS:   97217342
cpu0_L1D PREFETCH  ACCESS:          0  HIT:          0  MISS:          0
cpu0_L1D WRITEBACK ACCESS:          0  HIT:          0  MISS:          0
cpu0_L1D TRANSLATION ACCESS:    1022346  HIT:    1021864  MISS:        482
cpu0_L1D PREFETCH  REQUESTED:          0  ISSUED:          0  USEFUL:          0  USELESS:          0
cpu0_L1D AVERAGE MISS LATENCY: 752.406 cycles
cpu0_L2C TOTAL     ACCESS:  211796598  HIT:  140737233  MISS:   71059365
cpu0_L2C LOAD      ACCESS:   17361441  HIT:        474  MISS:   17360967
cpu0_L2C RFO       ACCESS:   97217334  HIT:   43522866  MISS:   53694468
cpu0_L2C PREFETCH  ACCESS:          0  HIT:          0  MISS:          0
cpu0_L2C WRITEBACK ACCESS:   97217341  HIT:   97213893  MISS:       3448
cpu0_L2C TRANSLATION ACCESS:        482  HIT:          0  MISS:        482
cpu0_L2C PREFETCH  REQUESTED:          0  ISSUED:          0  USEFUL:          0  USELESS:          0
cpu0_L2C AVERAGE MISS LATENCY: 1195.39 cycles
LLC TOTAL     ACCESS:  124751442  HIT:   55230671  MISS:   69520771
LLC LOAD      ACCESS:   17360967  HIT:        401  MISS:   17360566
LLC RFO       ACCESS:   53692197  HIT:    1613863  MISS:   52078334
LLC PREFETCH  ACCESS:          0  HIT:          0  MISS:          0
LLC WRITEBACK ACCESS:   53697796  HIT:   53616406  MISS:      81390
LLC TRANSLATION ACCESS:        482  HIT:          1  MISS:        481
LLC PREFETCH  REQUESTED:          0  ISSUED:          0  USEFUL:          0  USELESS:          0
LLC AVERAGE MISS LATENCY: 1200.38 cycles
~~~~~~~~~~Reuse Distance Profiler output~~~~~~~~~~
0	63552480	6902688
1	34112784	6276000
2	16346096	4691424
3	9214928	3932368
4	12443616	4443760
5	9917312	5153808
6	1827712	1432736
7	2064480	1526768
8	1615552	309456
9	4061712	1823520
10	2235552	1563568
11	5536688	2453424
12	2126432	1183648
13	942432	212992
14	477888	111216
15	350688	57312
16	320464	51936
17	444096	135376
18	970960	680672
19	800416	469616
20	3829376	1219456
21	898208	130592
22	3073616	1115344
23	2616304	78336
24	2920128	1245696
25	742288	77152
26	495184	131456
27	537376	66240
28	860736	47888
29	974576	118048
30	1195888	146448
31	1522416	711312
32	2151104	1415712
33	4547632	3568864
34	2335312	1068448
35	1798768	598464
36	1371728	423920
37	1325568	775136
38	711776	382432
39	491008	111424
40	393536	102608
41	376960	77168
42	401648	83376
43	389264	138176
44	548960	203824
45	868880	76128
46	1463216	1004064
47	965328	251328
48	508336	104704
49	1639936	65680
50	264608	54336
51	305280	122112
52	376400	258320
53	1878416	700640
54	405696	257488
55	616128	246288
56	288416	147040
57	534000	328720
58	731968	116416
59	577344	65792
60	390464	86288
61	581424	46400
62	342240	40816
63	204656	54560
64	246336	90752
66	671904	554400
68	474624	384752
70	343360	225152
72	319168	94304
74	292432	65104
76	267792	158368
78	337200	196896
80	520704	419824
82	548880	398288
84	884016	223504
86	701600	174096
88	1000560	128960
90	1145040	237264
92	2160704	1153504
94	1857584	633040
96	1288256	265776
98	1421184	817504
100	1140032	313952
102	665504	162432
104	231616	80656
106	271008	69808
108	235280	75872
110	282048	97360
112	189408	57424
114	192176	49104
116	182016	52672
118	182928	46784
120	117040	42176
122	107792	46288
124	107088	30208
126	122576	29600
128	163376	45264
132	117824	40880
136	108144	40752
140	82592	34528
144	95008	29648
148	61664	27088
152	74160	23376
156	98768	21328
160	117488	19232
164	85216	17920
168	70224	15760
172	156144	17488
176	1064144	15456
180	792800	13088
184	686816	9568
188	1442816	8880
192	884144	7536
196	663888	7648
200	341776	7056
204	41088	6496
208	17616	6496
212	16144	7168
216	30240	8080
220	43872	7520
224	40848	7712
228	34400	7344
232	31968	7424
236	31136	8224
240	33264	8480
244	29504	8448
248	25712	8016
252	21184	8864
256	72464	18224
264	79264	18352
272	68752	23040
280	77952	24352
288	61168	22224
296	69984	22640
304	93168	21760
312	74304	24944
320	79776	27424
328	66048	27024
336	55440	24912
344	87216	23088
352	73024	24528
360	74880	26992
368	66544	24608
376	42720	21104
384	63392	18288
392	67600	17824
400	58064	18048
408	53344	16064
416	33312	14416
424	32992	10784
432	44416	9952
440	37808	10144
448	40976	9520
456	25488	7712
464	15488	6160
472	19392	5008
480	19120	5504
488	21136	4944
496	16912	4352
504	7760	3184
512	10656	4816
528	14304	4128
544	8256	3040
560	4528	1872
576	5904	1744
592	5664	2128
608	4992	1744
624	6112	1904
640	4672	1776
656	5808	1616
672	6320	1904
688	4496	1696
704	4800	1456
720	4448	1232
736	3200	1120
752	3808	944
768	2800	944
784	1840	560
800	2352	640
816	1328	496
832	1648	432
848	1552	448
864	1120	384
880	1056	240
896	944	192
912	720	176
928	672	176
944	512	144
960	336	112
976	448	144
992	224	80
1008	240	80
1024	512	128
1056	720	224
1088	400	208
1120	240	112
1152	368	96
1184	160	80
1216	96	48
1248	144	80
1280	96	80
1312	48	16
1344	32	0
1376	16	0
1408	48	0
1440	0	0
1472	16	16
1504	16	0
1536	16	16
1568	0	0
1600	0	0
1632	0	0
1664	0	0
1696	0	0
1728	0	0
1760	0	0
1792	0	0
1824	0	0
1856	0	0
1888	0	0
1920	0	0
1952	0	0
1984	0	0
2016	0	0
2048	0	0
2112	0	0
2176	0	0
2240	0	0
2304	0	0
2368	0	0
2432	0	0
2496	0	0
2560	0	0
2624	0	0
2688	0	0
2752	0	0
2816	0	0
2880	0	0
2944	0	0
3008	0	0
3072	0	0
3136	0	0
3200	0	0
3264	0	0
3328	0	0
3392	0	0
3456	0	0
3520	0	0
3584	0	0
3648	0	0
3712	0	0
3776	0	0
3840	0	0
3904	0	0
3968	0	0
4032	144	0
4096	163296	0
4224	32960	0
4352	3680	0
4480	5440	0
4608	3440	0
4736	2976	0
4864	3808	0
4992	3376	0
5120	3168	0
5248	3584	0
5376	5552	0
5504	5264	0
5632	6528	0
5760	9344	0
5888	13616	0
6016	21680	0
6144	28720	0
6272	42544	0
6400	57648	0
6528	75424	0
6656	88128	0
6784	108560	0
6912	142160	0
7040	192160	0
7168	232080	0
7296	284960	0
7424	337952	0
7552	410112	0
7680	480704	0
7808	560432	0
7936	631488	0
8064	731984	0
8192	1725296	0
8448	2090912	608
8704	2436352	0
8960	2661136	48
9216	2832480	0
9472	2869616	0
9728	2826880	0
9984	2584128	0
10240	2349728	0
10496	2022080	0
10752	1705088	0
11008	1363440	0
11264	1047952	0
11520	770496	0
11776	567168	0
12032	401632	0
12288	295040	0
12544	212512	0
12800	156368	0
13056	137840	0
13312	118960	0
13568	108544	0
13824	113456	0
14080	114128	0
14336	115744	0
14592	122576	0
14848	125568	0
15104	136368	0
15360	145872	0
15616	153280	0
15872	168992	0
16128	181776	0
16384	430320	0
16896	537408	0
17408	629888	0
17920	658816	0
18432	687200	0
18944	1336752	0
19456	1046992	0
19968	563680	0
20480	435568	0
20992	378144	0
21504	319680	0
22016	252048	0
22528	190368	0
23040	143296	0
23552	98800	0
24064	70144	0
24576	49552	0
25088	35536	0
25600	27072	0
26112	23360	0
26624	19440	0
27136	17968	0
27648	16624	0
28160	16784	0
28672	15760	0
29184	15216	0
29696	13872	0
30208	13344	0
30720	13056	0
31232	12416	0
31744	12464	0
32256	12560	0
32768	25712	0
33792	34272	0
34816	37600	0
35840	27472	0
36864	16096	0
37888	126192	0
38912	93552	0
39936	12912	0
40960	0	0
41984	0	0
43008	0	0
44032	0	0
45056	0	0
46080	0	0
47104	0	0
48128	0	0
49152	0	0
50176	0	0
51200	0	0
52224	0	0
53248	0	0
54272	0	0
55296	0	0
56320	0	0
57344	0	0
58368	0	0
59392	0	0
60416	0	0
61440	0	0
62464	0	0
63488	0	0
64512	0	0
65536	0	0
67584	0	0
69632	0	0
71680	0	0
73728	0	0
75776	0	0
77824	0	0
79872	0	0
81920	0	0
83968	0	0
86016	0	0
88064	0	0
90112	0	0
92160	0	0
94208	0	0
96256	0	0
98304	0	0
100352	0	0
102400	0	0
104448	0	0
106496	0	0
108544	0	0
110592	0	0
112640	0	0
114688	0	0
116736	0	0
118784	0	0
120832	0	0
122880	0	0
124928	0	0
126976	0	0
129024	0	0
131072	0	0
135168	0	0
139264	0	0
143360	0	0
147456	0	0
151552	0	0
155648	0	0
159744	0	0
163840	0	0
167936	0	0
172032	0	0
176128	0	0
180224	0	0
184320	0	0
188416	0	0
192512	0	0
196608	0	0
200704	0	0
204800	0	0
208896	0	0
212992	0	0
217088	0	0
221184	0	0
225280	0	0
229376	0	0
233472	0	0
237568	0	0
241664	0	0
245760	0	0
249856	0	0
253952	0	0
258048	0	0
262144	0	0
270336	0	0
278528	0	0
286720	0	0
294912	0	0
303104	0	0
311296	0	0
319488	0	0
327680	0	0
335872	0	0
344064	0	0
352256	0	0
360448	0	0
368640	0	0
376832	0	0
385024	0	0
393216	0	0
401408	0	0
409600	0	0
417792	0	0
425984	0	0
434176	0	0
442368	0	0
450560	0	0
458752	0	0
466944	0	0
475136	0	0
483328	0	0
491520	0	0
499712	0	0
507904	0	0
516096	0	0
524288	0	0
540672	0	0
557056	0	0
573440	0	0
589824	0	0
606208	0	0
622592	0	0
638976	0	0
655360	0	0
671744	0	0
688128	0	0
704512	0	0
720896	0	0
737280	0	0
753664	0	0
770048	0	0
786432	0	0
802816	0	0
819200	0	0
835584	0	0
851968	0	0
868352	0	0
884736	0	0
901120	0	0
917504	0	0
933888	0	0
950272	0	0
966656	0	0
983040	0	0
999424	0	0
1015808	0	0
1032192	0	0
1048576	0	0
1081344	0	0
1114112	0	0
1146880	0	0
1179648	0	0
1212416	0	0
1245184	0	0
1277952	0	0
1310720	0	0
1343488	0	0
1376256	0	0
1409024	0	0
1441792	0	0
1474560	0	0
1507328	1600	0
1540096	37328	0
1572864	173184	0
1605632	288096	0
1638400	178416	0
1671168	237696	0
1703936	138624	0
1736704	99824	0
1769472	100384	0
1802240	126064	0
1835008	138704	0
1867776	403984	0
1900544	2647760	0
1933312	7105328	0
1966080	11759248	0
1998848	6595744	0
2031616	3144256	0
2064384	106064	0
2097152	51424	0
2162688	36464	0
2228224	35888	0
2293760	33264	0
2359296	36544	0
2424832	40032	0
2490368	41264	0
2555904	32544	0
2621440	30352	0
2686976	28336	0
2752512	27600	0
2818048	26656	0
2883584	38496	0
2949120	23488	0
3014656	24144	0
3080192	23136	0
3145728	20656	0
3211264	21472	0
3276800	22272	0
3342336	21984	0
3407872	22416	0
3473408	47504	0
3538944	42304	0
3604480	37360	0
3670016	36912	0
3735552	160320	0
3801088	378640	0
3866624	311792	0
3932160	123808	0
3997696	0	0
4063232	0	0
4128768	0	0
4194304	0	0
4325376	0	0
4456448	0	0
4587520	0	0
4718592	0	0
4849664	0	0
4980736	0	0
5111808	0	0
5242880	0	0
5373952	0	0
5505024	0	0
5636096	0	0
5767168	0	0
5898240	0	0
6029312	0	0
6160384	0	0
6291456	0	0
6422528	0	0
6553600	0	0
6684672	0	0
6815744	0	0
6946816	0	0
7077888	0	0
7208960	0	0
7340032	0	0
7471104	0	0
7602176	0	0
7733248	0	0
7864320	0	0
7995392	0	0
8126464	0	0
8257536	0	0
8388608	0	0
8650752	0	0
8912896	0	0
9175040	0	0
9437184	0	0
9699328	0	0
9961472	0	0
10223616	0	0
10485760	0	0
10747904	0	0
11010048	0	0
11272192	0	0
11534336	0	0
11796480	0	0
12058624	0	0
12320768	0	0
12582912	0	0
12845056	0	0
13107200	0	0
13369344	0	0
13631488	0	0
13893632	0	0
14155776	0	0
14417920	0	0
14680064	0	0
14942208	0	0
15204352	0	0
15466496	0	0
15728640	0	0
15990784	0	0
16252928	0	0
16515072	0	0
16777216	0	0
17301504	0	0
17825792	0	0
18350080	0	0
18874368	0	0
19398656	0	0
19922944	0	0
20447232	0	0
20971520	0	0
21495808	0	0
22020096	0	0
22544384	0	0
23068672	0	0
23592960	0	0
24117248	0	0
24641536	0	0
25165824	0	0
25690112	0	0
26214400	0	0
26738688	0	0
27262976	0	0
27787264	0	0
28311552	0	0
28835840	0	0
29360128	0	0
29884416	0	0
30408704	0	0
30932992	0	0
31457280	0	0
31981568	0	0
32505856	0	0
33030144	0	0
33554432	0	0
34603008	0	0
35651584	0	0
36700160	0	0
37748736	0	0
38797312	0	0
39845888	0	0
40894464	0	0
41943040	0	0
42991616	0	0
44040192	0	0
45088768	0	0
46137344	0	0
47185920	0	0
48234496	0	0
49283072	0	0
50331648	0	0
51380224	0	0
52428800	0	0
53477376	0	0
54525952	0	0
55574528	0	0
56623104	0	0
57671680	0	0
58720256	0	0
59768832	0	0
60817408	0	0
61865984	0	0
62914560	0	0
63963136	0	0
65011712	0	0
66060288	0	0
67108864	0	0
69206016	0	0
71303168	0	0
73400320	0	0
75497472	0	0
77594624	0	0
79691776	0	0
81788928	0	0
83886080	0	0
85983232	0	0
88080384	0	0
90177536	0	0
92274688	0	0
94371840	0	0
96468992	0	0
98566144	0	0
100663296	0	0
102760448	0	0
104857600	0	0
106954752	0	0
109051904	0	0
111149056	0	0
113246208	0	0
115343360	0	0
117440512	0	0
119537664	0	0
121634816	0	0
123731968	0	0
125829120	0	0
127926272	0	0
130023424	0	0
132120576	0	0
134217728	0	0
138412032	0	0
142606336	0	0
146800640	0	0
150994944	0	0
155189248	0	0
159383552	0	0
163577856	0	0
167772160	0	0
171966464	0	0
176160768	0	0
180355072	0	0
184549376	0	0
188743680	0	0
192937984	0	0
197132288	0	0
201326592	0	0
205520896	0	0
209715200	0	0
213909504	0	0
218103808	0	0
222298112	0	0
226492416	0	0
230686720	0	0
234881024	0	0
239075328	0	0
243269632	0	0
247463936	0	0
251658240	0	0
255852544	0	0
260046848	0	0
264241152	0	0
268435456	0	0
276824064	0	0
285212672	0	0
293601280	0	0
301989888	0	0
310378496	0	0
318767104	0	0
327155712	0	0
335544320	0	0
343932928	0	0
352321536	0	0
360710144	0	0
369098752	0	0
377487360	0	0
385875968	0	0
394264576	0	0
402653184	0	0
411041792	0	0
419430400	0	0
427819008	0	0
436207616	0	0
444596224	0	0
452984832	0	0
461373440	0	0
469762048	0	0
478150656	0	0
486539264	0	0
494927872	0	0
503316480	0	0
511705088	0	0
520093696	0	0
528482304	0	0
536870912	0	0
553648128	0	0
570425344	0	0
587202560	0	0
603979776	0	0
620756992	0	0
637534208	0	0
654311424	0	0
671088640	0	0
687865856	0	0
704643072	0	0
721420288	0	0
738197504	0	0
754974720	0	0
771751936	0	0
788529152	0	0
805306368	0	0
822083584	0	0
838860800	0	0
855638016	0	0
872415232	0	0
889192448	0	0
905969664	0	0
922746880	0	0
939524096	0	0
956301312	0	0
973078528	0	0
989855744	0	0
1006632960	0	0
1023410176	0	0
1040187392	0	0
1056964608	0	0
1073741824	0	0
1107296256	0	0
1140850688	0	0
1174405120	0	0
1207959552	0	0
1241513984	0	0
1275068416	0	0
1308622848	0	0
1342177280	0	0
1375731712	0	0
1409286144	0	0
1442840576	0	0
1476395008	0	0
1509949440	0	0
1543503872	0	0
1577058304	0	0
1610612736	0	0
1644167168	0	0
1677721600	0	0
1711276032	0	0
1744830464	0	0
1778384896	0	0
1811939328	0	0
1845493760	0	0
1879048192	0	0
1912602624	0	0
1946157056	0	0
1979711488	0	0
2013265920	0	0
2046820352	0	0
2080374784	0	0
2113929216	0	0
2147483648	0	0
2214592512	0	0
2281701376	0	0
2348810240	0	0
2415919104	0	0
2483027968	0	0
2550136832	0	0
2617245696	0	0
2684354560	0	0
2751463424	0	0
2818572288	0	0
2885681152	0	0
2952790016	0	0
3019898880	0	0
3087007744	0	0
3154116608	0	0
3221225472	0	0
3288334336	0	0
3355443200	0	0
3422552064	0	0
3489660928	0	0
3556769792	0	0
3623878656	0	0
3690987520	0	0
3758096384	0	0
3825205248	0	0
3892314112	0	0
3959422976	0	0
4026531840	0	0
4093640704	0	0
4160749568	0	0
4227858432	0	0
~~~~~~~~~~Reuse Distance Profiler output end~~~~~~~~~~

Sampler size:2215716

DRAM Statistics
 CHANNEL 0
 RQ ROW_BUFFER_HIT:    2102353  ROW_BUFFER_MISS:   67337017
 DBUS AVG_CONGESTED_CYCLE:    4.00325
 WQ ROW_BUFFER_HIT:     735707  ROW_BUFFER_MISS:   51345118  FULL:          0


CPU 0 Branch Prediction Accuracy: 96.1064% MPKI: 0.6851 Average ROB Occupancy at Mispredict: 258.303
Branch type MPKI
BRANCH_DIRECT_JUMP: 0
BRANCH_INDIRECT: 0
BRANCH_CONDITIONAL: 0.6851
BRANCH_DIRECT_CALL: 0
BRANCH_INDIRECT_CALL: 0
BRANCH_RETURN: 0

