
*** ChampSim Multicore Out-of-Order Simulator ***

Warmup Instructions: 50000000
Simulation Instructions: 1500000000
Number of CPUs: 1
Off-chip DRAM Size: 4 GiB Channels: 1 Width: 64-bit Data Rate: 3200 MT/s

VirtualMemory physical capacity: 8588881920 num_ppages: 2096895
VirtualMemory page size: 4096 log2_page_size: 12

CPU 0 runs /s/traces/champsim_traces/621.wrf_s-6673B.champsimtrace.xz
CPU 0 Bimodal branch predictor
Basic BTB sets: 1024 ways: 8 indirect buffer size: 4096 RAS size: 64
Initializing LRU.
Initializing LRU.
Initializing LRU.
Initializing LRU.
Initializing rdLRU.
Initializing LRU.
Heartbeat CPU 0 instructions: 2000001 cycles: 583732 heartbeat IPC: 3.42623 cumulative IPC: 3.42623 (Simulation time: 0 hr 1 min 7 sec) 
Heartbeat CPU 0 instructions: 4000000 cycles: 1382282 heartbeat IPC: 2.50454 cumulative IPC: 2.89377 (Simulation time: 0 hr 2 min 49 sec) 
Heartbeat CPU 0 instructions: 6000001 cycles: 2246104 heartbeat IPC: 2.31529 cumulative IPC: 2.67129 (Simulation time: 0 hr 4 min 54 sec) 
Heartbeat CPU 0 instructions: 8000003 cycles: 3109136 heartbeat IPC: 2.31741 cumulative IPC: 2.57306 (Simulation time: 0 hr 6 min 57 sec) 
Heartbeat CPU 0 instructions: 10000003 cycles: 3923313 heartbeat IPC: 2.45647 cumulative IPC: 2.54887 (Simulation time: 0 hr 8 min 43 sec) 
Heartbeat CPU 0 instructions: 12000000 cycles: 4432311 heartbeat IPC: 3.92928 cumulative IPC: 2.70739 (Simulation time: 0 hr 9 min 37 sec) 
Heartbeat CPU 0 instructions: 14000000 cycles: 5109333 heartbeat IPC: 2.95411 cumulative IPC: 2.74008 (Simulation time: 0 hr 11 min 4 sec) 
Heartbeat CPU 0 instructions: 16000001 cycles: 5697828 heartbeat IPC: 3.3985 cumulative IPC: 2.80809 (Simulation time: 0 hr 12 min 14 sec) 
Heartbeat CPU 0 instructions: 18000000 cycles: 6197928 heartbeat IPC: 3.9992 cumulative IPC: 2.9042 (Simulation time: 0 hr 13 min 8 sec) 
Heartbeat CPU 0 instructions: 20000003 cycles: 6757042 heartbeat IPC: 3.57709 cumulative IPC: 2.95988 (Simulation time: 0 hr 14 min 13 sec) 
Heartbeat CPU 0 instructions: 22000001 cycles: 7348415 heartbeat IPC: 3.38196 cumulative IPC: 2.99384 (Simulation time: 0 hr 15 min 25 sec) 
Heartbeat CPU 0 instructions: 24000002 cycles: 7893199 heartbeat IPC: 3.67118 cumulative IPC: 3.04059 (Simulation time: 0 hr 16 min 27 sec) 
Heartbeat CPU 0 instructions: 26000002 cycles: 8409676 heartbeat IPC: 3.87239 cumulative IPC: 3.09168 (Simulation time: 0 hr 17 min 26 sec) 
Heartbeat CPU 0 instructions: 28000001 cycles: 8928041 heartbeat IPC: 3.85828 cumulative IPC: 3.13619 (Simulation time: 0 hr 18 min 29 sec) 
Heartbeat CPU 0 instructions: 30000001 cycles: 9428041 heartbeat IPC: 4 cumulative IPC: 3.182 (Simulation time: 0 hr 19 min 25 sec) 
Heartbeat CPU 0 instructions: 32000002 cycles: 9950618 heartbeat IPC: 3.82719 cumulative IPC: 3.21588 (Simulation time: 0 hr 20 min 28 sec) 
Heartbeat CPU 0 instructions: 34000001 cycles: 10503861 heartbeat IPC: 3.61505 cumulative IPC: 3.23691 (Simulation time: 0 hr 21 min 40 sec) 
Heartbeat CPU 0 instructions: 36000001 cycles: 11069928 heartbeat IPC: 3.53315 cumulative IPC: 3.25205 (Simulation time: 0 hr 22 min 53 sec) 
Heartbeat CPU 0 instructions: 38000001 cycles: 11659448 heartbeat IPC: 3.39259 cumulative IPC: 3.25916 (Simulation time: 0 hr 24 min 12 sec) 
Heartbeat CPU 0 instructions: 40000002 cycles: 12174650 heartbeat IPC: 3.88197 cumulative IPC: 3.28552 (Simulation time: 0 hr 25 min 10 sec) 
Heartbeat CPU 0 instructions: 42000002 cycles: 12674650 heartbeat IPC: 4 cumulative IPC: 3.3137 (Simulation time: 0 hr 26 min 0 sec) 
Heartbeat CPU 0 instructions: 44000004 cycles: 13219459 heartbeat IPC: 3.67102 cumulative IPC: 3.32843 (Simulation time: 0 hr 27 min 5 sec) 
Heartbeat CPU 0 instructions: 46000000 cycles: 13742939 heartbeat IPC: 3.82058 cumulative IPC: 3.34717 (Simulation time: 0 hr 28 min 2 sec) 
Heartbeat CPU 0 instructions: 48000003 cycles: 14301993 heartbeat IPC: 3.57748 cumulative IPC: 3.35618 (Simulation time: 0 hr 29 min 5 sec) 
Heartbeat CPU 0 instructions: 50000003 cycles: 15002818 heartbeat IPC: 2.85378 cumulative IPC: 3.33271 (Simulation time: 0 hr 30 min 33 sec) 

Warmup complete CPU 0 instructions: 50000003 cycles: 15002818 (Simulation time: 0 hr 30 min 33 sec) 

Heartbeat CPU 0 instructions: 52000001 cycles: 17974457 heartbeat IPC: 0.673029 cumulative IPC: 0.673029 (Simulation time: 0 hr 34 min 3 sec) 

Region of Interest Statistics
cpu0_DTLB TOTAL     ACCESS:     573917  HIT:     555831  MISS:      18086
cpu0_DTLB LOAD      ACCESS:     521618  HIT:     508538  MISS:      13080
cpu0_DTLB RFO       ACCESS:      52299  HIT:      47293  MISS:       5006
cpu0_DTLB PREFETCH  ACCESS:          0  HIT:          0  MISS:          0
cpu0_DTLB WRITEBACK ACCESS:          0  HIT:          0  MISS:          0
cpu0_ITLB TOTAL     ACCESS:     126369  HIT:     126361  MISS:          8
cpu0_ITLB LOAD      ACCESS:     126369  HIT:     126361  MISS:          8
cpu0_ITLB RFO       ACCESS:          0  HIT:          0  MISS:          0
cpu0_ITLB PREFETCH  ACCESS:          0  HIT:          0  MISS:          0
cpu0_ITLB WRITEBACK ACCESS:          0  HIT:          0  MISS:          0
cpu0_L1I TOTAL     ACCESS:      31064  HIT:      30830  MISS:        234
cpu0_L1I LOAD      ACCESS:      31064  HIT:      30830  MISS:        234
cpu0_L1I RFO       ACCESS:          0  HIT:          0  MISS:          0
cpu0_L1I PREFETCH  ACCESS:          0  HIT:          0  MISS:          0
cpu0_L1I WRITEBACK ACCESS:          0  HIT:          0  MISS:          0
cpu0_STLB TOTAL     ACCESS:      18094  HIT:      17603  MISS:        491
cpu0_STLB LOAD      ACCESS:      13088  HIT:      12608  MISS:        480
cpu0_STLB RFO       ACCESS:       5006  HIT:       4995  MISS:         11
cpu0_STLB PREFETCH  ACCESS:          0  HIT:          0  MISS:          0
cpu0_STLB WRITEBACK ACCESS:          0  HIT:          0  MISS:          0
cpu0_L1D TOTAL     ACCESS:     534661  HIT:     444329  MISS:      90332
cpu0_L1D LOAD      ACCESS:     436879  HIT:     353540  MISS:      83339
cpu0_L1D RFO       ACCESS:      97439  HIT:      90537  MISS:       6902
cpu0_L1D PREFETCH  ACCESS:          0  HIT:          0  MISS:          0
cpu0_L1D WRITEBACK ACCESS:          0  HIT:          0  MISS:          0
cpu0_L2C TOTAL     ACCESS:     114621  HIT:      66704  MISS:      47917
cpu0_L2C LOAD      ACCESS:      83573  HIT:      36465  MISS:      47108
cpu0_L2C RFO       ACCESS:       6898  HIT:       6116  MISS:        782
cpu0_L2C PREFETCH  ACCESS:          0  HIT:          0  MISS:          0
cpu0_L2C WRITEBACK ACCESS:      24059  HIT:      24052  MISS:          7
LLC TOTAL     ACCESS:      56458  HIT:      19468  MISS:      36990
LLC LOAD      ACCESS:      47108  HIT:      11017  MISS:      36091
LLC RFO       ACCESS:        782  HIT:        165  MISS:        617
LLC PREFETCH  ACCESS:          0  HIT:          0  MISS:          0
LLC WRITEBACK ACCESS:       8548  HIT:       8272  MISS:        276
Heartbeat CPU 0 instructions: 54000002 cycles: 19809570 heartbeat IPC: 1.08985 cumulative IPC: 0.832163 (Simulation time: 0 hr 36 min 37 sec) 

Region of Interest Statistics
cpu0_DTLB TOTAL     ACCESS:    1182045  HIT:    1163118  MISS:      18927
cpu0_DTLB LOAD      ACCESS:    1073122  HIT:    1059316  MISS:      13806
cpu0_DTLB RFO       ACCESS:     108923  HIT:     103802  MISS:       5121
cpu0_DTLB PREFETCH  ACCESS:          0  HIT:          0  MISS:          0
cpu0_DTLB WRITEBACK ACCESS:          0  HIT:          0  MISS:          0
cpu0_ITLB TOTAL     ACCESS:     217660  HIT:     217652  MISS:          8
cpu0_ITLB LOAD      ACCESS:     217660  HIT:     217652  MISS:          8
cpu0_ITLB RFO       ACCESS:          0  HIT:          0  MISS:          0
cpu0_ITLB PREFETCH  ACCESS:          0  HIT:          0  MISS:          0
cpu0_ITLB WRITEBACK ACCESS:          0  HIT:          0  MISS:          0
cpu0_L1I TOTAL     ACCESS:      52833  HIT:      52599  MISS:        234
cpu0_L1I LOAD      ACCESS:      52833  HIT:      52599  MISS:        234
cpu0_L1I RFO       ACCESS:          0  HIT:          0  MISS:          0
cpu0_L1I PREFETCH  ACCESS:          0  HIT:          0  MISS:          0
cpu0_L1I WRITEBACK ACCESS:          0  HIT:          0  MISS:          0
cpu0_STLB TOTAL     ACCESS:      18935  HIT:      18164  MISS:        771
cpu0_STLB LOAD      ACCESS:      13814  HIT:      13119  MISS:        695
cpu0_STLB RFO       ACCESS:       5121  HIT:       5045  MISS:         76
cpu0_STLB PREFETCH  ACCESS:          0  HIT:          0  MISS:          0
cpu0_STLB WRITEBACK ACCESS:          0  HIT:          0  MISS:          0
cpu0_L1D TOTAL     ACCESS:    1068065  HIT:     939967  MISS:     128098
cpu0_L1D LOAD      ACCESS:     903687  HIT:     789274  MISS:     114413
cpu0_L1D RFO       ACCESS:     163755  HIT:     150210  MISS:      13545
cpu0_L1D PREFETCH  ACCESS:          0  HIT:          0  MISS:          0
cpu0_L1D WRITEBACK ACCESS:          0  HIT:          0  MISS:          0
cpu0_L2C TOTAL     ACCESS:     160342  HIT:      86931  MISS:      73411
cpu0_L2C LOAD      ACCESS:     114647  HIT:      46302  MISS:      68345
cpu0_L2C RFO       ACCESS:      13541  HIT:       8511  MISS:       5030
cpu0_L2C PREFETCH  ACCESS:          0  HIT:          0  MISS:          0
cpu0_L2C WRITEBACK ACCESS:      32014  HIT:      32003  MISS:         11
LLC TOTAL     ACCESS:      87800  HIT:      28046  MISS:      59754
LLC LOAD      ACCESS:      68345  HIT:      13653  MISS:      54692
LLC RFO       ACCESS:       5030  HIT:        255  MISS:       4775
LLC PREFETCH  ACCESS:          0  HIT:          0  MISS:          0
LLC WRITEBACK ACCESS:      14400  HIT:      14119  MISS:        281
Heartbeat CPU 0 instructions: 56000002 cycles: 21921310 heartbeat IPC: 0.947086 cumulative IPC: 0.867241 (Simulation time: 0 hr 39 min 24 sec) 

Region of Interest Statistics
cpu0_DTLB TOTAL     ACCESS:    1785234  HIT:    1763568  MISS:      21666
cpu0_DTLB LOAD      ACCESS:    1613286  HIT:    1596986  MISS:      16300
cpu0_DTLB RFO       ACCESS:     171948  HIT:     166582  MISS:       5366
cpu0_DTLB PREFETCH  ACCESS:          0  HIT:          0  MISS:          0
cpu0_DTLB WRITEBACK ACCESS:          0  HIT:          0  MISS:          0
cpu0_ITLB TOTAL     ACCESS:     314467  HIT:     314459  MISS:          8
cpu0_ITLB LOAD      ACCESS:     314467  HIT:     314459  MISS:          8
cpu0_ITLB RFO       ACCESS:          0  HIT:          0  MISS:          0
cpu0_ITLB PREFETCH  ACCESS:          0  HIT:          0  MISS:          0
cpu0_ITLB WRITEBACK ACCESS:          0  HIT:          0  MISS:          0
cpu0_L1I TOTAL     ACCESS:      73080  HIT:      72831  MISS:        249
cpu0_L1I LOAD      ACCESS:      73080  HIT:      72831  MISS:        249
cpu0_L1I RFO       ACCESS:          0  HIT:          0  MISS:          0
cpu0_L1I PREFETCH  ACCESS:          0  HIT:          0  MISS:          0
cpu0_L1I WRITEBACK ACCESS:          0  HIT:          0  MISS:          0
cpu0_STLB TOTAL     ACCESS:      21674  HIT:      20535  MISS:       1139
cpu0_STLB LOAD      ACCESS:      16308  HIT:      15343  MISS:        965
cpu0_STLB RFO       ACCESS:       5366  HIT:       5192  MISS:        174
cpu0_STLB PREFETCH  ACCESS:          0  HIT:          0  MISS:          0
cpu0_STLB WRITEBACK ACCESS:          0  HIT:          0  MISS:          0
cpu0_L1D TOTAL     ACCESS:    1590475  HIT:    1420537  MISS:     169938
cpu0_L1D LOAD      ACCESS:    1352491  HIT:    1204693  MISS:     147798
cpu0_L1D RFO       ACCESS:     236993  HIT:     215041  MISS:      21952
cpu0_L1D PREFETCH  ACCESS:          0  HIT:          0  MISS:          0
cpu0_L1D WRITEBACK ACCESS:          0  HIT:          0  MISS:          0
cpu0_L2C TOTAL     ACCESS:     213614  HIT:     109595  MISS:     104019
cpu0_L2C LOAD      ACCESS:     148048  HIT:      55286  MISS:      92762
cpu0_L2C RFO       ACCESS:      21948  HIT:      10740  MISS:      11208
cpu0_L2C PREFETCH  ACCESS:          0  HIT:          0  MISS:          0
cpu0_L2C WRITEBACK ACCESS:      43430  HIT:      43409  MISS:         21
LLC TOTAL     ACCESS:     124237  HIT:      36550  MISS:      87687
LLC LOAD      ACCESS:      92762  HIT:      16257  MISS:      76505
LLC RFO       ACCESS:      11208  HIT:        316  MISS:      10892
LLC PREFETCH  ACCESS:          0  HIT:          0  MISS:          0
LLC WRITEBACK ACCESS:      20239  HIT:      19956  MISS:        283
Heartbeat CPU 0 instructions: 58000004 cycles: 24825444 heartbeat IPC: 0.688674 cumulative IPC: 0.814446 (Simulation time: 0 hr 42 min 56 sec) 

Region of Interest Statistics
cpu0_DTLB TOTAL     ACCESS:    2314617  HIT:    2292040  MISS:      22577
cpu0_DTLB LOAD      ACCESS:    2081727  HIT:    2064617  MISS:      17110
cpu0_DTLB RFO       ACCESS:     232890  HIT:     227423  MISS:       5467
cpu0_DTLB PREFETCH  ACCESS:          0  HIT:          0  MISS:          0
cpu0_DTLB WRITEBACK ACCESS:          0  HIT:          0  MISS:          0
cpu0_ITLB TOTAL     ACCESS:     442943  HIT:     442935  MISS:          8
cpu0_ITLB LOAD      ACCESS:     442943  HIT:     442935  MISS:          8
cpu0_ITLB RFO       ACCESS:          0  HIT:          0  MISS:          0
cpu0_ITLB PREFETCH  ACCESS:          0  HIT:          0  MISS:          0
cpu0_ITLB WRITEBACK ACCESS:          0  HIT:          0  MISS:          0
cpu0_L1I TOTAL     ACCESS:     106763  HIT:     106464  MISS:        299
cpu0_L1I LOAD      ACCESS:     106763  HIT:     106464  MISS:        299
cpu0_L1I RFO       ACCESS:          0  HIT:          0  MISS:          0
cpu0_L1I PREFETCH  ACCESS:          0  HIT:          0  MISS:          0
cpu0_L1I WRITEBACK ACCESS:          0  HIT:          0  MISS:          0
cpu0_STLB TOTAL     ACCESS:      22585  HIT:      21028  MISS:       1557
cpu0_STLB LOAD      ACCESS:      17118  HIT:      15834  MISS:       1284
cpu0_STLB RFO       ACCESS:       5467  HIT:       5194  MISS:        273
cpu0_STLB PREFETCH  ACCESS:          0  HIT:          0  MISS:          0
cpu0_STLB WRITEBACK ACCESS:          0  HIT:          0  MISS:          0
cpu0_L1D TOTAL     ACCESS:    2036198  HIT:    1785645  MISS:     250553
cpu0_L1D LOAD      ACCESS:    1707033  HIT:    1487795  MISS:     219238
cpu0_L1D RFO       ACCESS:     327758  HIT:     296669  MISS:      31089
cpu0_L1D PREFETCH  ACCESS:          0  HIT:          0  MISS:          0
cpu0_L1D WRITEBACK ACCESS:          0  HIT:          0  MISS:          0
cpu0_L2C TOTAL     ACCESS:     319281  HIT:     160641  MISS:     158640
cpu0_L2C LOAD      ACCESS:     219528  HIT:      78351  MISS:     141177
cpu0_L2C RFO       ACCESS:      31083  HIT:      13674  MISS:      17409
cpu0_L2C PREFETCH  ACCESS:          0  HIT:          0  MISS:          0
cpu0_L2C WRITEBACK ACCESS:      68444  HIT:      68421  MISS:         23
LLC TOTAL     ACCESS:     200928  HIT:      72161  MISS:     128767
LLC LOAD      ACCESS:     141177  HIT:      29791  MISS:     111386
LLC RFO       ACCESS:      17409  HIT:        322  MISS:      17087
LLC PREFETCH  ACCESS:          0  HIT:          0  MISS:          0
LLC WRITEBACK ACCESS:      42311  HIT:      42024  MISS:        287
Heartbeat CPU 0 instructions: 60000000 cycles: 27215899 heartbeat IPC: 0.836659 cumulative IPC: 0.818794 (Simulation time: 0 hr 45 min 53 sec) 

Region of Interest Statistics
cpu0_DTLB TOTAL     ACCESS:    2872974  HIT:    2838761  MISS:      34213
cpu0_DTLB LOAD      ACCESS:    2582308  HIT:    2555786  MISS:      26522
cpu0_DTLB RFO       ACCESS:     290666  HIT:     282975  MISS:       7691
cpu0_DTLB PREFETCH  ACCESS:          0  HIT:          0  MISS:          0
cpu0_DTLB WRITEBACK ACCESS:          0  HIT:          0  MISS:          0
cpu0_ITLB TOTAL     ACCESS:     539255  HIT:     539241  MISS:         14
cpu0_ITLB LOAD      ACCESS:     539255  HIT:     539241  MISS:         14
cpu0_ITLB RFO       ACCESS:          0  HIT:          0  MISS:          0
cpu0_ITLB PREFETCH  ACCESS:          0  HIT:          0  MISS:          0
cpu0_ITLB WRITEBACK ACCESS:          0  HIT:          0  MISS:          0
cpu0_L1I TOTAL     ACCESS:     137740  HIT:     137129  MISS:        611
cpu0_L1I LOAD      ACCESS:     137740  HIT:     137129  MISS:        611
cpu0_L1I RFO       ACCESS:          0  HIT:          0  MISS:          0
cpu0_L1I PREFETCH  ACCESS:          0  HIT:          0  MISS:          0
cpu0_L1I WRITEBACK ACCESS:          0  HIT:          0  MISS:          0
cpu0_STLB TOTAL     ACCESS:      34227  HIT:      32271  MISS:       1956
cpu0_STLB LOAD      ACCESS:      26536  HIT:      24854  MISS:       1682
cpu0_STLB RFO       ACCESS:       7691  HIT:       7417  MISS:        274
cpu0_STLB PREFETCH  ACCESS:          0  HIT:          0  MISS:          0
cpu0_STLB WRITEBACK ACCESS:          0  HIT:          0  MISS:          0
cpu0_L1D TOTAL     ACCESS:    2546483  HIT:    2234151  MISS:     312332
cpu0_L1D LOAD      ACCESS:    2093518  HIT:    1817473  MISS:     276045
cpu0_L1D RFO       ACCESS:     451165  HIT:     415195  MISS:      35970
cpu0_L1D PREFETCH  ACCESS:          0  HIT:          0  MISS:          0
cpu0_L1D WRITEBACK ACCESS:          0  HIT:          0  MISS:          0
cpu0_L2C TOTAL     ACCESS:     397652  HIT:     197255  MISS:     200397
cpu0_L2C LOAD      ACCESS:     276643  HIT:      94019  MISS:     182624
cpu0_L2C RFO       ACCESS:      35963  HIT:      18270  MISS:      17693
cpu0_L2C PREFETCH  ACCESS:          0  HIT:          0  MISS:          0
cpu0_L2C WRITEBACK ACCESS:      84729  HIT:      84692  MISS:         37
LLC TOTAL     ACCESS:     252114  HIT:      93912  MISS:     158202
LLC LOAD      ACCESS:     182623  HIT:      41980  MISS:     140643
LLC RFO       ACCESS:      17693  HIT:        461  MISS:      17232
LLC PREFETCH  ACCESS:          0  HIT:          0  MISS:          0
LLC WRITEBACK ACCESS:      51755  HIT:      51439  MISS:        316
Heartbeat CPU 0 instructions: 62000004 cycles: 29560747 heartbeat IPC: 0.852935 cumulative IPC: 0.824293 (Simulation time: 0 hr 48 min 48 sec) 

Region of Interest Statistics
cpu0_DTLB TOTAL     ACCESS:    3433740  HIT:    3395635  MISS:      38105
cpu0_DTLB LOAD      ACCESS:    3086248  HIT:    3056027  MISS:      30221
cpu0_DTLB RFO       ACCESS:     347492  HIT:     339608  MISS:       7884
cpu0_DTLB PREFETCH  ACCESS:          0  HIT:          0  MISS:          0
cpu0_DTLB WRITEBACK ACCESS:          0  HIT:          0  MISS:          0
cpu0_ITLB TOTAL     ACCESS:     630407  HIT:     630393  MISS:         14
cpu0_ITLB LOAD      ACCESS:     630407  HIT:     630393  MISS:         14
cpu0_ITLB RFO       ACCESS:          0  HIT:          0  MISS:          0
cpu0_ITLB PREFETCH  ACCESS:          0  HIT:          0  MISS:          0
cpu0_ITLB WRITEBACK ACCESS:          0  HIT:          0  MISS:          0
cpu0_L1I TOTAL     ACCESS:     166969  HIT:     166358  MISS:        611
cpu0_L1I LOAD      ACCESS:     166969  HIT:     166358  MISS:        611
cpu0_L1I RFO       ACCESS:          0  HIT:          0  MISS:          0
cpu0_L1I PREFETCH  ACCESS:          0  HIT:          0  MISS:          0
cpu0_L1I WRITEBACK ACCESS:          0  HIT:          0  MISS:          0
cpu0_STLB TOTAL     ACCESS:      38119  HIT:      35712  MISS:       2407
cpu0_STLB LOAD      ACCESS:      30235  HIT:      28102  MISS:       2133
cpu0_STLB RFO       ACCESS:       7884  HIT:       7610  MISS:        274
cpu0_STLB PREFETCH  ACCESS:          0  HIT:          0  MISS:          0
cpu0_STLB WRITEBACK ACCESS:          0  HIT:          0  MISS:          0
cpu0_L1D TOTAL     ACCESS:    3058513  HIT:    2694574  MISS:     363939
cpu0_L1D LOAD      ACCESS:    2477742  HIT:    2155136  MISS:     322606
cpu0_L1D RFO       ACCESS:     578527  HIT:     537629  MISS:      40898
cpu0_L1D PREFETCH  ACCESS:          0  HIT:          0  MISS:          0
cpu0_L1D WRITEBACK ACCESS:          0  HIT:          0  MISS:          0
cpu0_L2C TOTAL     ACCESS:     461594  HIT:     227300  MISS:     234294
cpu0_L2C LOAD      ACCESS:     323203  HIT:     106767  MISS:     216436
cpu0_L2C RFO       ACCESS:      40890  HIT:      23122  MISS:      17768
cpu0_L2C PREFETCH  ACCESS:          0  HIT:          0  MISS:          0
cpu0_L2C WRITEBACK ACCESS:      97066  HIT:      97021  MISS:         45
LLC TOTAL     ACCESS:     292254  HIT:     103383  MISS:     188871
LLC LOAD      ACCESS:     216435  HIT:      45209  MISS:     171226
LLC RFO       ACCESS:      17768  HIT:        461  MISS:      17307
LLC PREFETCH  ACCESS:          0  HIT:          0  MISS:          0
LLC WRITEBACK ACCESS:      58006  HIT:      57679  MISS:        327
Heartbeat CPU 0 instructions: 64000000 cycles: 31983042 heartbeat IPC: 0.825662 cumulative IPC: 0.824488 (Simulation time: 0 hr 51 min 41 sec) 

Region of Interest Statistics
cpu0_DTLB TOTAL     ACCESS:    3991233  HIT:    3949240  MISS:      41993
cpu0_DTLB LOAD      ACCESS:    3586425  HIT:    3552506  MISS:      33919
cpu0_DTLB RFO       ACCESS:     404808  HIT:     396734  MISS:       8074
cpu0_DTLB PREFETCH  ACCESS:          0  HIT:          0  MISS:          0
cpu0_DTLB WRITEBACK ACCESS:          0  HIT:          0  MISS:          0
cpu0_ITLB TOTAL     ACCESS:     720474  HIT:     720460  MISS:         14
cpu0_ITLB LOAD      ACCESS:     720474  HIT:     720460  MISS:         14
cpu0_ITLB RFO       ACCESS:          0  HIT:          0  MISS:          0
cpu0_ITLB PREFETCH  ACCESS:          0  HIT:          0  MISS:          0
cpu0_ITLB WRITEBACK ACCESS:          0  HIT:          0  MISS:          0
cpu0_L1I TOTAL     ACCESS:     195296  HIT:     194685  MISS:        611
cpu0_L1I LOAD      ACCESS:     195296  HIT:     194685  MISS:        611
cpu0_L1I RFO       ACCESS:          0  HIT:          0  MISS:          0
cpu0_L1I PREFETCH  ACCESS:          0  HIT:          0  MISS:          0
cpu0_L1I WRITEBACK ACCESS:          0  HIT:          0  MISS:          0
cpu0_STLB TOTAL     ACCESS:      42007  HIT:      39056  MISS:       2951
cpu0_STLB LOAD      ACCESS:      33933  HIT:      31256  MISS:       2677
cpu0_STLB RFO       ACCESS:       8074  HIT:       7800  MISS:        274
cpu0_STLB PREFETCH  ACCESS:          0  HIT:          0  MISS:          0
cpu0_STLB WRITEBACK ACCESS:          0  HIT:          0  MISS:          0
cpu0_L1D TOTAL     ACCESS:    3564108  HIT:    3149045  MISS:     415063
cpu0_L1D LOAD      ACCESS:    2853632  HIT:    2485010  MISS:     368622
cpu0_L1D RFO       ACCESS:     707729  HIT:     661849  MISS:      45880
cpu0_L1D PREFETCH  ACCESS:          0  HIT:          0  MISS:          0
cpu0_L1D WRITEBACK ACCESS:          0  HIT:          0  MISS:          0
cpu0_L2C TOTAL     ACCESS:     524763  HIT:     256893  MISS:     267870
cpu0_L2C LOAD      ACCESS:     369217  HIT:     119282  MISS:     249935
cpu0_L2C RFO       ACCESS:      45872  HIT:      28034  MISS:      17838
cpu0_L2C PREFETCH  ACCESS:          0  HIT:          0  MISS:          0
cpu0_L2C WRITEBACK ACCESS:     109113  HIT:     109063  MISS:         50
LLC TOTAL     ACCESS:     332059  HIT:     112220  MISS:     219839
LLC LOAD      ACCESS:     249934  HIT:      47810  MISS:     202124
LLC RFO       ACCESS:      17838  HIT:        461  MISS:      17377
LLC PREFETCH  ACCESS:          0  HIT:          0  MISS:          0
LLC WRITEBACK ACCESS:      64240  HIT:      63913  MISS:        327
Heartbeat CPU 0 instructions: 66000001 cycles: 34509767 heartbeat IPC: 0.791539 cumulative IPC: 0.82022 (Simulation time: 0 hr 54 min 41 sec) 

Region of Interest Statistics
cpu0_DTLB TOTAL     ACCESS:    4553233  HIT:    4506981  MISS:      46252
cpu0_DTLB LOAD      ACCESS:    4090988  HIT:    4053019  MISS:      37969
cpu0_DTLB RFO       ACCESS:     462245  HIT:     453962  MISS:       8283
cpu0_DTLB PREFETCH  ACCESS:          0  HIT:          0  MISS:          0
cpu0_DTLB WRITEBACK ACCESS:          0  HIT:          0  MISS:          0
cpu0_ITLB TOTAL     ACCESS:     811308  HIT:     811294  MISS:         14
cpu0_ITLB LOAD      ACCESS:     811308  HIT:     811294  MISS:         14
cpu0_ITLB RFO       ACCESS:          0  HIT:          0  MISS:          0
cpu0_ITLB PREFETCH  ACCESS:          0  HIT:          0  MISS:          0
cpu0_ITLB WRITEBACK ACCESS:          0  HIT:          0  MISS:          0
cpu0_L1I TOTAL     ACCESS:     224512  HIT:     223901  MISS:        611
cpu0_L1I LOAD      ACCESS:     224512  HIT:     223901  MISS:        611
cpu0_L1I RFO       ACCESS:          0  HIT:          0  MISS:          0
cpu0_L1I PREFETCH  ACCESS:          0  HIT:          0  MISS:          0
cpu0_L1I WRITEBACK ACCESS:          0  HIT:          0  MISS:          0
cpu0_STLB TOTAL     ACCESS:      46266  HIT:      42733  MISS:       3533
cpu0_STLB LOAD      ACCESS:      37983  HIT:      34724  MISS:       3259
cpu0_STLB RFO       ACCESS:       8283  HIT:       8009  MISS:        274
cpu0_STLB PREFETCH  ACCESS:          0  HIT:          0  MISS:          0
cpu0_STLB WRITEBACK ACCESS:          0  HIT:          0  MISS:          0
cpu0_L1D TOTAL     ACCESS:    4075460  HIT:    3608358  MISS:     467102
cpu0_L1D LOAD      ACCESS:    3236357  HIT:    2820872  MISS:     415485
cpu0_L1D RFO       ACCESS:     835827  HIT:     784894  MISS:      50933
cpu0_L1D PREFETCH  ACCESS:          0  HIT:          0  MISS:          0
cpu0_L1D WRITEBACK ACCESS:          0  HIT:          0  MISS:          0
cpu0_L2C TOTAL     ACCESS:     589390  HIT:     287146  MISS:     302244
cpu0_L2C LOAD      ACCESS:     416074  HIT:     131847  MISS:     284227
cpu0_L2C RFO       ACCESS:      50925  HIT:      33012  MISS:      17913
cpu0_L2C PREFETCH  ACCESS:          0  HIT:          0  MISS:          0
cpu0_L2C WRITEBACK ACCESS:     121707  HIT:     121653  MISS:         54
LLC TOTAL     ACCESS:     372939  HIT:     120927  MISS:     252012
LLC LOAD      ACCESS:     284226  HIT:      50006  MISS:     234220
LLC RFO       ACCESS:      17913  HIT:        461  MISS:      17452
LLC PREFETCH  ACCESS:          0  HIT:          0  MISS:          0
LLC WRITEBACK ACCESS:      70750  HIT:      70421  MISS:        329
Heartbeat CPU 0 instructions: 68000001 cycles: 40965779 heartbeat IPC: 0.309789 cumulative IPC: 0.693295 (Simulation time: 1 hr 0 min 53 sec) 

Region of Interest Statistics
cpu0_DTLB TOTAL     ACCESS:    5085607  HIT:    5019789  MISS:      65818
cpu0_DTLB LOAD      ACCESS:    4470818  HIT:    4417593  MISS:      53225
cpu0_DTLB RFO       ACCESS:     614789  HIT:     602196  MISS:      12593
cpu0_DTLB PREFETCH  ACCESS:          0  HIT:          0  MISS:          0
cpu0_DTLB WRITEBACK ACCESS:          0  HIT:          0  MISS:          0
cpu0_ITLB TOTAL     ACCESS:     926159  HIT:     926140  MISS:         19
cpu0_ITLB LOAD      ACCESS:     926159  HIT:     926140  MISS:         19
cpu0_ITLB RFO       ACCESS:          0  HIT:          0  MISS:          0
cpu0_ITLB PREFETCH  ACCESS:          0  HIT:          0  MISS:          0
cpu0_ITLB WRITEBACK ACCESS:          0  HIT:          0  MISS:          0
cpu0_L1I TOTAL     ACCESS:     246473  HIT:     245591  MISS:        882
cpu0_L1I LOAD      ACCESS:     246473  HIT:     245591  MISS:        882
cpu0_L1I RFO       ACCESS:          0  HIT:          0  MISS:          0
cpu0_L1I PREFETCH  ACCESS:          0  HIT:          0  MISS:          0
cpu0_L1I WRITEBACK ACCESS:          0  HIT:          0  MISS:          0
cpu0_STLB TOTAL     ACCESS:      65837  HIT:      60747  MISS:       5090
cpu0_STLB LOAD      ACCESS:      53244  HIT:      48934  MISS:       4310
cpu0_STLB RFO       ACCESS:      12593  HIT:      11813  MISS:        780
cpu0_STLB PREFETCH  ACCESS:          0  HIT:          0  MISS:          0
cpu0_STLB WRITEBACK ACCESS:          0  HIT:          0  MISS:          0
cpu0_L1D TOTAL     ACCESS:    4500877  HIT:    3910969  MISS:     589908
cpu0_L1D LOAD      ACCESS:    3482444  HIT:    2976946  MISS:     505498
cpu0_L1D RFO       ACCESS:    1013912  HIT:     930238  MISS:      83674
cpu0_L1D PREFETCH  ACCESS:          0  HIT:          0  MISS:          0
cpu0_L1D WRITEBACK ACCESS:          0  HIT:          0  MISS:          0
cpu0_L2C TOTAL     ACCESS:     780887  HIT:     361181  MISS:     419706
cpu0_L2C LOAD      ACCESS:     506358  HIT:     136613  MISS:     369745
cpu0_L2C RFO       ACCESS:      83666  HIT:      33835  MISS:      49831
cpu0_L2C PREFETCH  ACCESS:          0  HIT:          0  MISS:          0
cpu0_L2C WRITEBACK ACCESS:     190127  HIT:     190062  MISS:         65
LLC TOTAL     ACCESS:     555961  HIT:     218684  MISS:     337277
LLC LOAD      ACCESS:     369744  HIT:      82816  MISS:     286928
LLC RFO       ACCESS:      49831  HIT:        476  MISS:      49355
LLC PREFETCH  ACCESS:          0  HIT:          0  MISS:          0
LLC WRITEBACK ACCESS:     136321  HIT:     135345  MISS:        976
Heartbeat CPU 0 instructions: 70000004 cycles: 47586899 heartbeat IPC: 0.302064 cumulative IPC: 0.613797 (Simulation time: 1 hr 6 min 31 sec) 

Region of Interest Statistics
cpu0_DTLB TOTAL     ACCESS:    5543702  HIT:    5475594  MISS:      68108
cpu0_DTLB LOAD      ACCESS:    4814918  HIT:    4759636  MISS:      55282
cpu0_DTLB RFO       ACCESS:     728784  HIT:     715958  MISS:      12826
cpu0_DTLB PREFETCH  ACCESS:          0  HIT:          0  MISS:          0
cpu0_DTLB WRITEBACK ACCESS:          0  HIT:          0  MISS:          0
cpu0_ITLB TOTAL     ACCESS:    1044504  HIT:    1044469  MISS:         35
cpu0_ITLB LOAD      ACCESS:    1044504  HIT:    1044469  MISS:         35
cpu0_ITLB RFO       ACCESS:          0  HIT:          0  MISS:          0
cpu0_ITLB PREFETCH  ACCESS:          0  HIT:          0  MISS:          0
cpu0_ITLB WRITEBACK ACCESS:          0  HIT:          0  MISS:          0
cpu0_L1I TOTAL     ACCESS:     263772  HIT:     262522  MISS:       1250
cpu0_L1I LOAD      ACCESS:     263772  HIT:     262522  MISS:       1250
cpu0_L1I RFO       ACCESS:          0  HIT:          0  MISS:          0
cpu0_L1I PREFETCH  ACCESS:          0  HIT:          0  MISS:          0
cpu0_L1I WRITEBACK ACCESS:          0  HIT:          0  MISS:          0
cpu0_STLB TOTAL     ACCESS:      68143  HIT:      62128  MISS:       6015
cpu0_STLB LOAD      ACCESS:      55317  HIT:      50290  MISS:       5027
cpu0_STLB RFO       ACCESS:      12826  HIT:      11838  MISS:        988
cpu0_STLB PREFETCH  ACCESS:          0  HIT:          0  MISS:          0
cpu0_STLB WRITEBACK ACCESS:          0  HIT:          0  MISS:          0
cpu0_L1D TOTAL     ACCESS:    4885244  HIT:    4204237  MISS:     681007
cpu0_L1D LOAD      ACCESS:    3729499  HIT:    3152298  MISS:     577201
cpu0_L1D RFO       ACCESS:    1150510  HIT:    1047486  MISS:     103024
cpu0_L1D PREFETCH  ACCESS:          0  HIT:          0  MISS:          0
cpu0_L1D WRITEBACK ACCESS:          0  HIT:          0  MISS:          0
cpu0_L2C TOTAL     ACCESS:     922613  HIT:     420118  MISS:     502495
cpu0_L2C LOAD      ACCESS:     578429  HIT:     141866  MISS:     436563
cpu0_L2C RFO       ACCESS:     103014  HIT:      37240  MISS:      65774
cpu0_L2C PREFETCH  ACCESS:          0  HIT:          0  MISS:          0
cpu0_L2C WRITEBACK ACCESS:     240388  HIT:     240317  MISS:         71
LLC TOTAL     ACCESS:     682155  HIT:     278059  MISS:     404096
LLC LOAD      ACCESS:     436562  HIT:      97958  MISS:     338604
LLC RFO       ACCESS:      65774  HIT:       1487  MISS:      64287
LLC PREFETCH  ACCESS:          0  HIT:          0  MISS:          0
LLC WRITEBACK ACCESS:     179732  HIT:     178553  MISS:       1179
Heartbeat CPU 0 instructions: 72000001 cycles: 50455779 heartbeat IPC: 0.697135 cumulative IPC: 0.62054 (Simulation time: 1 hr 9 min 37 sec) 

Region of Interest Statistics
cpu0_DTLB TOTAL     ACCESS:    5923428  HIT:    5854725  MISS:      68703
cpu0_DTLB LOAD      ACCESS:    5157130  HIT:    5101264  MISS:      55866
cpu0_DTLB RFO       ACCESS:     766298  HIT:     753461  MISS:      12837
cpu0_DTLB PREFETCH  ACCESS:          0  HIT:          0  MISS:          0
cpu0_DTLB WRITEBACK ACCESS:          0  HIT:          0  MISS:          0
cpu0_ITLB TOTAL     ACCESS:    1141340  HIT:    1141305  MISS:         35
cpu0_ITLB LOAD      ACCESS:    1141340  HIT:    1141305  MISS:         35
cpu0_ITLB RFO       ACCESS:          0  HIT:          0  MISS:          0
cpu0_ITLB PREFETCH  ACCESS:          0  HIT:          0  MISS:          0
cpu0_ITLB WRITEBACK ACCESS:          0  HIT:          0  MISS:          0
cpu0_L1I TOTAL     ACCESS:     274036  HIT:     272786  MISS:       1250
cpu0_L1I LOAD      ACCESS:     274036  HIT:     272786  MISS:       1250
cpu0_L1I RFO       ACCESS:          0  HIT:          0  MISS:          0
cpu0_L1I PREFETCH  ACCESS:          0  HIT:          0  MISS:          0
cpu0_L1I WRITEBACK ACCESS:          0  HIT:          0  MISS:          0
cpu0_STLB TOTAL     ACCESS:      68738  HIT:      62412  MISS:       6326
cpu0_STLB LOAD      ACCESS:      55901  HIT:      50563  MISS:       5338
cpu0_STLB RFO       ACCESS:      12837  HIT:      11849  MISS:        988
cpu0_STLB PREFETCH  ACCESS:          0  HIT:          0  MISS:          0
cpu0_STLB WRITEBACK ACCESS:          0  HIT:          0  MISS:          0
cpu0_L1D TOTAL     ACCESS:    5231258  HIT:    4506676  MISS:     724582
cpu0_L1D LOAD      ACCESS:    4009661  HIT:    3394540  MISS:     615121
cpu0_L1D RFO       ACCESS:    1216126  HIT:    1107526  MISS:     108600
cpu0_L1D PREFETCH  ACCESS:          0  HIT:          0  MISS:          0
cpu0_L1D WRITEBACK ACCESS:          0  HIT:          0  MISS:          0
cpu0_L2C TOTAL     ACCESS:     980186  HIT:     446123  MISS:     534063
cpu0_L2C LOAD      ACCESS:     616348  HIT:     148222  MISS:     468126
cpu0_L2C RFO       ACCESS:     108589  HIT:      42815  MISS:      65774
cpu0_L2C PREFETCH  ACCESS:          0  HIT:          0  MISS:          0
cpu0_L2C WRITEBACK ACCESS:     254388  HIT:     254317  MISS:         71
LLC TOTAL     ACCESS:     717453  HIT:     287695  MISS:     429758
LLC LOAD      ACCESS:     468125  HIT:     103988  MISS:     364137
LLC RFO       ACCESS:      65774  HIT:       1487  MISS:      64287
LLC PREFETCH  ACCESS:          0  HIT:          0  MISS:          0
LLC WRITEBACK ACCESS:     183462  HIT:     182154  MISS:       1308
Heartbeat CPU 0 instructions: 74000000 cycles: 53301787 heartbeat IPC: 0.702738 cumulative IPC: 0.626649 (Simulation time: 1 hr 12 min 42 sec) 

Region of Interest Statistics
cpu0_DTLB TOTAL     ACCESS:    6305768  HIT:    6236443  MISS:      69325
cpu0_DTLB LOAD      ACCESS:    5502048  HIT:    5445583  MISS:      56465
cpu0_DTLB RFO       ACCESS:     803720  HIT:     790860  MISS:      12860
cpu0_DTLB PREFETCH  ACCESS:          0  HIT:          0  MISS:          0
cpu0_DTLB WRITEBACK ACCESS:          0  HIT:          0  MISS:          0
cpu0_ITLB TOTAL     ACCESS:    1237544  HIT:    1237509  MISS:         35
cpu0_ITLB LOAD      ACCESS:    1237544  HIT:    1237509  MISS:         35
cpu0_ITLB RFO       ACCESS:          0  HIT:          0  MISS:          0
cpu0_ITLB PREFETCH  ACCESS:          0  HIT:          0  MISS:          0
cpu0_ITLB WRITEBACK ACCESS:          0  HIT:          0  MISS:          0
cpu0_L1I TOTAL     ACCESS:     284315  HIT:     283065  MISS:       1250
cpu0_L1I LOAD      ACCESS:     284315  HIT:     283065  MISS:       1250
cpu0_L1I RFO       ACCESS:          0  HIT:          0  MISS:          0
cpu0_L1I PREFETCH  ACCESS:          0  HIT:          0  MISS:          0
cpu0_L1I WRITEBACK ACCESS:          0  HIT:          0  MISS:          0
cpu0_STLB TOTAL     ACCESS:      69360  HIT:      62733  MISS:       6627
cpu0_STLB LOAD      ACCESS:      56500  HIT:      50861  MISS:       5639
cpu0_STLB RFO       ACCESS:      12860  HIT:      11872  MISS:        988
cpu0_STLB PREFETCH  ACCESS:          0  HIT:          0  MISS:          0
cpu0_STLB WRITEBACK ACCESS:          0  HIT:          0  MISS:          0
cpu0_L1D TOTAL     ACCESS:    5578145  HIT:    4809136  MISS:     769009
cpu0_L1D LOAD      ACCESS:    4290086  HIT:    3636176  MISS:     653910
cpu0_L1D RFO       ACCESS:    1282350  HIT:    1168193  MISS:     114157
cpu0_L1D PREFETCH  ACCESS:          0  HIT:          0  MISS:          0
cpu0_L1D WRITEBACK ACCESS:          0  HIT:          0  MISS:          0
cpu0_L2C TOTAL     ACCESS:    1039026  HIT:     472620  MISS:     566406
cpu0_L2C LOAD      ACCESS:     655137  HIT:     154675  MISS:     500462
cpu0_L2C RFO       ACCESS:     114145  HIT:      48369  MISS:      65776
cpu0_L2C PREFETCH  ACCESS:          0  HIT:          0  MISS:          0
cpu0_L2C WRITEBACK ACCESS:     268802  HIT:     268731  MISS:         71
LLC TOTAL     ACCESS:     753279  HIT:     297294  MISS:     455985
LLC LOAD      ACCESS:     500461  HIT:     110098  MISS:     390363
LLC RFO       ACCESS:      65776  HIT:       1489  MISS:      64287
LLC PREFETCH  ACCESS:          0  HIT:          0  MISS:          0
LLC WRITEBACK ACCESS:     186945  HIT:     185637  MISS:       1308
Heartbeat CPU 0 instructions: 76000000 cycles: 55802265 heartbeat IPC: 0.799847 cumulative IPC: 0.637263 (Simulation time: 1 hr 15 min 48 sec) 

Region of Interest Statistics
cpu0_DTLB TOTAL     ACCESS:    6848566  HIT:    6778166  MISS:      70400
cpu0_DTLB LOAD      ACCESS:    6000570  HIT:    5943082  MISS:      57488
cpu0_DTLB RFO       ACCESS:     847996  HIT:     835084  MISS:      12912
cpu0_DTLB PREFETCH  ACCESS:          0  HIT:          0  MISS:          0
cpu0_DTLB WRITEBACK ACCESS:          0  HIT:          0  MISS:          0
cpu0_ITLB TOTAL     ACCESS:    1363827  HIT:    1363792  MISS:         35
cpu0_ITLB LOAD      ACCESS:    1363827  HIT:    1363792  MISS:         35
cpu0_ITLB RFO       ACCESS:          0  HIT:          0  MISS:          0
cpu0_ITLB PREFETCH  ACCESS:          0  HIT:          0  MISS:          0
cpu0_ITLB WRITEBACK ACCESS:          0  HIT:          0  MISS:          0
cpu0_L1I TOTAL     ACCESS:     314987  HIT:     313601  MISS:       1386
cpu0_L1I LOAD      ACCESS:     314987  HIT:     313601  MISS:       1386
cpu0_L1I RFO       ACCESS:          0  HIT:          0  MISS:          0
cpu0_L1I PREFETCH  ACCESS:          0  HIT:          0  MISS:          0
cpu0_L1I WRITEBACK ACCESS:          0  HIT:          0  MISS:          0
cpu0_STLB TOTAL     ACCESS:      70435  HIT:      63577  MISS:       6858
cpu0_STLB LOAD      ACCESS:      57523  HIT:      51653  MISS:       5870
cpu0_STLB RFO       ACCESS:      12912  HIT:      11924  MISS:        988
cpu0_STLB PREFETCH  ACCESS:          0  HIT:          0  MISS:          0
cpu0_STLB WRITEBACK ACCESS:          0  HIT:          0  MISS:          0
cpu0_L1D TOTAL     ACCESS:    6089073  HIT:    5238861  MISS:     850212
cpu0_L1D LOAD      ACCESS:    4708202  HIT:    3980129  MISS:     728073
cpu0_L1D RFO       ACCESS:    1374989  HIT:    1253863  MISS:     121126
cpu0_L1D PREFETCH  ACCESS:          0  HIT:          0  MISS:          0
cpu0_L1D WRITEBACK ACCESS:          0  HIT:          0  MISS:          0
cpu0_L2C TOTAL     ACCESS:    1138838  HIT:     534159  MISS:     604679
cpu0_L2C LOAD      ACCESS:     729436  HIT:     190714  MISS:     538722
cpu0_L2C RFO       ACCESS:     121111  HIT:      55332  MISS:      65779
cpu0_L2C PREFETCH  ACCESS:          0  HIT:          0  MISS:          0
cpu0_L2C WRITEBACK ACCESS:     287278  HIT:     287205  MISS:         73
LLC TOTAL     ACCESS:     795726  HIT:     310909  MISS:     484817
LLC LOAD      ACCESS:     538721  HIT:     119609  MISS:     419112
LLC RFO       ACCESS:      65779  HIT:       1491  MISS:      64288
LLC PREFETCH  ACCESS:          0  HIT:          0  MISS:          0
LLC WRITEBACK ACCESS:     191121  HIT:     189731  MISS:       1390
Heartbeat CPU 0 instructions: 78000003 cycles: 58285067 heartbeat IPC: 0.805543 cumulative IPC: 0.646916 (Simulation time: 1 hr 18 min 59 sec) 

Region of Interest Statistics
cpu0_DTLB TOTAL     ACCESS:    7411111  HIT:    7339604  MISS:      71507
cpu0_DTLB LOAD      ACCESS:    6518272  HIT:    6459740  MISS:      58532
cpu0_DTLB RFO       ACCESS:     892839  HIT:     879864  MISS:      12975
cpu0_DTLB PREFETCH  ACCESS:          0  HIT:          0  MISS:          0
cpu0_DTLB WRITEBACK ACCESS:          0  HIT:          0  MISS:          0
cpu0_ITLB TOTAL     ACCESS:    1495387  HIT:    1495352  MISS:         35
cpu0_ITLB LOAD      ACCESS:    1495387  HIT:    1495352  MISS:         35
cpu0_ITLB RFO       ACCESS:          0  HIT:          0  MISS:          0
cpu0_ITLB PREFETCH  ACCESS:          0  HIT:          0  MISS:          0
cpu0_ITLB WRITEBACK ACCESS:          0  HIT:          0  MISS:          0
cpu0_L1I TOTAL     ACCESS:     347915  HIT:     346529  MISS:       1386
cpu0_L1I LOAD      ACCESS:     347915  HIT:     346529  MISS:       1386
cpu0_L1I RFO       ACCESS:          0  HIT:          0  MISS:          0
cpu0_L1I PREFETCH  ACCESS:          0  HIT:          0  MISS:          0
cpu0_L1I WRITEBACK ACCESS:          0  HIT:          0  MISS:          0
cpu0_STLB TOTAL     ACCESS:      71542  HIT:      64434  MISS:       7108
cpu0_STLB LOAD      ACCESS:      58567  HIT:      52447  MISS:       6120
cpu0_STLB RFO       ACCESS:      12975  HIT:      11987  MISS:        988
cpu0_STLB PREFETCH  ACCESS:          0  HIT:          0  MISS:          0
cpu0_STLB WRITEBACK ACCESS:          0  HIT:          0  MISS:          0
cpu0_L1D TOTAL     ACCESS:    6619889  HIT:    5683512  MISS:     936377
cpu0_L1D LOAD      ACCESS:    5142381  HIT:    4335324  MISS:     807057
cpu0_L1D RFO       ACCESS:    1471435  HIT:    1343210  MISS:     128225
cpu0_L1D PREFETCH  ACCESS:          0  HIT:          0  MISS:          0
cpu0_L1D WRITEBACK ACCESS:          0  HIT:          0  MISS:          0
cpu0_L2C TOTAL     ACCESS:    1244254  HIT:     601041  MISS:     643213
cpu0_L2C LOAD      ACCESS:     808420  HIT:     231179  MISS:     577241
cpu0_L2C RFO       ACCESS:     128209  HIT:      62422  MISS:      65787
cpu0_L2C PREFETCH  ACCESS:          0  HIT:          0  MISS:          0
cpu0_L2C WRITEBACK ACCESS:     306530  HIT:     306457  MISS:         73
LLC TOTAL     ACCESS:     838490  HIT:     324558  MISS:     513932
LLC LOAD      ACCESS:     577240  HIT:     129014  MISS:     448226
LLC RFO       ACCESS:      65787  HIT:       1499  MISS:      64288
LLC PREFETCH  ACCESS:          0  HIT:          0  MISS:          0
LLC WRITEBACK ACCESS:     195351  HIT:     193960  MISS:       1391
Heartbeat CPU 0 instructions: 80000003 cycles: 60634821 heartbeat IPC: 0.851153 cumulative IPC: 0.657433 (Simulation time: 1 hr 22 min 4 sec) 

Region of Interest Statistics
cpu0_DTLB TOTAL     ACCESS:    8016972  HIT:    7927955  MISS:      89017
cpu0_DTLB LOAD      ACCESS:    7063597  HIT:    6992499  MISS:      71098
cpu0_DTLB RFO       ACCESS:     953375  HIT:     935456  MISS:      17919
cpu0_DTLB PREFETCH  ACCESS:          0  HIT:          0  MISS:          0
cpu0_DTLB WRITEBACK ACCESS:          0  HIT:          0  MISS:          0
cpu0_ITLB TOTAL     ACCESS:    1594961  HIT:    1594920  MISS:         41
cpu0_ITLB LOAD      ACCESS:    1594961  HIT:    1594920  MISS:         41
cpu0_ITLB RFO       ACCESS:          0  HIT:          0  MISS:          0
cpu0_ITLB PREFETCH  ACCESS:          0  HIT:          0  MISS:          0
cpu0_ITLB WRITEBACK ACCESS:          0  HIT:          0  MISS:          0
cpu0_L1I TOTAL     ACCESS:     371268  HIT:     369638  MISS:       1630
cpu0_L1I LOAD      ACCESS:     371268  HIT:     369638  MISS:       1630
cpu0_L1I RFO       ACCESS:          0  HIT:          0  MISS:          0
cpu0_L1I PREFETCH  ACCESS:          0  HIT:          0  MISS:          0
cpu0_L1I WRITEBACK ACCESS:          0  HIT:          0  MISS:          0
cpu0_STLB TOTAL     ACCESS:      89058  HIT:      81447  MISS:       7611
cpu0_STLB LOAD      ACCESS:      71139  HIT:      64572  MISS:       6567
cpu0_STLB RFO       ACCESS:      17919  HIT:      16875  MISS:       1044
cpu0_STLB PREFETCH  ACCESS:          0  HIT:          0  MISS:          0
cpu0_STLB WRITEBACK ACCESS:          0  HIT:          0  MISS:          0
cpu0_L1D TOTAL     ACCESS:    7160234  HIT:    6166887  MISS:     993347
cpu0_L1D LOAD      ACCESS:    5605292  HIT:    4747876  MISS:     857416
cpu0_L1D RFO       ACCESS:    1548473  HIT:    1413704  MISS:     134769
cpu0_L1D PREFETCH  ACCESS:          0  HIT:          0  MISS:          0
cpu0_L1D WRITEBACK ACCESS:          0  HIT:          0  MISS:          0
cpu0_L2C TOTAL     ACCESS:    1317651  HIT:     635479  MISS:     682172
cpu0_L2C LOAD      ACCESS:     859023  HIT:     246536  MISS:     612487
cpu0_L2C RFO       ACCESS:     134752  HIT:      65279  MISS:      69473
cpu0_L2C PREFETCH  ACCESS:          0  HIT:          0  MISS:          0
cpu0_L2C WRITEBACK ACCESS:     322714  HIT:     322630  MISS:         84
LLC TOTAL     ACCESS:     887541  HIT:     342323  MISS:     545218
LLC LOAD      ACCESS:     612486  HIT:     136863  MISS:     475623
LLC RFO       ACCESS:      69473  HIT:       1735  MISS:      67738
LLC PREFETCH  ACCESS:          0  HIT:          0  MISS:          0
LLC WRITEBACK ACCESS:     205454  HIT:     203631  MISS:       1823
Heartbeat CPU 0 instructions: 82000003 cycles: 62528761 heartbeat IPC: 1.056 cumulative IPC: 0.673316 (Simulation time: 1 hr 24 min 49 sec) 

Region of Interest Statistics
cpu0_DTLB TOTAL     ACCESS:    8626251  HIT:    8536661  MISS:      89590
cpu0_DTLB LOAD      ACCESS:    7616233  HIT:    7544649  MISS:      71584
cpu0_DTLB RFO       ACCESS:    1010018  HIT:     992012  MISS:      18006
cpu0_DTLB PREFETCH  ACCESS:          0  HIT:          0  MISS:          0
cpu0_DTLB WRITEBACK ACCESS:          0  HIT:          0  MISS:          0
cpu0_ITLB TOTAL     ACCESS:    1686286  HIT:    1686245  MISS:         41
cpu0_ITLB LOAD      ACCESS:    1686286  HIT:    1686245  MISS:         41
cpu0_ITLB RFO       ACCESS:          0  HIT:          0  MISS:          0
cpu0_ITLB PREFETCH  ACCESS:          0  HIT:          0  MISS:          0
cpu0_ITLB WRITEBACK ACCESS:          0  HIT:          0  MISS:          0
cpu0_L1I TOTAL     ACCESS:     392953  HIT:     391323  MISS:       1630
cpu0_L1I LOAD      ACCESS:     392953  HIT:     391323  MISS:       1630
cpu0_L1I RFO       ACCESS:          0  HIT:          0  MISS:          0
cpu0_L1I PREFETCH  ACCESS:          0  HIT:          0  MISS:          0
cpu0_L1I WRITEBACK ACCESS:          0  HIT:          0  MISS:          0
cpu0_STLB TOTAL     ACCESS:      89631  HIT:      81744  MISS:       7887
cpu0_STLB LOAD      ACCESS:      71625  HIT:      64848  MISS:       6777
cpu0_STLB RFO       ACCESS:      18006  HIT:      16896  MISS:       1110
cpu0_STLB PREFETCH  ACCESS:          0  HIT:          0  MISS:          0
cpu0_STLB WRITEBACK ACCESS:          0  HIT:          0  MISS:          0
cpu0_L1D TOTAL     ACCESS:    7694238  HIT:    6663201  MISS:    1031037
cpu0_L1D LOAD      ACCESS:    6072733  HIT:    5184366  MISS:     888367
cpu0_L1D RFO       ACCESS:    1614760  HIT:    1473299  MISS:     141461
cpu0_L1D PREFETCH  ACCESS:          0  HIT:          0  MISS:          0
cpu0_L1D WRITEBACK ACCESS:          0  HIT:          0  MISS:          0
cpu0_L2C TOTAL     ACCESS:    1363264  HIT:     655539  MISS:     707725
cpu0_L2C LOAD      ACCESS:     889974  HIT:     256216  MISS:     633758
cpu0_L2C RFO       ACCESS:     141444  HIT:      67694  MISS:      73750
cpu0_L2C PREFETCH  ACCESS:          0  HIT:          0  MISS:          0
cpu0_L2C WRITEBACK ACCESS:     330637  HIT:     330553  MISS:         84
LLC TOTAL     ACCESS:     917596  HIT:     349563  MISS:     568033
LLC LOAD      ACCESS:     633757  HIT:     139504  MISS:     494253
LLC RFO       ACCESS:      73750  HIT:       1828  MISS:      71922
LLC PREFETCH  ACCESS:          0  HIT:          0  MISS:          0
LLC WRITEBACK ACCESS:     209956  HIT:     208133  MISS:       1823
Heartbeat CPU 0 instructions: 84000003 cycles: 65630096 heartbeat IPC: 0.644884 cumulative IPC: 0.671575 (Simulation time: 1 hr 28 min 39 sec) 

Region of Interest Statistics
cpu0_DTLB TOTAL     ACCESS:    9179708  HIT:    9088899  MISS:      90809
cpu0_DTLB LOAD      ACCESS:    8096548  HIT:    8023911  MISS:      72637
cpu0_DTLB RFO       ACCESS:    1083160  HIT:    1064988  MISS:      18172
cpu0_DTLB PREFETCH  ACCESS:          0  HIT:          0  MISS:          0
cpu0_DTLB WRITEBACK ACCESS:          0  HIT:          0  MISS:          0
cpu0_ITLB TOTAL     ACCESS:    1811441  HIT:    1811400  MISS:         41
cpu0_ITLB LOAD      ACCESS:    1811441  HIT:    1811400  MISS:         41
cpu0_ITLB RFO       ACCESS:          0  HIT:          0  MISS:          0
cpu0_ITLB PREFETCH  ACCESS:          0  HIT:          0  MISS:          0
cpu0_ITLB WRITEBACK ACCESS:          0  HIT:          0  MISS:          0
cpu0_L1I TOTAL     ACCESS:     419319  HIT:     417624  MISS:       1695
cpu0_L1I LOAD      ACCESS:     419319  HIT:     417624  MISS:       1695
cpu0_L1I RFO       ACCESS:          0  HIT:          0  MISS:          0
cpu0_L1I PREFETCH  ACCESS:          0  HIT:          0  MISS:          0
cpu0_L1I WRITEBACK ACCESS:          0  HIT:          0  MISS:          0
cpu0_STLB TOTAL     ACCESS:      90850  HIT:      82412  MISS:       8438
cpu0_STLB LOAD      ACCESS:      72678  HIT:      65502  MISS:       7176
cpu0_STLB RFO       ACCESS:      18172  HIT:      16910  MISS:       1262
cpu0_STLB PREFETCH  ACCESS:          0  HIT:          0  MISS:          0
cpu0_STLB WRITEBACK ACCESS:          0  HIT:          0  MISS:          0
cpu0_L1D TOTAL     ACCESS:    8153512  HIT:    7049355  MISS:    1104157
cpu0_L1D LOAD      ACCESS:    6436221  HIT:    5486615  MISS:     949606
cpu0_L1D RFO       ACCESS:    1709997  HIT:    1556692  MISS:     153305
cpu0_L1D PREFETCH  ACCESS:          0  HIT:          0  MISS:          0
cpu0_L1D WRITEBACK ACCESS:          0  HIT:          0  MISS:          0
cpu0_L2C TOTAL     ACCESS:    1462774  HIT:     700926  MISS:     761848
cpu0_L2C LOAD      ACCESS:     951273  HIT:     272850  MISS:     678423
cpu0_L2C RFO       ACCESS:     153286  HIT:      70095  MISS:      83191
cpu0_L2C PREFETCH  ACCESS:          0  HIT:          0  MISS:          0
cpu0_L2C WRITEBACK ACCESS:     356969  HIT:     356872  MISS:         97
LLC TOTAL     ACCESS:     993815  HIT:     380366  MISS:     613449
LLC LOAD      ACCESS:     678422  HIT:     148280  MISS:     530142
LLC RFO       ACCESS:      83191  HIT:       1837  MISS:      81354
LLC PREFETCH  ACCESS:          0  HIT:          0  MISS:          0
LLC WRITEBACK ACCESS:     232065  HIT:     230147  MISS:       1918
Heartbeat CPU 0 instructions: 86000002 cycles: 67946012 heartbeat IPC: 0.863589 cumulative IPC: 0.679974 (Simulation time: 1 hr 31 min 39 sec) 

Region of Interest Statistics
cpu0_DTLB TOTAL     ACCESS:    9726889  HIT:    9625456  MISS:     101433
cpu0_DTLB LOAD      ACCESS:    8591895  HIT:    8510827  MISS:      81068
cpu0_DTLB RFO       ACCESS:    1134994  HIT:    1114629  MISS:      20365
cpu0_DTLB PREFETCH  ACCESS:          0  HIT:          0  MISS:          0
cpu0_DTLB WRITEBACK ACCESS:          0  HIT:          0  MISS:          0
cpu0_ITLB TOTAL     ACCESS:    1916560  HIT:    1916515  MISS:         45
cpu0_ITLB LOAD      ACCESS:    1916560  HIT:    1916515  MISS:         45
cpu0_ITLB RFO       ACCESS:          0  HIT:          0  MISS:          0
cpu0_ITLB PREFETCH  ACCESS:          0  HIT:          0  MISS:          0
cpu0_ITLB WRITEBACK ACCESS:          0  HIT:          0  MISS:          0
cpu0_L1I TOTAL     ACCESS:     454284  HIT:     452280  MISS:       2004
cpu0_L1I LOAD      ACCESS:     454284  HIT:     452280  MISS:       2004
cpu0_L1I RFO       ACCESS:          0  HIT:          0  MISS:          0
cpu0_L1I PREFETCH  ACCESS:          0  HIT:          0  MISS:          0
cpu0_L1I WRITEBACK ACCESS:          0  HIT:          0  MISS:          0
cpu0_STLB TOTAL     ACCESS:     101478  HIT:      92721  MISS:       8757
cpu0_STLB LOAD      ACCESS:      81113  HIT:      73619  MISS:       7494
cpu0_STLB RFO       ACCESS:      20365  HIT:      19102  MISS:       1263
cpu0_STLB PREFETCH  ACCESS:          0  HIT:          0  MISS:          0
cpu0_STLB WRITEBACK ACCESS:          0  HIT:          0  MISS:          0
cpu0_L1D TOTAL     ACCESS:    8649926  HIT:    7476625  MISS:    1173301
cpu0_L1D LOAD      ACCESS:    6826715  HIT:    5812379  MISS:    1014336
cpu0_L1D RFO       ACCESS:    1815605  HIT:    1657965  MISS:     157640
cpu0_L1D PREFETCH  ACCESS:          0  HIT:          0  MISS:          0
cpu0_L1D WRITEBACK ACCESS:          0  HIT:          0  MISS:          0
cpu0_L2C TOTAL     ACCESS:    1549430  HIT:     743065  MISS:     806365
cpu0_L2C LOAD      ACCESS:    1016306  HIT:     293655  MISS:     722651
cpu0_L2C RFO       ACCESS:     157619  HIT:      74164  MISS:      83455
cpu0_L2C PREFETCH  ACCESS:          0  HIT:          0  MISS:          0
cpu0_L2C WRITEBACK ACCESS:     374180  HIT:     374070  MISS:        110
LLC TOTAL     ACCESS:    1048487  HIT:     407008  MISS:     641479
LLC LOAD      ACCESS:     722650  HIT:     164666  MISS:     557984
LLC RFO       ACCESS:      83455  HIT:       1980  MISS:      81475
LLC PREFETCH  ACCESS:          0  HIT:          0  MISS:          0
LLC WRITEBACK ACCESS:     242233  HIT:     240252  MISS:       1981
Heartbeat CPU 0 instructions: 88000004 cycles: 70245235 heartbeat IPC: 0.86986 cumulative IPC: 0.687877 (Simulation time: 1 hr 34 min 33 sec) 

Region of Interest Statistics
cpu0_DTLB TOTAL     ACCESS:   10285589  HIT:   10180280  MISS:     105309
cpu0_DTLB LOAD      ACCESS:    9093171  HIT:    9008426  MISS:      84745
cpu0_DTLB RFO       ACCESS:    1192418  HIT:    1171854  MISS:      20564
cpu0_DTLB PREFETCH  ACCESS:          0  HIT:          0  MISS:          0
cpu0_DTLB WRITEBACK ACCESS:          0  HIT:          0  MISS:          0
cpu0_ITLB TOTAL     ACCESS:    2006882  HIT:    2006837  MISS:         45
cpu0_ITLB LOAD      ACCESS:    2006882  HIT:    2006837  MISS:         45
cpu0_ITLB RFO       ACCESS:          0  HIT:          0  MISS:          0
cpu0_ITLB PREFETCH  ACCESS:          0  HIT:          0  MISS:          0
cpu0_ITLB WRITEBACK ACCESS:          0  HIT:          0  MISS:          0
cpu0_L1I TOTAL     ACCESS:     482763  HIT:     480759  MISS:       2004
cpu0_L1I LOAD      ACCESS:     482763  HIT:     480759  MISS:       2004
cpu0_L1I RFO       ACCESS:          0  HIT:          0  MISS:          0
cpu0_L1I PREFETCH  ACCESS:          0  HIT:          0  MISS:          0
cpu0_L1I WRITEBACK ACCESS:          0  HIT:          0  MISS:          0
cpu0_STLB TOTAL     ACCESS:     105354  HIT:      96181  MISS:       9173
cpu0_STLB LOAD      ACCESS:      84790  HIT:      76880  MISS:       7910
cpu0_STLB RFO       ACCESS:      20564  HIT:      19301  MISS:       1263
cpu0_STLB PREFETCH  ACCESS:          0  HIT:          0  MISS:          0
cpu0_STLB WRITEBACK ACCESS:          0  HIT:          0  MISS:          0
cpu0_L1D TOTAL     ACCESS:    9156757  HIT:    7932036  MISS:    1224721
cpu0_L1D LOAD      ACCESS:    7204081  HIT:    6143523  MISS:    1060558
cpu0_L1D RFO       ACCESS:    1944658  HIT:    1781922  MISS:     162736
cpu0_L1D PREFETCH  ACCESS:          0  HIT:          0  MISS:          0
cpu0_L1D WRITEBACK ACCESS:          0  HIT:          0  MISS:          0
cpu0_L2C TOTAL     ACCESS:    1613083  HIT:     772836  MISS:     840247
cpu0_L2C LOAD      ACCESS:    1062526  HIT:     306069  MISS:     756457
cpu0_L2C RFO       ACCESS:     162714  HIT:      79189  MISS:      83525
cpu0_L2C PREFETCH  ACCESS:          0  HIT:          0  MISS:          0
cpu0_L2C WRITEBACK ACCESS:     386416  HIT:     386301  MISS:        115
LLC TOTAL     ACCESS:    1088394  HIT:     416837  MISS:     671557
LLC LOAD      ACCESS:     756456  HIT:     168466  MISS:     587990
LLC RFO       ACCESS:      83525  HIT:       1980  MISS:      81545
LLC PREFETCH  ACCESS:          0  HIT:          0  MISS:          0
LLC WRITEBACK ACCESS:     248263  HIT:     246280  MISS:       1983
Heartbeat CPU 0 instructions: 90000001 cycles: 72654090 heartbeat IPC: 0.830269 cumulative IPC: 0.693827 (Simulation time: 1 hr 37 min 29 sec) 

Region of Interest Statistics
cpu0_DTLB TOTAL     ACCESS:   10846906  HIT:   10737488  MISS:     109418
cpu0_DTLB LOAD      ACCESS:    9597215  HIT:    9508571  MISS:      88644
cpu0_DTLB RFO       ACCESS:    1249691  HIT:    1228917  MISS:      20774
cpu0_DTLB PREFETCH  ACCESS:          0  HIT:          0  MISS:          0
cpu0_DTLB WRITEBACK ACCESS:          0  HIT:          0  MISS:          0
cpu0_ITLB TOTAL     ACCESS:    2097769  HIT:    2097724  MISS:         45
cpu0_ITLB LOAD      ACCESS:    2097769  HIT:    2097724  MISS:         45
cpu0_ITLB RFO       ACCESS:          0  HIT:          0  MISS:          0
cpu0_ITLB PREFETCH  ACCESS:          0  HIT:          0  MISS:          0
cpu0_ITLB WRITEBACK ACCESS:          0  HIT:          0  MISS:          0
cpu0_L1I TOTAL     ACCESS:     512035  HIT:     510031  MISS:       2004
cpu0_L1I LOAD      ACCESS:     512035  HIT:     510031  MISS:       2004
cpu0_L1I RFO       ACCESS:          0  HIT:          0  MISS:          0
cpu0_L1I PREFETCH  ACCESS:          0  HIT:          0  MISS:          0
cpu0_L1I WRITEBACK ACCESS:          0  HIT:          0  MISS:          0
cpu0_STLB TOTAL     ACCESS:     109464  HIT:      99763  MISS:       9701
cpu0_STLB LOAD      ACCESS:      88690  HIT:      80252  MISS:       8438
cpu0_STLB RFO       ACCESS:      20774  HIT:      19511  MISS:       1263
cpu0_STLB PREFETCH  ACCESS:          0  HIT:          0  MISS:          0
cpu0_STLB WRITEBACK ACCESS:          0  HIT:          0  MISS:          0
cpu0_L1D TOTAL     ACCESS:    9668592  HIT:    8392115  MISS:    1276477
cpu0_L1D LOAD      ACCESS:    7587706  HIT:    6480497  MISS:    1107209
cpu0_L1D RFO       ACCESS:    2072369  HIT:    1904656  MISS:     167713
cpu0_L1D PREFETCH  ACCESS:          0  HIT:          0  MISS:          0
cpu0_L1D WRITEBACK ACCESS:          0  HIT:          0  MISS:          0
cpu0_L2C TOTAL     ACCESS:    1677242  HIT:     802911  MISS:     874331
cpu0_L2C LOAD      ACCESS:    1109177  HIT:     318719  MISS:     790458
cpu0_L2C RFO       ACCESS:     167691  HIT:      84091  MISS:      83600
cpu0_L2C PREFETCH  ACCESS:          0  HIT:          0  MISS:          0
cpu0_L2C WRITEBACK ACCESS:     398819  HIT:     398697  MISS:        122
LLC TOTAL     ACCESS:    1128789  HIT:     425903  MISS:     702886
LLC LOAD      ACCESS:     790457  HIT:     171221  MISS:     619236
LLC RFO       ACCESS:      83600  HIT:       1980  MISS:      81620
LLC PREFETCH  ACCESS:          0  HIT:          0  MISS:          0
LLC WRITEBACK ACCESS:     254581  HIT:     252590  MISS:       1991
Heartbeat CPU 0 instructions: 92000002 cycles: 75101318 heartbeat IPC: 0.817252 cumulative IPC: 0.698853 (Simulation time: 1 hr 40 min 30 sec) 

Region of Interest Statistics
cpu0_DTLB TOTAL     ACCESS:   11404630  HIT:   11291342  MISS:     113288
cpu0_DTLB LOAD      ACCESS:   10097832  HIT:   10005517  MISS:      92315
cpu0_DTLB RFO       ACCESS:    1306798  HIT:    1285825  MISS:      20973
cpu0_DTLB PREFETCH  ACCESS:          0  HIT:          0  MISS:          0
cpu0_DTLB WRITEBACK ACCESS:          0  HIT:          0  MISS:          0
cpu0_ITLB TOTAL     ACCESS:    2187500  HIT:    2187455  MISS:         45
cpu0_ITLB LOAD      ACCESS:    2187500  HIT:    2187455  MISS:         45
cpu0_ITLB RFO       ACCESS:          0  HIT:          0  MISS:          0
cpu0_ITLB PREFETCH  ACCESS:          0  HIT:          0  MISS:          0
cpu0_ITLB WRITEBACK ACCESS:          0  HIT:          0  MISS:          0
cpu0_L1I TOTAL     ACCESS:     540373  HIT:     538369  MISS:       2004
cpu0_L1I LOAD      ACCESS:     540373  HIT:     538369  MISS:       2004
cpu0_L1I RFO       ACCESS:          0  HIT:          0  MISS:          0
cpu0_L1I PREFETCH  ACCESS:          0  HIT:          0  MISS:          0
cpu0_L1I WRITEBACK ACCESS:          0  HIT:          0  MISS:          0
cpu0_STLB TOTAL     ACCESS:     113333  HIT:     103070  MISS:      10263
cpu0_STLB LOAD      ACCESS:      92360  HIT:      83360  MISS:       9000
cpu0_STLB RFO       ACCESS:      20973  HIT:      19710  MISS:       1263
cpu0_STLB PREFETCH  ACCESS:          0  HIT:          0  MISS:          0
cpu0_STLB WRITEBACK ACCESS:          0  HIT:          0  MISS:          0
cpu0_L1D TOTAL     ACCESS:   10174530  HIT:    8847028  MISS:    1327502
cpu0_L1D LOAD      ACCESS:    7964048  HIT:    6810838  MISS:    1153210
cpu0_L1D RFO       ACCESS:    2201451  HIT:    2028834  MISS:     172617
cpu0_L1D PREFETCH  ACCESS:          0  HIT:          0  MISS:          0
cpu0_L1D WRITEBACK ACCESS:          0  HIT:          0  MISS:          0
cpu0_L2C TOTAL     ACCESS:    1740366  HIT:     832510  MISS:     907856
cpu0_L2C LOAD      ACCESS:    1155175  HIT:     331271  MISS:     823904
cpu0_L2C RFO       ACCESS:     172595  HIT:      88925  MISS:      83670
cpu0_L2C PREFETCH  ACCESS:          0  HIT:          0  MISS:          0
cpu0_L2C WRITEBACK ACCESS:     410921  HIT:     410793  MISS:        128
LLC TOTAL     ACCESS:    1168416  HIT:     434254  MISS:     734162
LLC LOAD      ACCESS:     823903  HIT:     173461  MISS:     650442
LLC RFO       ACCESS:      83670  HIT:       1980  MISS:      81690
LLC PREFETCH  ACCESS:          0  HIT:          0  MISS:          0
LLC WRITEBACK ACCESS:     260689  HIT:     258698  MISS:       1991
Heartbeat CPU 0 instructions: 94000004 cycles: 82984209 heartbeat IPC: 0.253714 cumulative IPC: 0.647236 (Simulation time: 1 hr 48 min 32 sec) 

Region of Interest Statistics
cpu0_DTLB TOTAL     ACCESS:   12000723  HIT:   11882562  MISS:     118161
cpu0_DTLB LOAD      ACCESS:   10587654  HIT:   10490655  MISS:      96999
cpu0_DTLB RFO       ACCESS:    1413069  HIT:    1391907  MISS:      21162
cpu0_DTLB PREFETCH  ACCESS:          0  HIT:          0  MISS:          0
cpu0_DTLB WRITEBACK ACCESS:          0  HIT:          0  MISS:          0
cpu0_ITLB TOTAL     ACCESS:    2284415  HIT:    2284370  MISS:         45
cpu0_ITLB LOAD      ACCESS:    2284415  HIT:    2284370  MISS:         45
cpu0_ITLB RFO       ACCESS:          0  HIT:          0  MISS:          0
cpu0_ITLB PREFETCH  ACCESS:          0  HIT:          0  MISS:          0
cpu0_ITLB WRITEBACK ACCESS:          0  HIT:          0  MISS:          0
cpu0_L1I TOTAL     ACCESS:     558701  HIT:     556586  MISS:       2115
cpu0_L1I LOAD      ACCESS:     558701  HIT:     556586  MISS:       2115
cpu0_L1I RFO       ACCESS:          0  HIT:          0  MISS:          0
cpu0_L1I PREFETCH  ACCESS:          0  HIT:          0  MISS:          0
cpu0_L1I WRITEBACK ACCESS:          0  HIT:          0  MISS:          0
cpu0_STLB TOTAL     ACCESS:     118206  HIT:     106859  MISS:      11347
cpu0_STLB LOAD      ACCESS:      97044  HIT:      86960  MISS:      10084
cpu0_STLB RFO       ACCESS:      21162  HIT:      19899  MISS:       1263
cpu0_STLB PREFETCH  ACCESS:          0  HIT:          0  MISS:          0
cpu0_STLB WRITEBACK ACCESS:          0  HIT:          0  MISS:          0
cpu0_L1D TOTAL     ACCESS:   10679262  HIT:    9261584  MISS:    1417678
cpu0_L1D LOAD      ACCESS:    8274257  HIT:    7033452  MISS:    1240805
cpu0_L1D RFO       ACCESS:    2395354  HIT:    2220235  MISS:     175119
cpu0_L1D PREFETCH  ACCESS:          0  HIT:          0  MISS:          0
cpu0_L1D WRITEBACK ACCESS:          0  HIT:          0  MISS:          0
cpu0_L2C TOTAL     ACCESS:    1868780  HIT:     880212  MISS:     988568
cpu0_L2C LOAD      ACCESS:    1242878  HIT:     338329  MISS:     904549
cpu0_L2C RFO       ACCESS:     175097  HIT:      91378  MISS:      83719
cpu0_L2C PREFETCH  ACCESS:          0  HIT:          0  MISS:          0
cpu0_L2C WRITEBACK ACCESS:     449051  HIT:     448917  MISS:        134
LLC TOTAL     ACCESS:    1282038  HIT:     478208  MISS:     803830
LLC LOAD      ACCESS:     904548  HIT:     184883  MISS:     719665
LLC RFO       ACCESS:      83719  HIT:       1991  MISS:      81728
LLC PREFETCH  ACCESS:          0  HIT:          0  MISS:          0
LLC WRITEBACK ACCESS:     293605  HIT:     291213  MISS:       2392
Heartbeat CPU 0 instructions: 96000003 cycles: 90411482 heartbeat IPC: 0.269278 cumulative IPC: 0.610009 (Simulation time: 1 hr 55 min 16 sec) 

Region of Interest Statistics
cpu0_DTLB TOTAL     ACCESS:   12575594  HIT:   12433657  MISS:     141937
cpu0_DTLB LOAD      ACCESS:   11065594  HIT:   10949032  MISS:     116562
cpu0_DTLB RFO       ACCESS:    1510000  HIT:    1484625  MISS:      25375
cpu0_DTLB PREFETCH  ACCESS:          0  HIT:          0  MISS:          0
cpu0_DTLB WRITEBACK ACCESS:          0  HIT:          0  MISS:          0
cpu0_ITLB TOTAL     ACCESS:    2381882  HIT:    2381834  MISS:         48
cpu0_ITLB LOAD      ACCESS:    2381882  HIT:    2381834  MISS:         48
cpu0_ITLB RFO       ACCESS:          0  HIT:          0  MISS:          0
cpu0_ITLB PREFETCH  ACCESS:          0  HIT:          0  MISS:          0
cpu0_ITLB WRITEBACK ACCESS:          0  HIT:          0  MISS:          0
cpu0_L1I TOTAL     ACCESS:     583189  HIT:     580859  MISS:       2330
cpu0_L1I LOAD      ACCESS:     583189  HIT:     580859  MISS:       2330
cpu0_L1I RFO       ACCESS:          0  HIT:          0  MISS:          0
cpu0_L1I PREFETCH  ACCESS:          0  HIT:          0  MISS:          0
cpu0_L1I WRITEBACK ACCESS:          0  HIT:          0  MISS:          0
cpu0_STLB TOTAL     ACCESS:     141985  HIT:     129281  MISS:      12704
cpu0_STLB LOAD      ACCESS:     116610  HIT:     105318  MISS:      11292
cpu0_STLB RFO       ACCESS:      25375  HIT:      23963  MISS:       1412
cpu0_STLB PREFETCH  ACCESS:          0  HIT:          0  MISS:          0
cpu0_STLB WRITEBACK ACCESS:          0  HIT:          0  MISS:          0
cpu0_L1D TOTAL     ACCESS:   11134229  HIT:    9622768  MISS:    1511461
cpu0_L1D LOAD      ACCESS:    8612835  HIT:    7287377  MISS:    1325458
cpu0_L1D RFO       ACCESS:    2510793  HIT:    2326578  MISS:     184215
cpu0_L1D PREFETCH  ACCESS:          0  HIT:          0  MISS:          0
cpu0_L1D WRITEBACK ACCESS:          0  HIT:          0  MISS:          0
cpu0_L2C TOTAL     ACCESS:    2001998  HIT:     921769  MISS:    1080229
cpu0_L2C LOAD      ACCESS:    1327746  HIT:     340641  MISS:     987105
cpu0_L2C RFO       ACCESS:     184193  HIT:      91390  MISS:      92803
cpu0_L2C PREFETCH  ACCESS:          0  HIT:          0  MISS:          0
cpu0_L2C WRITEBACK ACCESS:     488271  HIT:     488132  MISS:        139
LLC TOTAL     ACCESS:    1413327  HIT:     536189  MISS:     877138
LLC LOAD      ACCESS:     987104  HIT:     203657  MISS:     783447
LLC RFO       ACCESS:      92803  HIT:       1995  MISS:      90808
LLC PREFETCH  ACCESS:          0  HIT:          0  MISS:          0
LLC WRITEBACK ACCESS:     333238  HIT:     330404  MISS:       2834
Heartbeat CPU 0 instructions: 98000002 cycles: 96907248 heartbeat IPC: 0.307893 cumulative IPC: 0.586049 (Simulation time: 2 hr 1 min 18 sec) 

Region of Interest Statistics
cpu0_DTLB TOTAL     ACCESS:   13086407  HIT:   12942203  MISS:     144204
cpu0_DTLB LOAD      ACCESS:   11467945  HIT:   11349289  MISS:     118656
cpu0_DTLB RFO       ACCESS:    1618462  HIT:    1592914  MISS:      25548
cpu0_DTLB PREFETCH  ACCESS:          0  HIT:          0  MISS:          0
cpu0_DTLB WRITEBACK ACCESS:          0  HIT:          0  MISS:          0
cpu0_ITLB TOTAL     ACCESS:    2501409  HIT:    2501350  MISS:         59
cpu0_ITLB LOAD      ACCESS:    2501409  HIT:    2501350  MISS:         59
cpu0_ITLB RFO       ACCESS:          0  HIT:          0  MISS:          0
cpu0_ITLB PREFETCH  ACCESS:          0  HIT:          0  MISS:          0
cpu0_ITLB WRITEBACK ACCESS:          0  HIT:          0  MISS:          0
cpu0_L1I TOTAL     ACCESS:     593192  HIT:     590577  MISS:       2615
cpu0_L1I LOAD      ACCESS:     593192  HIT:     590577  MISS:       2615
cpu0_L1I RFO       ACCESS:          0  HIT:          0  MISS:          0
cpu0_L1I PREFETCH  ACCESS:          0  HIT:          0  MISS:          0
cpu0_L1I WRITEBACK ACCESS:          0  HIT:          0  MISS:          0
cpu0_STLB TOTAL     ACCESS:     144263  HIT:     130539  MISS:      13724
cpu0_STLB LOAD      ACCESS:     118715  HIT:     106550  MISS:      12165
cpu0_STLB RFO       ACCESS:      25548  HIT:      23989  MISS:       1559
cpu0_STLB PREFETCH  ACCESS:          0  HIT:          0  MISS:          0
cpu0_STLB WRITEBACK ACCESS:          0  HIT:          0  MISS:          0
cpu0_L1D TOTAL     ACCESS:   11555797  HIT:    9955291  MISS:    1600506
cpu0_L1D LOAD      ACCESS:    8874625  HIT:    7474479  MISS:    1400146
cpu0_L1D RFO       ACCESS:    2669766  HIT:    2471235  MISS:     198531
cpu0_L1D PREFETCH  ACCESS:          0  HIT:          0  MISS:          0
cpu0_L1D WRITEBACK ACCESS:          0  HIT:          0  MISS:          0
cpu0_L2C TOTAL     ACCESS:    2145278  HIT:     981457  MISS:    1163821
cpu0_L2C LOAD      ACCESS:    1402719  HIT:     344256  MISS:    1058463
cpu0_L2C RFO       ACCESS:     198509  HIT:      93499  MISS:     105010
cpu0_L2C PREFETCH  ACCESS:          0  HIT:          0  MISS:          0
cpu0_L2C WRITEBACK ACCESS:     542221  HIT:     542076  MISS:        145
LLC TOTAL     ACCESS:    1544259  HIT:     598375  MISS:     945884
LLC LOAD      ACCESS:    1058462  HIT:     217660  MISS:     840802
LLC RFO       ACCESS:     105010  HIT:       3049  MISS:     101961
LLC PREFETCH  ACCESS:          0  HIT:          0  MISS:          0
LLC WRITEBACK ACCESS:     380584  HIT:     377519  MISS:       3065
Heartbeat CPU 0 instructions: 100000001 cycles: 105599172 heartbeat IPC: 0.230099 cumulative IPC: 0.551899 (Simulation time: 2 hr 9 min 43 sec) 

Region of Interest Statistics
cpu0_DTLB TOTAL     ACCESS:   13752614  HIT:   13606762  MISS:     145852
cpu0_DTLB LOAD      ACCESS:   12013800  HIT:   11893764  MISS:     120036
cpu0_DTLB RFO       ACCESS:    1738814  HIT:    1712998  MISS:      25816
cpu0_DTLB PREFETCH  ACCESS:          0  HIT:          0  MISS:          0
cpu0_DTLB WRITEBACK ACCESS:          0  HIT:          0  MISS:          0
cpu0_ITLB TOTAL     ACCESS:    2628464  HIT:    2628392  MISS:         72
cpu0_ITLB LOAD      ACCESS:    2628464  HIT:    2628392  MISS:         72
cpu0_ITLB RFO       ACCESS:          0  HIT:          0  MISS:          0
cpu0_ITLB PREFETCH  ACCESS:          0  HIT:          0  MISS:          0
cpu0_ITLB WRITEBACK ACCESS:          0  HIT:          0  MISS:          0
cpu0_L1I TOTAL     ACCESS:     601187  HIT:     598417  MISS:       2770
cpu0_L1I LOAD      ACCESS:     601187  HIT:     598417  MISS:       2770
cpu0_L1I RFO       ACCESS:          0  HIT:          0  MISS:          0
cpu0_L1I PREFETCH  ACCESS:          0  HIT:          0  MISS:          0
cpu0_L1I WRITEBACK ACCESS:          0  HIT:          0  MISS:          0
cpu0_STLB TOTAL     ACCESS:     145924  HIT:     130669  MISS:      15255
cpu0_STLB LOAD      ACCESS:     120108  HIT:     106680  MISS:      13428
cpu0_STLB RFO       ACCESS:      25816  HIT:      23989  MISS:       1827
cpu0_STLB PREFETCH  ACCESS:          0  HIT:          0  MISS:          0
cpu0_STLB WRITEBACK ACCESS:          0  HIT:          0  MISS:          0
cpu0_L1D TOTAL     ACCESS:   12024376  HIT:   10322027  MISS:    1702349
cpu0_L1D LOAD      ACCESS:    9163544  HIT:    7678503  MISS:    1485041
cpu0_L1D RFO       ACCESS:    2848289  HIT:    2632843  MISS:     215446
cpu0_L1D PREFETCH  ACCESS:          0  HIT:          0  MISS:          0
cpu0_L1D WRITEBACK ACCESS:          0  HIT:          0  MISS:          0
cpu0_L2C TOTAL     ACCESS:    2305043  HIT:    1039293  MISS:    1265750
cpu0_L2C LOAD      ACCESS:    1487769  HIT:     344317  MISS:    1143452
cpu0_L2C RFO       ACCESS:     215424  HIT:      93499  MISS:     121925
cpu0_L2C PREFETCH  ACCESS:          0  HIT:          0  MISS:          0
cpu0_L2C WRITEBACK ACCESS:     599988  HIT:     599838  MISS:        150
LLC TOTAL     ACCESS:    1700105  HIT:     657462  MISS:    1042643
LLC LOAD      ACCESS:    1143451  HIT:     223205  MISS:     920246
LLC RFO       ACCESS:     121925  HIT:       3054  MISS:     118871
LLC PREFETCH  ACCESS:          0  HIT:          0  MISS:          0
LLC WRITEBACK ACCESS:     434506  HIT:     431040  MISS:       3466
Heartbeat CPU 0 instructions: 102000000 cycles: 107188607 heartbeat IPC: 1.25831 cumulative IPC: 0.564078 (Simulation time: 2 hr 11 min 54 sec) 

Region of Interest Statistics
cpu0_DTLB TOTAL     ACCESS:   14347415  HIT:   14201222  MISS:     146193
cpu0_DTLB LOAD      ACCESS:   12553201  HIT:   12432990  MISS:     120211
cpu0_DTLB RFO       ACCESS:    1794214  HIT:    1768232  MISS:      25982
cpu0_DTLB PREFETCH  ACCESS:          0  HIT:          0  MISS:          0
cpu0_DTLB WRITEBACK ACCESS:          0  HIT:          0  MISS:          0
cpu0_ITLB TOTAL     ACCESS:    2675916  HIT:    2675835  MISS:         81
cpu0_ITLB LOAD      ACCESS:    2675916  HIT:    2675835  MISS:         81
cpu0_ITLB RFO       ACCESS:          0  HIT:          0  MISS:          0
cpu0_ITLB PREFETCH  ACCESS:          0  HIT:          0  MISS:          0
cpu0_ITLB WRITEBACK ACCESS:          0  HIT:          0  MISS:          0
cpu0_L1I TOTAL     ACCESS:     606312  HIT:     603383  MISS:       2929
cpu0_L1I LOAD      ACCESS:     606312  HIT:     603383  MISS:       2929
cpu0_L1I RFO       ACCESS:          0  HIT:          0  MISS:          0
cpu0_L1I PREFETCH  ACCESS:          0  HIT:          0  MISS:          0
cpu0_L1I WRITEBACK ACCESS:          0  HIT:          0  MISS:          0
cpu0_STLB TOTAL     ACCESS:     146274  HIT:     130723  MISS:      15551
cpu0_STLB LOAD      ACCESS:     120292  HIT:     106734  MISS:      13558
cpu0_STLB RFO       ACCESS:      25982  HIT:      23989  MISS:       1993
cpu0_STLB PREFETCH  ACCESS:          0  HIT:          0  MISS:          0
cpu0_STLB WRITEBACK ACCESS:          0  HIT:          0  MISS:          0
cpu0_L1D TOTAL     ACCESS:   12536007  HIT:   10794957  MISS:    1741050
cpu0_L1D LOAD      ACCESS:    9613675  HIT:    8101393  MISS:    1512282
cpu0_L1D RFO       ACCESS:    2909494  HIT:    2682638  MISS:     226856
cpu0_L1D PREFETCH  ACCESS:          0  HIT:          0  MISS:          0
cpu0_L1D WRITEBACK ACCESS:          0  HIT:          0  MISS:          0
cpu0_L2C TOTAL     ACCESS:    2360208  HIT:    1074463  MISS:    1285745
cpu0_L2C LOAD      ACCESS:    1515149  HIT:     362001  MISS:    1153148
cpu0_L2C RFO       ACCESS:     226834  HIT:      94622  MISS:     132212
cpu0_L2C PREFETCH  ACCESS:          0  HIT:          0  MISS:          0
cpu0_L2C WRITEBACK ACCESS:     616313  HIT:     616160  MISS:        153
LLC TOTAL     ACCESS:    1738620  HIT:     678757  MISS:    1059863
LLC LOAD      ACCESS:    1153147  HIT:     226023  MISS:     927124
LLC RFO       ACCESS:     132212  HIT:       3058  MISS:     129154
LLC PREFETCH  ACCESS:          0  HIT:          0  MISS:          0
LLC WRITEBACK ACCESS:     453029  HIT:     449506  MISS:       3523
Heartbeat CPU 0 instructions: 104000002 cycles: 108198966 heartbeat IPC: 1.9795 cumulative IPC: 0.579423 (Simulation time: 2 hr 13 min 40 sec) 

Region of Interest Statistics
cpu0_DTLB TOTAL     ACCESS:   14956792  HIT:   14810447  MISS:     146345
cpu0_DTLB LOAD      ACCESS:   13125017  HIT:   13004654  MISS:     120363
cpu0_DTLB RFO       ACCESS:    1831775  HIT:    1805793  MISS:      25982
cpu0_DTLB PREFETCH  ACCESS:          0  HIT:          0  MISS:          0
cpu0_DTLB WRITEBACK ACCESS:          0  HIT:          0  MISS:          0
cpu0_ITLB TOTAL     ACCESS:    2712512  HIT:    2712431  MISS:         81
cpu0_ITLB LOAD      ACCESS:    2712512  HIT:    2712431  MISS:         81
cpu0_ITLB RFO       ACCESS:          0  HIT:          0  MISS:          0
cpu0_ITLB PREFETCH  ACCESS:          0  HIT:          0  MISS:          0
cpu0_ITLB WRITEBACK ACCESS:          0  HIT:          0  MISS:          0
cpu0_L1I TOTAL     ACCESS:     607016  HIT:     604087  MISS:       2929
cpu0_L1I LOAD      ACCESS:     607016  HIT:     604087  MISS:       2929
cpu0_L1I RFO       ACCESS:          0  HIT:          0  MISS:          0
cpu0_L1I PREFETCH  ACCESS:          0  HIT:          0  MISS:          0
cpu0_L1I WRITEBACK ACCESS:          0  HIT:          0  MISS:          0
cpu0_STLB TOTAL     ACCESS:     146426  HIT:     130775  MISS:      15651
cpu0_STLB LOAD      ACCESS:     120444  HIT:     106786  MISS:      13658
cpu0_STLB RFO       ACCESS:      25982  HIT:      23989  MISS:       1993
cpu0_STLB PREFETCH  ACCESS:          0  HIT:          0  MISS:          0
cpu0_STLB WRITEBACK ACCESS:          0  HIT:          0  MISS:          0
cpu0_L1D TOTAL     ACCESS:   13071626  HIT:   11300273  MISS:    1771353
cpu0_L1D LOAD      ACCESS:   10095410  HIT:    8554121  MISS:    1541289
cpu0_L1D RFO       ACCESS:    2963278  HIT:    2735169  MISS:     228109
cpu0_L1D PREFETCH  ACCESS:          0  HIT:          0  MISS:          0
cpu0_L1D WRITEBACK ACCESS:          0  HIT:          0  MISS:          0
cpu0_L2C TOTAL     ACCESS:    2396365  HIT:    1101261  MISS:    1295104
cpu0_L2C LOAD      ACCESS:    1544129  HIT:     381622  MISS:    1162507
cpu0_L2C RFO       ACCESS:     228087  HIT:      95875  MISS:     132212
cpu0_L2C PREFETCH  ACCESS:          0  HIT:          0  MISS:          0
cpu0_L2C WRITEBACK ACCESS:     622194  HIT:     622041  MISS:        153
LLC TOTAL     ACCESS:    1751146  HIT:     684808  MISS:    1066338
LLC LOAD      ACCESS:    1162506  HIT:     228907  MISS:     933599
LLC RFO       ACCESS:     132212  HIT:       3058  MISS:     129154
LLC PREFETCH  ACCESS:          0  HIT:          0  MISS:          0
LLC WRITEBACK ACCESS:     456196  HIT:     452673  MISS:       3523
Heartbeat CPU 0 instructions: 106000004 cycles: 109207140 heartbeat IPC: 1.98379 cumulative IPC: 0.594453 (Simulation time: 2 hr 15 min 25 sec) 

Region of Interest Statistics
cpu0_DTLB TOTAL     ACCESS:   15512306  HIT:   15365796  MISS:     146510
cpu0_DTLB LOAD      ACCESS:   13642563  HIT:   13522038  MISS:     120525
cpu0_DTLB RFO       ACCESS:    1869743  HIT:    1843758  MISS:      25985
cpu0_DTLB PREFETCH  ACCESS:          0  HIT:          0  MISS:          0
cpu0_DTLB WRITEBACK ACCESS:          0  HIT:          0  MISS:          0
cpu0_ITLB TOTAL     ACCESS:    2752355  HIT:    2752273  MISS:         82
cpu0_ITLB LOAD      ACCESS:    2752355  HIT:    2752273  MISS:         82
cpu0_ITLB RFO       ACCESS:          0  HIT:          0  MISS:          0
cpu0_ITLB PREFETCH  ACCESS:          0  HIT:          0  MISS:          0
cpu0_ITLB WRITEBACK ACCESS:          0  HIT:          0  MISS:          0
cpu0_L1I TOTAL     ACCESS:     607957  HIT:     604952  MISS:       3005
cpu0_L1I LOAD      ACCESS:     607957  HIT:     604952  MISS:       3005
cpu0_L1I RFO       ACCESS:          0  HIT:          0  MISS:          0
cpu0_L1I PREFETCH  ACCESS:          0  HIT:          0  MISS:          0
cpu0_L1I WRITEBACK ACCESS:          0  HIT:          0  MISS:          0
cpu0_STLB TOTAL     ACCESS:     146592  HIT:     130851  MISS:      15741
cpu0_STLB LOAD      ACCESS:     120607  HIT:     106860  MISS:      13747
cpu0_STLB RFO       ACCESS:      25985  HIT:      23991  MISS:       1994
cpu0_STLB PREFETCH  ACCESS:          0  HIT:          0  MISS:          0
cpu0_STLB WRITEBACK ACCESS:          0  HIT:          0  MISS:          0
cpu0_L1D TOTAL     ACCESS:   13553517  HIT:   11757871  MISS:    1795646
cpu0_L1D LOAD      ACCESS:   10522608  HIT:    8958032  MISS:    1564576
cpu0_L1D RFO       ACCESS:    3017881  HIT:    2788799  MISS:     229082
cpu0_L1D PREFETCH  ACCESS:          0  HIT:          0  MISS:          0
cpu0_L1D WRITEBACK ACCESS:          0  HIT:          0  MISS:          0
cpu0_L2C TOTAL     ACCESS:    2426001  HIT:    1121153  MISS:    1304848
cpu0_L2C LOAD      ACCESS:    1567467  HIT:     395347  MISS:    1172120
cpu0_L2C RFO       ACCESS:     229060  HIT:      96721  MISS:     132339
cpu0_L2C PREFETCH  ACCESS:          0  HIT:          0  MISS:          0
[...]
cpu0_ITLB LOAD      ACCESS:   66953019  HIT:   66952175  MISS:        844
cpu0_ITLB RFO       ACCESS:          0  HIT:          0  MISS:          0
cpu0_ITLB PREFETCH  ACCESS:          0  HIT:          0  MISS:          0
cpu0_ITLB WRITEBACK ACCESS:          0  HIT:          0  MISS:          0
cpu0_ITLB TRANSLATION ACCESS:          0  HIT:          0  MISS:          0
cpu0_ITLB PREFETCH  REQUESTED:          0  ISSUED:          0  USEFUL:          0  USELESS:          0
cpu0_ITLB AVERAGE MISS LATENCY: 147.018 cycles
cpu0_L1I TOTAL     ACCESS:  106625418  HIT:  106557402  MISS:      68016
cpu0_L1I LOAD      ACCESS:  106625418  HIT:  106557402  MISS:      68016
cpu0_L1I RFO       ACCESS:          0  HIT:          0  MISS:          0
cpu0_L1I PREFETCH  ACCESS:          0  HIT:          0  MISS:          0
cpu0_L1I WRITEBACK ACCESS:          0  HIT:          0  MISS:          0
cpu0_L1I TRANSLATION ACCESS:          0  HIT:          0  MISS:          0
cpu0_L1I PREFETCH  REQUESTED:          0  ISSUED:          0  USEFUL:          0  USELESS:          0
cpu0_L1I AVERAGE MISS LATENCY: 146.623 cycles
cpu0_STLB TOTAL     ACCESS:     817834  HIT:     713586  MISS:     104248
cpu0_STLB LOAD      ACCESS:     635004  HIT:     554266  MISS:      80738
cpu0_STLB RFO       ACCESS:     182830  HIT:     159320  MISS:      23510
cpu0_STLB PREFETCH  ACCESS:          0  HIT:          0  MISS:          0
cpu0_STLB WRITEBACK ACCESS:          0  HIT:          0  MISS:          0
cpu0_STLB TRANSLATION ACCESS:          0  HIT:          0  MISS:          0
cpu0_STLB PREFETCH  REQUESTED:          0  ISSUED:          0  USEFUL:          0  USELESS:          0
cpu0_STLB AVERAGE MISS LATENCY: 115.681 cycles
cpu0_L1D TOTAL     ACCESS:  326415982  HIT:  312013711  MISS:   14402271
cpu0_L1D LOAD      ACCESS:  252919308  HIT:  241586165  MISS:   11333143
cpu0_L1D RFO       ACCESS:   73407143  HIT:   70348997  MISS:    3058146
cpu0_L1D PREFETCH  ACCESS:          0  HIT:          0  MISS:          0
cpu0_L1D WRITEBACK ACCESS:          0  HIT:          0  MISS:          0
cpu0_L1D TRANSLATION ACCESS:      89531  HIT:      78549  MISS:      10982
cpu0_L1D PREFETCH  REQUESTED:          0  ISSUED:          0  USEFUL:          0  USELESS:          0
cpu0_L1D AVERAGE MISS LATENCY: 333.994 cycles
cpu0_L2C TOTAL     ACCESS:   20095918  HIT:    9842786  MISS:   10253132
cpu0_L2C LOAD      ACCESS:   11400441  HIT:    3275218  MISS:    8125223
cpu0_L2C RFO       ACCESS:    3058064  HIT:     935911  MISS:    2122153
cpu0_L2C PREFETCH  ACCESS:          0  HIT:          0  MISS:          0
cpu0_L2C WRITEBACK ACCESS:    5626431  HIT:    5622380  MISS:       4051
cpu0_L2C TRANSLATION ACCESS:      10982  HIT:       9277  MISS:       1705
cpu0_L2C PREFETCH  REQUESTED:          0  ISSUED:          0  USEFUL:          0  USELESS:          0
cpu0_L2C AVERAGE MISS LATENCY: 454.365 cycles
LLC TOTAL     ACCESS:   14457449  HIT:    7218299  MISS:    7239150
LLC LOAD      ACCESS:    8125222  HIT:    2524052  MISS:    5601170
LLC RFO       ACCESS:    2122143  HIT:     521379  MISS:    1600764
LLC PREFETCH  ACCESS:          0  HIT:          0  MISS:          0
LLC WRITEBACK ACCESS:    4208379  HIT:    4171574  MISS:      36805
LLC TRANSLATION ACCESS:       1705  HIT:       1294  MISS:        411
LLC PREFETCH  REQUESTED:          0  ISSUED:          0  USEFUL:          0  USELESS:          0
LLC AVERAGE MISS LATENCY: 613.803 cycles
~~~~~~~~~~Reuse Distance Profiler output~~~~~~~~~~
0	37577520	14774976
1	17907072	11749072
2	15584112	11502768
3	14376176	11202560
4	12502496	10205744
5	11865696	9947920
6	10638544	9017328
7	11271584	10005776
8	9524736	8189328
9	9412080	8304288
10	7849024	7041152
11	6821600	6095744
12	6210784	5427472
13	5696432	5105984
14	4655504	4007856
15	4434512	3522544
16	3786832	3199152
17	3795088	3415408
18	4911472	4193696
19	5216112	4590032
20	5167472	4406144
21	4432304	3900064
22	4229200	3754352
23	5901296	5334208
24	5088016	4620576
25	4139328	3704192
26	5644912	5056464
27	3949552	3574368
28	3137408	2654896
29	2763600	2324080
30	1663152	1398592
31	1472288	1052688
32	1744336	1488880
33	1113712	862240
34	1314800	968624
35	2557568	2002896
36	1501296	1239728
37	3100256	2682096
38	1429056	1075984
39	1247088	931200
40	1794688	1402080
41	947088	737184
42	1205696	993488
43	1060896	835696
44	930064	701872
45	1253984	901776
46	1236704	858160
47	1080320	750240
48	1365840	884848
49	2479792	1661184
50	740112	466528
51	560448	419856
52	579072	418608
53	646080	464320
54	744256	602064
55	854368	649968
56	1294464	1032432
57	1102000	780752
58	966032	745184
59	718256	554512
60	587920	450976
61	1386576	1009008
62	2769856	2005024
63	709696	556544
64	899616	734144
66	1032400	881280
68	2783312	2234752
70	1821712	1357728
72	991296	840864
74	982608	869056
76	725584	626688
78	663648	580176
80	473776	422672
82	434368	396736
84	580288	525600
86	1183600	1120480
88	645792	565248
90	279760	246800
92	329232	291360
94	308080	260352
96	318016	249424
98	225264	186880
100	209840	173744
102	184192	149936
104	145216	119936
106	119664	96832
108	145104	126736
110	164624	142224
112	222432	204352
114	130640	117648
116	122912	111168
118	162336	146496
120	139584	121440
122	107968	89248
124	111344	94816
126	119840	104272
128	236224	208896
132	229600	205856
136	265264	241872
140	257952	239392
144	250848	237200
148	295264	273984
152	215072	188000
156	175632	165088
160	174304	161456
164	202912	182592
168	158560	141392
172	130000	118352
176	166432	143808
180	138352	127344
184	120000	114736
188	131104	127040
192	138720	135584
196	120000	114192
200	203984	175312
204	175344	158464
208	129072	118848
212	106752	103872
216	83568	82080
220	80304	78560
224	75648	74592
228	74192	73376
232	62352	61168
236	65520	64048
240	87392	85760
244	82384	80640
248	75152	73248
252	66304	63888
256	138032	131024
264	207888	201904
272	187248	181376
280	191184	184128
288	162432	150400
296	140816	128560
304	130576	128032
312	187600	171424
320	134992	132992
328	127968	127104
336	132176	116736
344	141392	135920
352	157584	148544
360	159200	150576
368	126304	115008
376	175456	161808
384	166256	143664
392	121392	111280
400	161264	149760
408	207760	199408
416	458944	452912
424	179024	175312
432	135440	131920
440	93936	92832
448	77120	75680
456	78240	76960
464	97824	97344
472	95056	94688
480	141024	140784
488	176592	176400
496	133664	133520
504	91440	90832
512	117776	109984
528	62800	55728
544	59232	57424
560	64656	54960
576	70080	68944
592	56272	55968
608	45680	45392
624	29600	28752
640	23520	20016
656	17920	17408
672	18704	18304
688	26992	24240
704	31600	23728
720	35984	25392
736	28768	19408
752	25920	15552
768	17856	14464
784	22688	14288
800	24432	15248
816	36832	23888
832	45312	33536
848	37328	30176
864	15568	9792
880	25040	9280
896	28352	12944
912	27456	19360
928	26160	20976
944	33232	27248
960	38160	29392
976	31760	23472
992	29072	22112
1008	28256	20304
1024	60912	43936
1056	73120	65056
1088	64192	42416
1120	65824	48704
1152	52192	47232
1184	49440	43680
1216	46192	39200
1248	37392	31376
1280	31888	26464
1312	32608	27296
1344	61568	43184
1376	162608	98992
1408	186608	148112
1440	74432	61824
1472	101936	80544
1504	419936	380272
1536	71856	53072
1568	89392	85040
1600	62960	60096
1632	56912	53872
1664	25936	21696
1696	23952	19328
1728	37968	32656
1760	64192	60432
1792	25568	20928
1824	33552	24288
1856	62336	38112
1888	52224	40400
1920	37744	30944
1952	42896	37824
1984	62048	57264
2016	34256	29616
2048	46608	38320
2112	46016	37936
2176	41936	32000
2240	40688	29792
2304	59936	41216
2368	71568	28368
2432	75984	51440
2496	249152	228032
2560	78256	61696
2624	63440	50496
2688	68144	50896
2752	77296	59952
2816	111504	70032
2880	94352	58688
2944	223648	194704
3008	135712	120096
3072	106272	96784
3136	54080	43264
3200	49216	37280
3264	56752	42160
3328	70416	54240
3392	74944	61248
3456	74576	65264
3520	59648	53728
3584	36256	31072
3648	27760	23056
3712	25168	19568
3776	26080	22176
3840	28688	24656
3904	22048	18320
3968	21856	17728
4032	21680	18144
4096	41280	34464
4224	40080	31296
4352	37744	29984
4480	41744	34432
4608	43856	36016
4736	38736	30224
4864	38000	30736
4992	28688	20976
5120	25536	17824
5248	27984	20304
5376	24080	16288
5504	24544	17232
5632	26272	19360
5760	24288	17360
5888	23872	16064
6016	28368	21920
6144	33600	28704
6272	27872	21152
6400	29872	24336
6528	26352	21616
6656	39264	32416
6784	45904	38656
6912	45680	35600
7040	55952	44464
7168	71504	58528
7296	72160	57392
7424	87552	76640
7552	92048	82624
7680	25936	19376
7808	27952	21296
7936	30144	23552
8064	20864	13808
8192	55808	42464
8448	45904	34224
8704	53840	40528
8960	41264	27280
9216	28496	18496
9472	49520	38976
9728	31120	20688
9984	32256	19120
10240	43808	28960
10496	28208	15248
10752	39152	25392
11008	28272	16640
11264	31840	18480
11520	28400	16272
11776	28032	16640
12032	28448	16848
12288	34672	24960
12544	36208	28832
12800	37952	31248
13056	36432	28912
13312	26864	19920
13568	29072	20864
13824	51632	41872
14080	33776	24368
14336	33168	24352
14592	29008	20288
14848	82880	73248
15104	21728	13632
15360	20928	13168
15616	19920	12336
15872	20480	14368
16128	27856	24176
16384	72576	65088
16896	65632	59200
17408	55632	49984
17920	206016	200048
18432	43376	37904
18944	96576	88896
19456	20368	14016
19968	16288	10848
20480	15584	9136
20992	24160	14928
21504	25600	14384
22016	25568	13360
22528	24400	15152
23040	14944	10352
23552	10064	7408
24064	57424	55664
24576	231152	229632
25088	13616	11920
25600	24880	23664
26112	23440	22016
26624	47456	43088
27136	41936	37376
27648	13264	8720
28160	21904	17648
28672	24720	19808
29184	25120	20384
29696	21248	16976
30208	7296	3024
30720	6928	2752
31232	6720	2640
31744	8560	3888
32256	16064	11456
32768	20720	13376
33792	11552	9120
34816	29616	27200
35840	18880	16304
36864	32016	29808
37888	23104	20944
38912	12448	9744
39936	11248	8672
40960	9168	6736
41984	12800	9712
43008	16416	13472
44032	11600	8432
45056	7904	5216
46080	7552	4816
47104	8176	5296
48128	7008	4416
49152	7312	4560
50176	7408	5120
51200	6992	4704
52224	19856	17520
53248	226720	224352
54272	8144	5712
55296	6864	4240
56320	6416	4208
57344	7200	4864
58368	6912	4384
59392	7072	4704
60416	6976	4544
61440	6352	4560
62464	6752	4800
63488	6032	4384
64512	6736	4800
65536	12864	8992
67584	15776	11952
69632	15632	11584
71680	16848	12800
73728	18576	16800
75776	26192	24720
77824	22432	21152
79872	21632	20096
81920	22192	19936
83968	23520	20464
86016	24576	21472
88064	25568	22624
90112	23632	21680
92160	26976	24624
94208	48016	45744
96256	44896	42448
98304	28496	25600
100352	18864	15600
102400	19376	16640
104448	20688	18048
106496	20480	18240
108544	19696	17568
110592	19472	16944
112640	17216	14752
114688	17008	14912
116736	16320	14128
118784	16752	15072
120832	29088	27104
122880	27376	25360
124928	28320	26544
126976	27120	25616
129024	24832	23232
131072	31600	29776
135168	28080	27344
139264	35520	34944
143360	39136	38304
147456	33600	32048
151552	36160	34720
155648	30896	29648
159744	31120	30000
163840	24832	23776
167936	18592	17216
172032	18672	16832
176128	16176	14496
180224	16960	14912
184320	16032	14240
188416	15856	14064
192512	18496	16608
196608	19792	17824
200704	15296	13456
204800	15744	13232
208896	16064	12800
212992	16672	13808
217088	19184	13376
221184	18848	11424
225280	21824	13680
229376	20176	12480
233472	22672	14512
237568	21520	13056
241664	20752	12816
245760	19120	10912
249856	18864	11168
253952	18528	11408
258048	20016	12352
262144	45520	23536
270336	48160	28880
278528	40768	27744
286720	40320	28080
294912	29632	18352
303104	31104	18672
311296	34144	19056
319488	45040	19568
327680	43792	18272
335872	33936	17712
344064	29568	17792
352256	29824	17456
360448	23232	15520
368640	16272	13168
376832	18304	14640
385024	17856	14608
393216	17184	12992
401408	17024	12992
409600	21776	17552
417792	25360	17968
425984	22304	16640
434176	23024	16560
442368	57216	50704
450560	55456	47904
458752	51072	42848
466944	25280	18352
475136	32944	19120
483328	29520	21232
491520	25840	19408
499712	29232	20400
507904	28176	20784
516096	31984	20896
524288	63056	42960
540672	60288	42000
557056	51264	39920
573440	43792	40080
589824	37824	35328
606208	36896	33712
622592	37536	33392
638976	40288	36688
655360	36288	31136
671744	37232	31824
688128	34640	29248
704512	36048	30416
720896	40288	31104
737280	49936	31968
753664	38128	31568
770048	38144	33040
786432	40016	33408
802816	38528	35920
819200	55072	52832
835584	61776	59424
851968	62848	59952
868352	49904	47760
884736	49120	47152
901120	48848	46992
917504	59136	57280
933888	55728	54160
950272	57072	55472
966656	65216	63760
983040	140544	139200
999424	62384	61104
1015808	54432	52768
1032192	56848	54640
1048576	96416	86656
1081344	98368	90512
1114112	84896	74352
1146880	87568	75888
1179648	85856	67408
1212416	77296	64192
1245184	73088	62640
1277952	76512	67632
1310720	55472	51568
1343488	49376	46384
1376256	45472	42432
1409024	41552	37360
1441792	34432	31952
1474560	42368	31936
1507328	41840	31712
1540096	47664	34336
1572864	54832	36496
1605632	43600	33536
1638400	47568	32816
1671168	37824	27712
1703936	29760	27264
1736704	26384	25680
1769472	25232	24320
1802240	25216	24384
1835008	24768	23952
1867776	26432	25616
1900544	27664	26672
1933312	28128	27200
1966080	30544	29584
1998848	28432	27120
2031616	28944	28096
2064384	24640	23664
2097152	49792	47600
2162688	52592	50608
2228224	75552	71648
2293760	87776	83952
2359296	92368	90352
2424832	85760	83728
2490368	68288	65008
2555904	62176	57328
2621440	38928	34496
2686976	27088	20752
2752512	25328	20256
2818048	25888	20880
2883584	27312	21504
2949120	27568	21776
3014656	27888	22176
3080192	26128	20480
3145728	27856	22464
3211264	28384	22576
3276800	46208	39712
3342336	39600	33200
3407872	38160	25120
3473408	57504	33952
3538944	39472	35264
3604480	38304	35344
3670016	190224	131552
3735552	51200	28176
3801088	29584	24592
3866624	46688	41984
3932160	41312	36224
3997696	34384	29024
4063232	25008	20336
4128768	21776	14272
4194304	48528	28464
4325376	46336	26800
4456448	49968	27376
4587520	58480	34544
4718592	71216	47248
4849664	113504	89232
4980736	67952	48960
5111808	71536	55776
5242880	78240	64272
5373952	39488	33184
5505024	35888	31104
5636096	39024	36432
5767168	27312	24144
5898240	22496	21360
6029312	25184	25056
6160384	634912	624832
6291456	22688	18960
6422528	25392	21536
6553600	51792	44432
6684672	16192	10912
6815744	22960	19312
6946816	15344	11920
7077888	26448	23216
7208960	27216	23680
7340032	26544	22800
7471104	26848	23328
7602176	23856	20640
7733248	37168	34128
7864320	29168	25904
7995392	21424	17936
8126464	15280	11504
8257536	10336	6944
8388608	39520	28176
8650752	40992	34736
8912896	28944	26960
9175040	25104	24864
9437184	18544	18224
9699328	29200	28576
9961472	30048	29648
10223616	36528	36016
10485760	8000	6928
10747904	133136	75984
11010048	55728	36800
11272192	16880	12608
11534336	17936	17392
11796480	20784	16928
12058624	9648	8880
12320768	3920	3248
12582912	3632	3216
12845056	2864	2400
13107200	7760	7424
13369344	7248	6992
13631488	10960	10640
13893632	1744	1408
14155776	1952	1616
14417920	2880	2448
14680064	1616	1296
14942208	7472	7280
15204352	12448	12192
15466496	27856	27344
15728640	7360	6880
15990784	5488	5056
16252928	2784	2608
16515072	2368	2144
16777216	9696	9504
17301504	20080	19984
17825792	16992	16384
18350080	10896	10896
18874368	13840	10944
19398656	18976	12320
19922944	8896	7216
20447232	4528	2944
20971520	5856	4640
21495808	5600	4624
22020096	16912	15520
22544384	7056	5808
23068672	6704	5552
23592960	30768	23856
24117248	28880	14768
24641536	2960	2656
25165824	2784	2352
25690112	10336	3472
26214400	83744	13152
26738688	24704	1696
27262976	13280	10080
27787264	17616	9584
28311552	9568	2912
28835840	6928	3136
29360128	7232	1728
29884416	12192	64
30408704	12112	912
30932992	22112	1008
31457280	7648	32
31981568	5536	848
32505856	4976	1552
33030144	11296	9776
33554432	6320	5552
34603008	4576	3840
35651584	3264	2368
36700160	2640	2320
37748736	1952	1440
38797312	1664	1072
39845888	2832	1824
40894464	9712	1648
41943040	8544	864
42991616	25056	2112
44040192	28048	14416
45088768	5984	5680
46137344	7360	6816
47185920	4320	3872
48234496	2592	2048
49283072	2432	2000
50331648	2048	1616
51380224	1680	1200
52428800	20368	1568
53477376	9840	1440
54525952	11968	9936
55574528	30480	13952
56623104	22976	6704
57671680	8000	5440
58720256	10320	4032
59768832	10512	3856
60817408	5264	1856
61865984	29200	19472
62914560	10528	8544
63963136	9376	7312
65011712	22912	21440
66060288	26752	6224
67108864	60192	54528
69206016	72384	70384
71303168	21184	20576
73400320	3184	2752
75497472	20560	19360
77594624	10368	9536
79691776	6144	5328
81788928	3984	2880
83886080	3392	2976
85983232	3680	2608
88080384	17104	7936
90177536	7440	6416
92274688	7504	5552
94371840	13472	10096
96468992	18896	12544
98566144	31440	23296
100663296	5904	5696
102760448	1296	976
104857600	1680	1424
106954752	21472	9008
109051904	16080	11264
111149056	14960	1056
113246208	5040	672
115343360	656	656
117440512	1040	1040
119537664	624	624
121634816	9264	656
123731968	16032	240
125829120	144	144
127926272	272	272
130023424	480	464
132120576	112	112
134217728	8864	208
138412032	0	0
142606336	8432	224
146800640	0	0
150994944	0	0
155189248	8400	0
159383552	0	0
163577856	37696	26016
167772160	26416	9056
171966464	24544	0
176160768	0	0
180355072	0	0
184549376	0	0
188743680	14096	11872
192937984	51440	1344
197132288	21600	0
201326592	416	176
205520896	144	128
209715200	0	0
213909504	0	0
218103808	8512	2848
222298112	6608	2112
226492416	0	0
230686720	0	0
234881024	0	0
239075328	0	0
243269632	0	0
247463936	0	0
251658240	0	0
255852544	0	0
260046848	0	0
264241152	0	0
268435456	0	0
276824064	0	0
285212672	0	0
293601280	0	0
301989888	0	0
310378496	0	0
318767104	0	0
327155712	0	0
335544320	0	0
343932928	0	0
352321536	0	0
360710144	0	0
369098752	0	0
377487360	0	0
385875968	0	0
394264576	0	0
402653184	0	0
411041792	0	0
419430400	0	0
427819008	0	0
436207616	0	0
444596224	0	0
452984832	0	0
461373440	0	0
469762048	0	0
478150656	0	0
486539264	0	0
494927872	0	0
503316480	0	0
511705088	0	0
520093696	0	0
528482304	0	0
536870912	0	0
553648128	0	0
570425344	0	0
587202560	0	0
603979776	0	0
620756992	0	0
637534208	0	0
654311424	0	0
671088640	0	0
687865856	0	0
704643072	0	0
721420288	0	0
738197504	0	0
754974720	0	0
771751936	0	0
788529152	0	0
805306368	0	0
822083584	0	0
838860800	0	0
855638016	0	0
872415232	0	0
889192448	0	0
905969664	0	0
922746880	0	0
939524096	0	0
956301312	0	0
973078528	0	0
989855744	0	0
1006632960	0	0
1023410176	0	0
1040187392	0	0
1056964608	0	0
1073741824	0	0
1107296256	0	0
1140850688	0	0
1174405120	0	0
1207959552	0	0
1241513984	0	0
1275068416	0	0
1308622848	0	0
1342177280	0	0
1375731712	0	0
1409286144	0	0
1442840576	0	0
1476395008	0	0
1509949440	0	0
1543503872	0	0
1577058304	0	0
1610612736	0	0
1644167168	0	0
1677721600	0	0
1711276032	0	0
1744830464	0	0
1778384896	0	0
1811939328	0	0
1845493760	0	0
1879048192	0	0
1912602624	0	0
1946157056	0	0
1979711488	0	0
2013265920	0	0
2046820352	0	0
2080374784	0	0
2113929216	0	0
2147483648	0	0
2214592512	0	0
2281701376	0	0
2348810240	0	0
2415919104	0	0
2483027968	0	0
2550136832	0	0
2617245696	0	0
2684354560	0	0
2751463424	0	0
2818572288	0	0
2885681152	0	0
2952790016	0	0
3019898880	0	0
3087007744	0	0
3154116608	0	0
3221225472	0	0
3288334336	0	0
3355443200	0	0
3422552064	0	0
3489660928	0	0
3556769792	0	0
3623878656	0	0
3690987520	0	0
3758096384	0	0
3825205248	0	0
3892314112	0	0
3959422976	0	0
4026531840	0	0
4093640704	0	0
4160749568	0	0
4227858432	0	0
~~~~~~~~~~Reuse Distance Profiler output end~~~~~~~~~~

Sampler size:63986

DRAM Statistics
 CHANNEL 0
 RQ ROW_BUFFER_HIT:     821105  ROW_BUFFER_MISS:    6379122
 DBUS AVG_CONGESTED_CYCLE:     3.9618
 WQ ROW_BUFFER_HIT:     189106  ROW_BUFFER_MISS:    2827420  FULL:          0


CPU 0 Branch Prediction Accuracy: 95.2529% MPKI: 4.46789 Average ROB Occupancy at Mispredict: 139.531
Branch type MPKI
BRANCH_DIRECT_JUMP: 0.000275333
BRANCH_INDIRECT: 9.06667e-05
BRANCH_CONDITIONAL: 4.46504
BRANCH_DIRECT_CALL: 0.00193333
BRANCH_INDIRECT_CALL: 2.66667e-06
BRANCH_RETURN: 0.000548667

