
*** ChampSim Multicore Out-of-Order Simulator ***

Warmup Instructions: 50000000
Simulation Instructions: 1500000000
Number of CPUs: 1
Off-chip DRAM Size: 4 GiB Channels: 1 Width: 64-bit Data Rate: 3200 MT/s

VirtualMemory physical capacity: 8588881920 num_ppages: 2096895
VirtualMemory page size: 4096 log2_page_size: 12

CPU 0 runs /s/traces/champsim_traces/621.wrf_s-8065B.champsimtrace.xz
CPU 0 Bimodal branch predictor
Basic BTB sets: 1024 ways: 8 indirect buffer size: 4096 RAS size: 64
Initializing LRU.
Initializing LRU.
Initializing LRU.
Initializing LRU.
Initializing rdLRU.
Initializing LRU.
Heartbeat CPU 0 instructions: 2000004 cycles: 637359 heartbeat IPC: 3.13796 cumulative IPC: 3.13796 (Simulation time: 0 hr 1 min 29 sec) 
Heartbeat CPU 0 instructions: 4000003 cycles: 1200393 heartbeat IPC: 3.55218 cumulative IPC: 3.33224 (Simulation time: 0 hr 2 min 30 sec) 
Heartbeat CPU 0 instructions: 6000000 cycles: 1776908 heartbeat IPC: 3.46912 cumulative IPC: 3.37665 (Simulation time: 0 hr 3 min 34 sec) 
Heartbeat CPU 0 instructions: 8000002 cycles: 2483336 heartbeat IPC: 2.83115 cumulative IPC: 3.22147 (Simulation time: 0 hr 5 min 1 sec) 
Heartbeat CPU 0 instructions: 10000004 cycles: 3181957 heartbeat IPC: 2.86279 cumulative IPC: 3.14272 (Simulation time: 0 hr 6 min 32 sec) 
Heartbeat CPU 0 instructions: 12000002 cycles: 3880052 heartbeat IPC: 2.86494 cumulative IPC: 3.09274 (Simulation time: 0 hr 8 min 5 sec) 
Heartbeat CPU 0 instructions: 14000003 cycles: 4578149 heartbeat IPC: 2.86493 cumulative IPC: 3.05801 (Simulation time: 0 hr 9 min 37 sec) 
Heartbeat CPU 0 instructions: 16000000 cycles: 5282435 heartbeat IPC: 2.83975 cumulative IPC: 3.02891 (Simulation time: 0 hr 10 min 58 sec) 
Heartbeat CPU 0 instructions: 18000000 cycles: 5986281 heartbeat IPC: 2.84153 cumulative IPC: 3.00688 (Simulation time: 0 hr 12 min 27 sec) 
Heartbeat CPU 0 instructions: 20000000 cycles: 6672355 heartbeat IPC: 2.91514 cumulative IPC: 2.99744 (Simulation time: 0 hr 13 min 40 sec) 
Heartbeat CPU 0 instructions: 22000002 cycles: 7353846 heartbeat IPC: 2.93474 cumulative IPC: 2.99163 (Simulation time: 0 hr 15 min 4 sec) 
Heartbeat CPU 0 instructions: 24000001 cycles: 7987249 heartbeat IPC: 3.15755 cumulative IPC: 3.00479 (Simulation time: 0 hr 16 min 31 sec) 
Heartbeat CPU 0 instructions: 26000000 cycles: 8614445 heartbeat IPC: 3.18879 cumulative IPC: 3.01819 (Simulation time: 0 hr 18 min 3 sec) 
Heartbeat CPU 0 instructions: 28000003 cycles: 9193990 heartbeat IPC: 3.45099 cumulative IPC: 3.04547 (Simulation time: 0 hr 19 min 23 sec) 
Heartbeat CPU 0 instructions: 30000004 cycles: 9865644 heartbeat IPC: 2.97773 cumulative IPC: 3.04086 (Simulation time: 0 hr 21 min 5 sec) 
Heartbeat CPU 0 instructions: 32000002 cycles: 10543176 heartbeat IPC: 2.95189 cumulative IPC: 3.03514 (Simulation time: 0 hr 22 min 27 sec) 
Heartbeat CPU 0 instructions: 34000002 cycles: 11242042 heartbeat IPC: 2.86178 cumulative IPC: 3.02436 (Simulation time: 0 hr 23 min 55 sec) 
Heartbeat CPU 0 instructions: 36000004 cycles: 11937009 heartbeat IPC: 2.87784 cumulative IPC: 3.01583 (Simulation time: 0 hr 25 min 26 sec) 
Heartbeat CPU 0 instructions: 38000002 cycles: 12641152 heartbeat IPC: 2.84033 cumulative IPC: 3.00606 (Simulation time: 0 hr 26 min 56 sec) 
Heartbeat CPU 0 instructions: 40000003 cycles: 13345145 heartbeat IPC: 2.84094 cumulative IPC: 2.99734 (Simulation time: 0 hr 28 min 32 sec) 
Heartbeat CPU 0 instructions: 42000003 cycles: 14041143 heartbeat IPC: 2.87357 cumulative IPC: 2.99121 (Simulation time: 0 hr 30 min 1 sec) 
Heartbeat CPU 0 instructions: 44000002 cycles: 14723500 heartbeat IPC: 2.93102 cumulative IPC: 2.98842 (Simulation time: 0 hr 31 min 31 sec) 
Heartbeat CPU 0 instructions: 46000000 cycles: 15390929 heartbeat IPC: 2.99657 cumulative IPC: 2.98877 (Simulation time: 0 hr 33 min 3 sec) 
Heartbeat CPU 0 instructions: 48000000 cycles: 16018129 heartbeat IPC: 3.18878 cumulative IPC: 2.9966 (Simulation time: 0 hr 34 min 31 sec) 
Heartbeat CPU 0 instructions: 50000001 cycles: 16647682 heartbeat IPC: 3.17686 cumulative IPC: 3.00342 (Simulation time: 0 hr 35 min 51 sec) 

Warmup complete CPU 0 instructions: 50000001 cycles: 16647682 (Simulation time: 0 hr 35 min 51 sec) 

Heartbeat CPU 0 instructions: 52000001 cycles: 21224330 heartbeat IPC: 0.437001 cumulative IPC: 0.437001 (Simulation time: 0 hr 40 min 3 sec) 

Region of Interest Statistics
cpu0_DTLB TOTAL     ACCESS:     489985  HIT:     482569  MISS:       7416
cpu0_DTLB LOAD      ACCESS:     357586  HIT:     352765  MISS:       4821
cpu0_DTLB RFO       ACCESS:     132399  HIT:     129804  MISS:       2595
cpu0_DTLB PREFETCH  ACCESS:          0  HIT:          0  MISS:          0
cpu0_DTLB WRITEBACK ACCESS:          0  HIT:          0  MISS:          0
cpu0_ITLB TOTAL     ACCESS:     135182  HIT:     135181  MISS:          1
cpu0_ITLB LOAD      ACCESS:     135182  HIT:     135181  MISS:          1
cpu0_ITLB RFO       ACCESS:          0  HIT:          0  MISS:          0
cpu0_ITLB PREFETCH  ACCESS:          0  HIT:          0  MISS:          0
cpu0_ITLB WRITEBACK ACCESS:          0  HIT:          0  MISS:          0
cpu0_L1I TOTAL     ACCESS:      15502  HIT:      15254  MISS:        248
cpu0_L1I LOAD      ACCESS:      15502  HIT:      15254  MISS:        248
cpu0_L1I RFO       ACCESS:          0  HIT:          0  MISS:          0
cpu0_L1I PREFETCH  ACCESS:          0  HIT:          0  MISS:          0
cpu0_L1I WRITEBACK ACCESS:          0  HIT:          0  MISS:          0
cpu0_STLB TOTAL     ACCESS:       7417  HIT:       7047  MISS:        370
cpu0_STLB LOAD      ACCESS:       4822  HIT:       4754  MISS:         68
cpu0_STLB RFO       ACCESS:       2595  HIT:       2293  MISS:        302
cpu0_STLB PREFETCH  ACCESS:          0  HIT:          0  MISS:          0
cpu0_STLB WRITEBACK ACCESS:          0  HIT:          0  MISS:          0
cpu0_L1D TOTAL     ACCESS:     404317  HIT:     321653  MISS:      82664
cpu0_L1D LOAD      ACCESS:     255836  HIT:     211373  MISS:      44463
cpu0_L1D RFO       ACCESS:     148114  HIT:     109948  MISS:      38166
cpu0_L1D PREFETCH  ACCESS:          0  HIT:          0  MISS:          0
cpu0_L1D WRITEBACK ACCESS:          0  HIT:          0  MISS:          0
cpu0_L2C TOTAL     ACCESS:     138900  HIT:      63278  MISS:      75622
cpu0_L2C LOAD      ACCESS:      44701  HIT:       6300  MISS:      38401
cpu0_L2C RFO       ACCESS:      38166  HIT:        986  MISS:      37180
cpu0_L2C PREFETCH  ACCESS:          0  HIT:          0  MISS:          0
cpu0_L2C WRITEBACK ACCESS:      55998  HIT:      55971  MISS:         27
LLC TOTAL     ACCESS:     127361  HIT:      57886  MISS:      69475
LLC LOAD      ACCESS:      38401  HIT:      10705  MISS:      27696
LLC RFO       ACCESS:      37180  HIT:        435  MISS:      36745
LLC PREFETCH  ACCESS:          0  HIT:          0  MISS:          0
LLC WRITEBACK ACCESS:      51766  HIT:      46745  MISS:       5021
Heartbeat CPU 0 instructions: 54000001 cycles: 22412947 heartbeat IPC: 1.68263 cumulative IPC: 0.69381 (Simulation time: 0 hr 42 min 1 sec) 

Region of Interest Statistics
cpu0_DTLB TOTAL     ACCESS:    1098534  HIT:    1090912  MISS:       7622
cpu0_DTLB LOAD      ACCESS:     928892  HIT:     923870  MISS:       5022
cpu0_DTLB RFO       ACCESS:     169642  HIT:     167042  MISS:       2600
cpu0_DTLB PREFETCH  ACCESS:          0  HIT:          0  MISS:          0
cpu0_DTLB WRITEBACK ACCESS:          0  HIT:          0  MISS:          0
cpu0_ITLB TOTAL     ACCESS:     168285  HIT:     168284  MISS:          1
cpu0_ITLB LOAD      ACCESS:     168285  HIT:     168284  MISS:          1
cpu0_ITLB RFO       ACCESS:          0  HIT:          0  MISS:          0
cpu0_ITLB PREFETCH  ACCESS:          0  HIT:          0  MISS:          0
cpu0_ITLB WRITEBACK ACCESS:          0  HIT:          0  MISS:          0
cpu0_L1I TOTAL     ACCESS:      16207  HIT:      15959  MISS:        248
cpu0_L1I LOAD      ACCESS:      16207  HIT:      15959  MISS:        248
cpu0_L1I RFO       ACCESS:          0  HIT:          0  MISS:          0
cpu0_L1I PREFETCH  ACCESS:          0  HIT:          0  MISS:          0
cpu0_L1I WRITEBACK ACCESS:          0  HIT:          0  MISS:          0
cpu0_STLB TOTAL     ACCESS:       7623  HIT:       7177  MISS:        446
cpu0_STLB LOAD      ACCESS:       5023  HIT:       4879  MISS:        144
cpu0_STLB RFO       ACCESS:       2600  HIT:       2298  MISS:        302
cpu0_STLB PREFETCH  ACCESS:          0  HIT:          0  MISS:          0
cpu0_STLB WRITEBACK ACCESS:          0  HIT:          0  MISS:          0
cpu0_L1D TOTAL     ACCESS:     940698  HIT:     827700  MISS:     112998
cpu0_L1D LOAD      ACCESS:     738387  HIT:     664922  MISS:      73465
cpu0_L1D RFO       ACCESS:     201868  HIT:     162408  MISS:      39460
cpu0_L1D PREFETCH  ACCESS:          0  HIT:          0  MISS:          0
cpu0_L1D WRITEBACK ACCESS:          0  HIT:          0  MISS:          0
cpu0_L2C TOTAL     ACCESS:     175079  HIT:      90097  MISS:      84982
cpu0_L2C LOAD      ACCESS:      73689  HIT:      25928  MISS:      47761
cpu0_L2C RFO       ACCESS:      39460  HIT:       2280  MISS:      37180
cpu0_L2C PREFETCH  ACCESS:          0  HIT:          0  MISS:          0
cpu0_L2C WRITEBACK ACCESS:      61857  HIT:      61830  MISS:         27
LLC TOTAL     ACCESS:     142499  HIT:      63247  MISS:      79252
LLC LOAD      ACCESS:      47761  HIT:      10720  MISS:      37041
LLC RFO       ACCESS:      37180  HIT:        435  MISS:      36745
LLC PREFETCH  ACCESS:          0  HIT:          0  MISS:          0
LLC WRITEBACK ACCESS:      57544  HIT:      52091  MISS:       5453
Heartbeat CPU 0 instructions: 56000003 cycles: 23504501 heartbeat IPC: 1.83225 cumulative IPC: 0.875042 (Simulation time: 0 hr 43 min 50 sec) 

Region of Interest Statistics
cpu0_DTLB TOTAL     ACCESS:    1707827  HIT:    1700034  MISS:       7793
cpu0_DTLB LOAD      ACCESS:    1500965  HIT:    1495777  MISS:       5188
cpu0_DTLB RFO       ACCESS:     206862  HIT:     204257  MISS:       2605
cpu0_DTLB PREFETCH  ACCESS:          0  HIT:          0  MISS:          0
cpu0_DTLB WRITEBACK ACCESS:          0  HIT:          0  MISS:          0
cpu0_ITLB TOTAL     ACCESS:     201239  HIT:     201238  MISS:          1
cpu0_ITLB LOAD      ACCESS:     201239  HIT:     201238  MISS:          1
cpu0_ITLB RFO       ACCESS:          0  HIT:          0  MISS:          0
cpu0_ITLB PREFETCH  ACCESS:          0  HIT:          0  MISS:          0
cpu0_ITLB WRITEBACK ACCESS:          0  HIT:          0  MISS:          0
cpu0_L1I TOTAL     ACCESS:      16879  HIT:      16631  MISS:        248
cpu0_L1I LOAD      ACCESS:      16879  HIT:      16631  MISS:        248
cpu0_L1I RFO       ACCESS:          0  HIT:          0  MISS:          0
cpu0_L1I PREFETCH  ACCESS:          0  HIT:          0  MISS:          0
cpu0_L1I WRITEBACK ACCESS:          0  HIT:          0  MISS:          0
cpu0_STLB TOTAL     ACCESS:       7794  HIT:       7259  MISS:        535
cpu0_STLB LOAD      ACCESS:       5189  HIT:       4956  MISS:        233
cpu0_STLB RFO       ACCESS:       2605  HIT:       2303  MISS:        302
cpu0_STLB PREFETCH  ACCESS:          0  HIT:          0  MISS:          0
cpu0_STLB WRITEBACK ACCESS:          0  HIT:          0  MISS:          0
cpu0_L1D TOTAL     ACCESS:    1477044  HIT:    1333977  MISS:     143067
cpu0_L1D LOAD      ACCESS:    1221237  HIT:    1119031  MISS:     102206
cpu0_L1D RFO       ACCESS:     255275  HIT:     214531  MISS:      40744
cpu0_L1D PREFETCH  ACCESS:          0  HIT:          0  MISS:          0
cpu0_L1D WRITEBACK ACCESS:          0  HIT:          0  MISS:          0
cpu0_L2C TOTAL     ACCESS:     211113  HIT:     116888  MISS:      94225
cpu0_L2C LOAD      ACCESS:     102411  HIT:      45408  MISS:      57003
cpu0_L2C RFO       ACCESS:      40744  HIT:       3564  MISS:      37180
cpu0_L2C PREFETCH  ACCESS:          0  HIT:          0  MISS:          0
cpu0_L2C WRITEBACK ACCESS:      67841  HIT:      67814  MISS:         27
LLC TOTAL     ACCESS:     154855  HIT:      66334  MISS:      88521
LLC LOAD      ACCESS:      57003  HIT:      10720  MISS:      46283
LLC RFO       ACCESS:      37180  HIT:        435  MISS:      36745
LLC PREFETCH  ACCESS:          0  HIT:          0  MISS:          0
LLC WRITEBACK ACCESS:      60657  HIT:      55178  MISS:       5479
Heartbeat CPU 0 instructions: 58000002 cycles: 24712830 heartbeat IPC: 1.65518 cumulative IPC: 0.991922 (Simulation time: 0 hr 45 min 32 sec) 

Region of Interest Statistics
cpu0_DTLB TOTAL     ACCESS:    2208129  HIT:    2200163  MISS:       7966
cpu0_DTLB LOAD      ACCESS:    1958874  HIT:    1953516  MISS:       5358
cpu0_DTLB RFO       ACCESS:     249255  HIT:     246647  MISS:       2608
cpu0_DTLB PREFETCH  ACCESS:          0  HIT:          0  MISS:          0
cpu0_DTLB WRITEBACK ACCESS:          0  HIT:          0  MISS:          0
cpu0_ITLB TOTAL     ACCESS:     242134  HIT:     242133  MISS:          1
cpu0_ITLB LOAD      ACCESS:     242134  HIT:     242133  MISS:          1
cpu0_ITLB RFO       ACCESS:          0  HIT:          0  MISS:          0
cpu0_ITLB PREFETCH  ACCESS:          0  HIT:          0  MISS:          0
cpu0_ITLB WRITEBACK ACCESS:          0  HIT:          0  MISS:          0
cpu0_L1I TOTAL     ACCESS:      18063  HIT:      17758  MISS:        305
cpu0_L1I LOAD      ACCESS:      18063  HIT:      17758  MISS:        305
cpu0_L1I RFO       ACCESS:          0  HIT:          0  MISS:          0
cpu0_L1I PREFETCH  ACCESS:          0  HIT:          0  MISS:          0
cpu0_L1I WRITEBACK ACCESS:          0  HIT:          0  MISS:          0
cpu0_STLB TOTAL     ACCESS:       7967  HIT:       7404  MISS:        563
cpu0_STLB LOAD      ACCESS:       5359  HIT:       5099  MISS:        260
cpu0_STLB RFO       ACCESS:       2608  HIT:       2305  MISS:        303
cpu0_STLB PREFETCH  ACCESS:          0  HIT:          0  MISS:          0
cpu0_STLB WRITEBACK ACCESS:          0  HIT:          0  MISS:          0
cpu0_L1D TOTAL     ACCESS:    1886979  HIT:    1726772  MISS:     160207
cpu0_L1D LOAD      ACCESS:    1575253  HIT:    1456441  MISS:     118812
cpu0_L1D RFO       ACCESS:     311166  HIT:     269900  MISS:      41266
cpu0_L1D PREFETCH  ACCESS:          0  HIT:          0  MISS:          0
cpu0_L1D WRITEBACK ACCESS:          0  HIT:          0  MISS:          0
cpu0_L2C TOTAL     ACCESS:     232582  HIT:     128463  MISS:     104119
cpu0_L2C LOAD      ACCESS:     119065  HIT:      52300  MISS:      66765
cpu0_L2C RFO       ACCESS:      41266  HIT:       3959  MISS:      37307
cpu0_L2C PREFETCH  ACCESS:          0  HIT:          0  MISS:          0
cpu0_L2C WRITEBACK ACCESS:      72122  HIT:      72091  MISS:         31
LLC TOTAL     ACCESS:     167966  HIT:      69568  MISS:      98398
LLC LOAD      ACCESS:      66765  HIT:      10799  MISS:      55966
LLC RFO       ACCESS:      37307  HIT:        435  MISS:      36872
LLC PREFETCH  ACCESS:          0  HIT:          0  MISS:          0
LLC WRITEBACK ACCESS:      63878  HIT:      58332  MISS:       5546
Heartbeat CPU 0 instructions: 60000003 cycles: 25941837 heartbeat IPC: 1.62733 cumulative IPC: 1.07595 (Simulation time: 0 hr 47 min 19 sec) 

Region of Interest Statistics
cpu0_DTLB TOTAL     ACCESS:    2654659  HIT:    2646535  MISS:       8124
cpu0_DTLB LOAD      ACCESS:    2360690  HIT:    2355174  MISS:       5516
cpu0_DTLB RFO       ACCESS:     293969  HIT:     291361  MISS:       2608
cpu0_DTLB PREFETCH  ACCESS:          0  HIT:          0  MISS:          0
cpu0_DTLB WRITEBACK ACCESS:          0  HIT:          0  MISS:          0
cpu0_ITLB TOTAL     ACCESS:     285484  HIT:     285483  MISS:          1
cpu0_ITLB LOAD      ACCESS:     285484  HIT:     285483  MISS:          1
cpu0_ITLB RFO       ACCESS:          0  HIT:          0  MISS:          0
cpu0_ITLB PREFETCH  ACCESS:          0  HIT:          0  MISS:          0
cpu0_ITLB WRITEBACK ACCESS:          0  HIT:          0  MISS:          0
cpu0_L1I TOTAL     ACCESS:      19426  HIT:      19121  MISS:        305
cpu0_L1I LOAD      ACCESS:      19426  HIT:      19121  MISS:        305
cpu0_L1I RFO       ACCESS:          0  HIT:          0  MISS:          0
cpu0_L1I PREFETCH  ACCESS:          0  HIT:          0  MISS:          0
cpu0_L1I WRITEBACK ACCESS:          0  HIT:          0  MISS:          0
cpu0_STLB TOTAL     ACCESS:       8125  HIT:       7562  MISS:        563
cpu0_STLB LOAD      ACCESS:       5517  HIT:       5257  MISS:        260
cpu0_STLB RFO       ACCESS:       2608  HIT:       2305  MISS:        303
cpu0_STLB PREFETCH  ACCESS:          0  HIT:          0  MISS:          0
cpu0_STLB WRITEBACK ACCESS:          0  HIT:          0  MISS:          0
cpu0_L1D TOTAL     ACCESS:    2239864  HIT:    2069896  MISS:     169968
cpu0_L1D LOAD      ACCESS:    1871179  HIT:    1742606  MISS:     128573
cpu0_L1D RFO       ACCESS:     368125  HIT:     326859  MISS:      41266
cpu0_L1D PREFETCH  ACCESS:          0  HIT:          0  MISS:          0
cpu0_L1D WRITEBACK ACCESS:          0  HIT:          0  MISS:          0
cpu0_L2C TOTAL     ACCESS:     245538  HIT:     131667  MISS:     113871
cpu0_L2C LOAD      ACCESS:     128826  HIT:      52309  MISS:      76517
cpu0_L2C RFO       ACCESS:      41266  HIT:       3959  MISS:      37307
cpu0_L2C PREFETCH  ACCESS:          0  HIT:          0  MISS:          0
cpu0_L2C WRITEBACK ACCESS:      75317  HIT:      75286  MISS:         31
LLC TOTAL     ACCESS:     180984  HIT:      72953  MISS:     108031
LLC LOAD      ACCESS:      76517  HIT:      11121  MISS:      65396
LLC RFO       ACCESS:      37307  HIT:        435  MISS:      36872
LLC PREFETCH  ACCESS:          0  HIT:          0  MISS:          0
LLC WRITEBACK ACCESS:      67144  HIT:      61395  MISS:       5749
Heartbeat CPU 0 instructions: 62000002 cycles: 27170232 heartbeat IPC: 1.62814 cumulative IPC: 1.14041 (Simulation time: 0 hr 49 min 1 sec) 

Region of Interest Statistics
cpu0_DTLB TOTAL     ACCESS:    3101012  HIT:    3092730  MISS:       8282
cpu0_DTLB LOAD      ACCESS:    2762480  HIT:    2756806  MISS:       5674
cpu0_DTLB RFO       ACCESS:     338532  HIT:     335924  MISS:       2608
cpu0_DTLB PREFETCH  ACCESS:          0  HIT:          0  MISS:          0
cpu0_DTLB WRITEBACK ACCESS:          0  HIT:          0  MISS:          0
cpu0_ITLB TOTAL     ACCESS:     327702  HIT:     327701  MISS:          1
cpu0_ITLB LOAD      ACCESS:     327702  HIT:     327701  MISS:          1
cpu0_ITLB RFO       ACCESS:          0  HIT:          0  MISS:          0
cpu0_ITLB PREFETCH  ACCESS:          0  HIT:          0  MISS:          0
cpu0_ITLB WRITEBACK ACCESS:          0  HIT:          0  MISS:          0
cpu0_L1I TOTAL     ACCESS:      20746  HIT:      20441  MISS:        305
cpu0_L1I LOAD      ACCESS:      20746  HIT:      20441  MISS:        305
cpu0_L1I RFO       ACCESS:          0  HIT:          0  MISS:          0
cpu0_L1I PREFETCH  ACCESS:          0  HIT:          0  MISS:          0
cpu0_L1I WRITEBACK ACCESS:          0  HIT:          0  MISS:          0
cpu0_STLB TOTAL     ACCESS:       8283  HIT:       7717  MISS:        566
cpu0_STLB LOAD      ACCESS:       5675  HIT:       5412  MISS:        263
cpu0_STLB RFO       ACCESS:       2608  HIT:       2305  MISS:        303
cpu0_STLB PREFETCH  ACCESS:          0  HIT:          0  MISS:          0
cpu0_STLB WRITEBACK ACCESS:          0  HIT:          0  MISS:          0
cpu0_L1D TOTAL     ACCESS:    2592502  HIT:    2412881  MISS:     179621
cpu0_L1D LOAD      ACCESS:    2167254  HIT:    2029029  MISS:     138225
cpu0_L1D RFO       ACCESS:     424685  HIT:     383419  MISS:      41266
cpu0_L1D PREFETCH  ACCESS:          0  HIT:          0  MISS:          0
cpu0_L1D WRITEBACK ACCESS:          0  HIT:          0  MISS:          0
cpu0_L2C TOTAL     ACCESS:     258386  HIT:     134874  MISS:     123512
cpu0_L2C LOAD      ACCESS:     138478  HIT:      52321  MISS:      86157
cpu0_L2C RFO       ACCESS:      41266  HIT:       3959  MISS:      37307
cpu0_L2C PREFETCH  ACCESS:          0  HIT:          0  MISS:          0
cpu0_L2C WRITEBACK ACCESS:      78512  HIT:      78481  MISS:         31
LLC TOTAL     ACCESS:     193688  HIT:      76197  MISS:     117491
LLC LOAD      ACCESS:      86157  HIT:      11312  MISS:      74845
LLC RFO       ACCESS:      37307  HIT:        435  MISS:      36872
LLC PREFETCH  ACCESS:          0  HIT:          0  MISS:          0
LLC WRITEBACK ACCESS:      70207  HIT:      64448  MISS:       5759
Heartbeat CPU 0 instructions: 64000002 cycles: 28498845 heartbeat IPC: 1.50533 cumulative IPC: 1.18132 (Simulation time: 0 hr 51 min 17 sec) 

Region of Interest Statistics
cpu0_DTLB TOTAL     ACCESS:    3537515  HIT:    3529023  MISS:       8492
cpu0_DTLB LOAD      ACCESS:    3165315  HIT:    3159434  MISS:       5881
cpu0_DTLB RFO       ACCESS:     372200  HIT:     369589  MISS:       2611
cpu0_DTLB PREFETCH  ACCESS:          0  HIT:          0  MISS:          0
cpu0_DTLB WRITEBACK ACCESS:          0  HIT:          0  MISS:          0
cpu0_ITLB TOTAL     ACCESS:     367540  HIT:     367539  MISS:          1
cpu0_ITLB LOAD      ACCESS:     367540  HIT:     367539  MISS:          1
cpu0_ITLB RFO       ACCESS:          0  HIT:          0  MISS:          0
cpu0_ITLB PREFETCH  ACCESS:          0  HIT:          0  MISS:          0
cpu0_ITLB WRITEBACK ACCESS:          0  HIT:          0  MISS:          0
cpu0_L1I TOTAL     ACCESS:      21741  HIT:      21397  MISS:        344
cpu0_L1I LOAD      ACCESS:      21741  HIT:      21397  MISS:        344
cpu0_L1I RFO       ACCESS:          0  HIT:          0  MISS:          0
cpu0_L1I PREFETCH  ACCESS:          0  HIT:          0  MISS:          0
cpu0_L1I WRITEBACK ACCESS:          0  HIT:          0  MISS:          0
cpu0_STLB TOTAL     ACCESS:       8493  HIT:       7866  MISS:        627
cpu0_STLB LOAD      ACCESS:       5882  HIT:       5559  MISS:        323
cpu0_STLB RFO       ACCESS:       2611  HIT:       2307  MISS:        304
cpu0_STLB PREFETCH  ACCESS:          0  HIT:          0  MISS:          0
cpu0_STLB WRITEBACK ACCESS:          0  HIT:          0  MISS:          0
cpu0_L1D TOTAL     ACCESS:    3058276  HIT:    2866409  MISS:     191867
cpu0_L1D LOAD      ACCESS:    2564567  HIT:    2414229  MISS:     150338
cpu0_L1D RFO       ACCESS:     493086  HIT:     451690  MISS:      41396
cpu0_L1D PREFETCH  ACCESS:          0  HIT:          0  MISS:          0
cpu0_L1D WRITEBACK ACCESS:          0  HIT:          0  MISS:          0
cpu0_L2C TOTAL     ACCESS:     274852  HIT:     138939  MISS:     135913
cpu0_L2C LOAD      ACCESS:     150630  HIT:      52334  MISS:      98296
cpu0_L2C RFO       ACCESS:      41396  HIT:       3959  MISS:      37437
cpu0_L2C PREFETCH  ACCESS:          0  HIT:          0  MISS:          0
cpu0_L2C WRITEBACK ACCESS:      82693  HIT:      82532  MISS:        161
LLC TOTAL     ACCESS:     210235  HIT:      80557  MISS:     129678
LLC LOAD      ACCESS:      98296  HIT:      11571  MISS:      86725
LLC RFO       ACCESS:      37437  HIT:        435  MISS:      37002
LLC PREFETCH  ACCESS:          0  HIT:          0  MISS:          0
LLC WRITEBACK ACCESS:      74483  HIT:      68548  MISS:       5935
Heartbeat CPU 0 instructions: 66000003 cycles: 29802992 heartbeat IPC: 1.53357 cumulative IPC: 1.21624 (Simulation time: 0 hr 53 min 24 sec) 

Region of Interest Statistics
cpu0_DTLB TOTAL     ACCESS:    3972943  HIT:    3964253  MISS:       8690
cpu0_DTLB LOAD      ACCESS:    3567588  HIT:    3561509  MISS:       6079
cpu0_DTLB RFO       ACCESS:     405355  HIT:     402744  MISS:       2611
cpu0_DTLB PREFETCH  ACCESS:          0  HIT:          0  MISS:          0
cpu0_DTLB WRITEBACK ACCESS:          0  HIT:          0  MISS:          0
cpu0_ITLB TOTAL     ACCESS:     407040  HIT:     407039  MISS:          1
cpu0_ITLB LOAD      ACCESS:     407040  HIT:     407039  MISS:          1
cpu0_ITLB RFO       ACCESS:          0  HIT:          0  MISS:          0
cpu0_ITLB PREFETCH  ACCESS:          0  HIT:          0  MISS:          0
cpu0_ITLB WRITEBACK ACCESS:          0  HIT:          0  MISS:          0
cpu0_L1I TOTAL     ACCESS:      22657  HIT:      22313  MISS:        344
cpu0_L1I LOAD      ACCESS:      22657  HIT:      22313  MISS:        344
cpu0_L1I RFO       ACCESS:          0  HIT:          0  MISS:          0
cpu0_L1I PREFETCH  ACCESS:          0  HIT:          0  MISS:          0
cpu0_L1I WRITEBACK ACCESS:          0  HIT:          0  MISS:          0
cpu0_STLB TOTAL     ACCESS:       8691  HIT:       8000  MISS:        691
cpu0_STLB LOAD      ACCESS:       6080  HIT:       5693  MISS:        387
cpu0_STLB RFO       ACCESS:       2611  HIT:       2307  MISS:        304
cpu0_STLB PREFETCH  ACCESS:          0  HIT:          0  MISS:          0
cpu0_STLB WRITEBACK ACCESS:          0  HIT:          0  MISS:          0
cpu0_L1D TOTAL     ACCESS:    3525286  HIT:    3321331  MISS:     203955
cpu0_L1D LOAD      ACCESS:    2962286  HIT:    2799860  MISS:     162426
cpu0_L1D RFO       ACCESS:     562313  HIT:     520917  MISS:      41396
cpu0_L1D PREFETCH  ACCESS:          0  HIT:          0  MISS:          0
cpu0_L1D WRITEBACK ACCESS:          0  HIT:          0  MISS:          0
cpu0_L2C TOTAL     ACCESS:     290985  HIT:     142998  MISS:     147987
cpu0_L2C LOAD      ACCESS:     162718  HIT:      52348  MISS:     110370
cpu0_L2C RFO       ACCESS:      41396  HIT:       3959  MISS:      37437
cpu0_L2C PREFETCH  ACCESS:          0  HIT:          0  MISS:          0
cpu0_L2C WRITEBACK ACCESS:      86738  HIT:      86577  MISS:        161
LLC TOTAL     ACCESS:     226429  HIT:      85375  MISS:     141054
LLC LOAD      ACCESS:     110370  HIT:      12269  MISS:      98101
LLC RFO       ACCESS:      37437  HIT:        435  MISS:      37002
LLC PREFETCH  ACCESS:          0  HIT:          0  MISS:          0
LLC WRITEBACK ACCESS:      78603  HIT:      72668  MISS:       5935
Heartbeat CPU 0 instructions: 68000003 cycles: 31299322 heartbeat IPC: 1.3366 cumulative IPC: 1.22853 (Simulation time: 0 hr 55 min 50 sec) 

Region of Interest Statistics
cpu0_DTLB TOTAL     ACCESS:    4493695  HIT:    4484744  MISS:       8951
cpu0_DTLB LOAD      ACCESS:    4057460  HIT:    4051122  MISS:       6338
cpu0_DTLB RFO       ACCESS:     436235  HIT:     433622  MISS:       2613
cpu0_DTLB PREFETCH  ACCESS:          0  HIT:          0  MISS:          0
cpu0_DTLB WRITEBACK ACCESS:          0  HIT:          0  MISS:          0
cpu0_ITLB TOTAL     ACCESS:     449069  HIT:     449068  MISS:          1
cpu0_ITLB LOAD      ACCESS:     449069  HIT:     449068  MISS:          1
cpu0_ITLB RFO       ACCESS:          0  HIT:          0  MISS:          0
cpu0_ITLB PREFETCH  ACCESS:          0  HIT:          0  MISS:          0
cpu0_ITLB WRITEBACK ACCESS:          0  HIT:          0  MISS:          0
cpu0_L1I TOTAL     ACCESS:     118867  HIT:     118461  MISS:        406
cpu0_L1I LOAD      ACCESS:     118867  HIT:     118461  MISS:        406
cpu0_L1I RFO       ACCESS:          0  HIT:          0  MISS:          0
cpu0_L1I PREFETCH  ACCESS:          0  HIT:          0  MISS:          0
cpu0_L1I WRITEBACK ACCESS:          0  HIT:          0  MISS:          0
cpu0_STLB TOTAL     ACCESS:       8952  HIT:       8103  MISS:        849
cpu0_STLB LOAD      ACCESS:       6339  HIT:       5794  MISS:        545
cpu0_STLB RFO       ACCESS:       2613  HIT:       2309  MISS:        304
cpu0_STLB PREFETCH  ACCESS:          0  HIT:          0  MISS:          0
cpu0_STLB WRITEBACK ACCESS:          0  HIT:          0  MISS:          0
cpu0_L1D TOTAL     ACCESS:    4014544  HIT:    3781386  MISS:     233158
cpu0_L1D LOAD      ACCESS:    3406892  HIT:    3215292  MISS:     191600
cpu0_L1D RFO       ACCESS:     606812  HIT:     565402  MISS:      41410
cpu0_L1D PREFETCH  ACCESS:          0  HIT:          0  MISS:          0
cpu0_L1D WRITEBACK ACCESS:          0  HIT:          0  MISS:          0
cpu0_L2C TOTAL     ACCESS:     324860  HIT:     162285  MISS:     162575
cpu0_L2C LOAD      ACCESS:     191954  HIT:      67153  MISS:     124801
cpu0_L2C RFO       ACCESS:      41410  HIT:       3959  MISS:      37451
cpu0_L2C PREFETCH  ACCESS:          0  HIT:          0  MISS:          0
cpu0_L2C WRITEBACK ACCESS:      91348  HIT:      91049  MISS:        299
LLC TOTAL     ACCESS:     245626  HIT:      90294  MISS:     155332
LLC LOAD      ACCESS:     124801  HIT:      12585  MISS:     112216
LLC RFO       ACCESS:      37451  HIT:        435  MISS:      37016
LLC PREFETCH  ACCESS:          0  HIT:          0  MISS:          0
LLC WRITEBACK ACCESS:      83350  HIT:      77271  MISS:       6079
Heartbeat CPU 0 instructions: 70000001 cycles: 32779690 heartbeat IPC: 1.35101 cumulative IPC: 1.23977 (Simulation time: 0 hr 58 min 7 sec) 

Region of Interest Statistics
cpu0_DTLB TOTAL     ACCESS:    5024480  HIT:    5015302  MISS:       9178
cpu0_DTLB LOAD      ACCESS:    4557840  HIT:    4551275  MISS:       6565
cpu0_DTLB RFO       ACCESS:     466640  HIT:     464027  MISS:       2613
cpu0_DTLB PREFETCH  ACCESS:          0  HIT:          0  MISS:          0
cpu0_DTLB WRITEBACK ACCESS:          0  HIT:          0  MISS:          0
cpu0_ITLB TOTAL     ACCESS:     491461  HIT:     491460  MISS:          1
cpu0_ITLB LOAD      ACCESS:     491461  HIT:     491460  MISS:          1
cpu0_ITLB RFO       ACCESS:          0  HIT:          0  MISS:          0
cpu0_ITLB PREFETCH  ACCESS:          0  HIT:          0  MISS:          0
cpu0_ITLB WRITEBACK ACCESS:          0  HIT:          0  MISS:          0
cpu0_L1I TOTAL     ACCESS:     226131  HIT:     225725  MISS:        406
cpu0_L1I LOAD      ACCESS:     226131  HIT:     225725  MISS:        406
cpu0_L1I RFO       ACCESS:          0  HIT:          0  MISS:          0
cpu0_L1I PREFETCH  ACCESS:          0  HIT:          0  MISS:          0
cpu0_L1I WRITEBACK ACCESS:          0  HIT:          0  MISS:          0
cpu0_STLB TOTAL     ACCESS:       9179  HIT:       8186  MISS:        993
cpu0_STLB LOAD      ACCESS:       6566  HIT:       5877  MISS:        689
cpu0_STLB RFO       ACCESS:       2613  HIT:       2309  MISS:        304
cpu0_STLB PREFETCH  ACCESS:          0  HIT:          0  MISS:          0
cpu0_STLB WRITEBACK ACCESS:          0  HIT:          0  MISS:          0
cpu0_L1D TOTAL     ACCESS:    4508256  HIT:    4243940  MISS:     264316
cpu0_L1D LOAD      ACCESS:    3858961  HIT:    3636221  MISS:     222740
cpu0_L1D RFO       ACCESS:     648311  HIT:     606901  MISS:      41410
cpu0_L1D PREFETCH  ACCESS:          0  HIT:          0  MISS:          0
cpu0_L1D WRITEBACK ACCESS:          0  HIT:          0  MISS:          0
cpu0_L2C TOTAL     ACCESS:     360331  HIT:     183808  MISS:     176523
cpu0_L2C LOAD      ACCESS:     223094  HIT:      84346  MISS:     138748
cpu0_L2C RFO       ACCESS:      41410  HIT:       3959  MISS:      37451
cpu0_L2C PREFETCH  ACCESS:          0  HIT:          0  MISS:          0
cpu0_L2C WRITEBACK ACCESS:      95661  HIT:      95362  MISS:        299
LLC TOTAL     ACCESS:     264097  HIT:      95107  MISS:     168990
LLC LOAD      ACCESS:     138748  HIT:      12887  MISS:     125861
LLC RFO       ACCESS:      37451  HIT:        435  MISS:      37016
LLC PREFETCH  ACCESS:          0  HIT:          0  MISS:          0
LLC WRITEBACK ACCESS:      87873  HIT:      81782  MISS:       6091
Heartbeat CPU 0 instructions: 72000000 cycles: 36935040 heartbeat IPC: 0.481307 cumulative IPC: 1.08442 (Simulation time: 1 hr 2 min 22 sec) 

Region of Interest Statistics
cpu0_DTLB TOTAL     ACCESS:    5451799  HIT:    5434908  MISS:      16891
cpu0_DTLB LOAD      ACCESS:    4848173  HIT:    4836671  MISS:      11502
cpu0_DTLB RFO       ACCESS:     603626  HIT:     598237  MISS:       5389
cpu0_DTLB PREFETCH  ACCESS:          0  HIT:          0  MISS:          0
cpu0_DTLB WRITEBACK ACCESS:          0  HIT:          0  MISS:          0
cpu0_ITLB TOTAL     ACCESS:     667835  HIT:     667834  MISS:          1
cpu0_ITLB LOAD      ACCESS:     667835  HIT:     667834  MISS:          1
cpu0_ITLB RFO       ACCESS:          0  HIT:          0  MISS:          0
cpu0_ITLB PREFETCH  ACCESS:          0  HIT:          0  MISS:          0
cpu0_ITLB WRITEBACK ACCESS:          0  HIT:          0  MISS:          0
cpu0_L1I TOTAL     ACCESS:     241205  HIT:     240594  MISS:        611
cpu0_L1I LOAD      ACCESS:     241205  HIT:     240594  MISS:        611
cpu0_L1I RFO       ACCESS:          0  HIT:          0  MISS:          0
cpu0_L1I PREFETCH  ACCESS:          0  HIT:          0  MISS:          0
cpu0_L1I WRITEBACK ACCESS:          0  HIT:          0  MISS:          0
cpu0_STLB TOTAL     ACCESS:      16892  HIT:      15592  MISS:       1300
cpu0_STLB LOAD      ACCESS:      11503  HIT:      10777  MISS:        726
cpu0_STLB RFO       ACCESS:       5389  HIT:       4815  MISS:        574
cpu0_STLB PREFETCH  ACCESS:          0  HIT:          0  MISS:          0
cpu0_STLB WRITEBACK ACCESS:          0  HIT:          0  MISS:          0
cpu0_L1D TOTAL     ACCESS:    4859061  HIT:    4505578  MISS:     353483
cpu0_L1D LOAD      ACCESS:    4054676  HIT:    3784240  MISS:     270436
cpu0_L1D RFO       ACCESS:     803096  HIT:     720240  MISS:      82856
cpu0_L1D PREFETCH  ACCESS:          0  HIT:          0  MISS:          0
cpu0_L1D WRITEBACK ACCESS:          0  HIT:          0  MISS:          0
cpu0_L2C TOTAL     ACCESS:     507991  HIT:     245576  MISS:     262415
cpu0_L2C LOAD      ACCESS:     270995  HIT:      86089  MISS:     184906
cpu0_L2C RFO       ACCESS:      82856  HIT:       5714  MISS:      77142
cpu0_L2C PREFETCH  ACCESS:          0  HIT:          0  MISS:          0
cpu0_L2C WRITEBACK ACCESS:     153949  HIT:     153616  MISS:        333
LLC TOTAL     ACCESS:     400485  HIT:     159826  MISS:     240659
LLC LOAD      ACCESS:     184906  HIT:      25128  MISS:     159778
LLC RFO       ACCESS:      77142  HIT:       5619  MISS:      71523
LLC PREFETCH  ACCESS:          0  HIT:          0  MISS:          0
LLC WRITEBACK ACCESS:     138403  HIT:     129075  MISS:       9328
Heartbeat CPU 0 instructions: 74000004 cycles: 39071692 heartbeat IPC: 0.936046 cumulative IPC: 1.07028 (Simulation time: 1 hr 5 min 10 sec) 

Region of Interest Statistics
cpu0_DTLB TOTAL     ACCESS:    6047074  HIT:    6029762  MISS:      17312
cpu0_DTLB LOAD      ACCESS:    5384786  HIT:    5373053  MISS:      11733
cpu0_DTLB RFO       ACCESS:     662288  HIT:     656709  MISS:       5579
cpu0_DTLB PREFETCH  ACCESS:          0  HIT:          0  MISS:          0
cpu0_DTLB WRITEBACK ACCESS:          0  HIT:          0  MISS:          0
cpu0_ITLB TOTAL     ACCESS:     712968  HIT:     712967  MISS:          1
cpu0_ITLB LOAD      ACCESS:     712968  HIT:     712967  MISS:          1
cpu0_ITLB RFO       ACCESS:          0  HIT:          0  MISS:          0
cpu0_ITLB PREFETCH  ACCESS:          0  HIT:          0  MISS:          0
cpu0_ITLB WRITEBACK ACCESS:          0  HIT:          0  MISS:          0
cpu0_L1I TOTAL     ACCESS:     246676  HIT:     245947  MISS:        729
cpu0_L1I LOAD      ACCESS:     246676  HIT:     245947  MISS:        729
cpu0_L1I RFO       ACCESS:          0  HIT:          0  MISS:          0
cpu0_L1I PREFETCH  ACCESS:          0  HIT:          0  MISS:          0
cpu0_L1I WRITEBACK ACCESS:          0  HIT:          0  MISS:          0
cpu0_STLB TOTAL     ACCESS:      17313  HIT:      15815  MISS:       1498
cpu0_STLB LOAD      ACCESS:      11734  HIT:      10904  MISS:        830
cpu0_STLB RFO       ACCESS:       5579  HIT:       4911  MISS:        668
cpu0_STLB PREFETCH  ACCESS:          0  HIT:          0  MISS:          0
cpu0_STLB WRITEBACK ACCESS:          0  HIT:          0  MISS:          0
cpu0_L1D TOTAL     ACCESS:    5369192  HIT:    4976212  MISS:     392980
cpu0_L1D LOAD      ACCESS:    4502830  HIT:    4205291  MISS:     297539
cpu0_L1D RFO       ACCESS:     864876  HIT:     769671  MISS:      95205
cpu0_L1D PREFETCH  ACCESS:          0  HIT:          0  MISS:          0
cpu0_L1D WRITEBACK ACCESS:          0  HIT:          0  MISS:          0
cpu0_L2C TOTAL     ACCESS:     564731  HIT:     281480  MISS:     283251
cpu0_L2C LOAD      ACCESS:     298201  HIT:     103671  MISS:     194530
cpu0_L2C RFO       ACCESS:      95205  HIT:       6859  MISS:      88346
cpu0_L2C PREFETCH  ACCESS:          0  HIT:          0  MISS:          0
cpu0_L2C WRITEBACK ACCESS:     171089  HIT:     170753  MISS:        336
LLC TOTAL     ACCESS:     440627  HIT:     176603  MISS:     264024
LLC LOAD      ACCESS:     194530  HIT:      25142  MISS:     169388
LLC RFO       ACCESS:      88346  HIT:       5620  MISS:      82726
LLC PREFETCH  ACCESS:          0  HIT:          0  MISS:          0
LLC WRITEBACK ACCESS:     157712  HIT:     145836  MISS:      11876
Heartbeat CPU 0 instructions: 76000003 cycles: 40210764 heartbeat IPC: 1.75581 cumulative IPC: 1.10342 (Simulation time: 1 hr 7 min 10 sec) 

Region of Interest Statistics
cpu0_DTLB TOTAL     ACCESS:    6655752  HIT:    6638253  MISS:      17499
cpu0_DTLB LOAD      ACCESS:    5956238  HIT:    5944324  MISS:      11914
cpu0_DTLB RFO       ACCESS:     699514  HIT:     693929  MISS:       5585
cpu0_DTLB PREFETCH  ACCESS:          0  HIT:          0  MISS:          0
cpu0_DTLB WRITEBACK ACCESS:          0  HIT:          0  MISS:          0
cpu0_ITLB TOTAL     ACCESS:     745954  HIT:     745953  MISS:          1
cpu0_ITLB LOAD      ACCESS:     745954  HIT:     745953  MISS:          1
cpu0_ITLB RFO       ACCESS:          0  HIT:          0  MISS:          0
cpu0_ITLB PREFETCH  ACCESS:          0  HIT:          0  MISS:          0
cpu0_ITLB WRITEBACK ACCESS:          0  HIT:          0  MISS:          0
cpu0_L1I TOTAL     ACCESS:     247364  HIT:     246635  MISS:        729
cpu0_L1I LOAD      ACCESS:     247364  HIT:     246635  MISS:        729
cpu0_L1I RFO       ACCESS:          0  HIT:          0  MISS:          0
cpu0_L1I PREFETCH  ACCESS:          0  HIT:          0  MISS:          0
cpu0_L1I WRITEBACK ACCESS:          0  HIT:          0  MISS:          0
cpu0_STLB TOTAL     ACCESS:      17500  HIT:      15908  MISS:       1592
cpu0_STLB LOAD      ACCESS:      11915  HIT:      10991  MISS:        924
cpu0_STLB RFO       ACCESS:       5585  HIT:       4917  MISS:        668
cpu0_STLB PREFETCH  ACCESS:          0  HIT:          0  MISS:          0
cpu0_STLB WRITEBACK ACCESS:          0  HIT:          0  MISS:          0
cpu0_L1D TOTAL     ACCESS:    5905254  HIT:    5481961  MISS:     423293
cpu0_L1D LOAD      ACCESS:    4985170  HIT:    4658680  MISS:     326490
cpu0_L1D RFO       ACCESS:     918504  HIT:     821976  MISS:      96528
cpu0_L1D PREFETCH  ACCESS:          0  HIT:          0  MISS:          0
cpu0_L1D WRITEBACK ACCESS:          0  HIT:          0  MISS:          0
cpu0_L2C TOTAL     ACCESS:     601008  HIT:     308422  MISS:     292586
cpu0_L2C LOAD      ACCESS:     327133  HIT:     123269  MISS:     203864
cpu0_L2C RFO       ACCESS:      96528  HIT:       8182  MISS:      88346
cpu0_L2C PREFETCH  ACCESS:          0  HIT:          0  MISS:          0
cpu0_L2C WRITEBACK ACCESS:     177072  HIT:     176736  MISS:        336
LLC TOTAL     ACCESS:     453419  HIT:     180009  MISS:     273410
LLC LOAD      ACCESS:     203864  HIT:      25146  MISS:     178718
LLC RFO       ACCESS:      88346  HIT:       5620  MISS:      82726
LLC PREFETCH  ACCESS:          0  HIT:          0  MISS:          0
LLC WRITEBACK ACCESS:     161169  HIT:     149238  MISS:      11931
Heartbeat CPU 0 instructions: 78000004 cycles: 41338802 heartbeat IPC: 1.77299 cumulative IPC: 1.13401 (Simulation time: 1 hr 9 min 6 sec) 

Region of Interest Statistics
cpu0_DTLB TOTAL     ACCESS:    7214268  HIT:    7196586  MISS:      17682
cpu0_DTLB LOAD      ACCESS:    6475168  HIT:    6463076  MISS:      12092
cpu0_DTLB RFO       ACCESS:     739100  HIT:     733510  MISS:       5590
cpu0_DTLB PREFETCH  ACCESS:          0  HIT:          0  MISS:          0
cpu0_DTLB WRITEBACK ACCESS:          0  HIT:          0  MISS:          0
cpu0_ITLB TOTAL     ACCESS:     783209  HIT:     783208  MISS:          1
cpu0_ITLB LOAD      ACCESS:     783209  HIT:     783208  MISS:          1
cpu0_ITLB RFO       ACCESS:          0  HIT:          0  MISS:          0
cpu0_ITLB PREFETCH  ACCESS:          0  HIT:          0  MISS:          0
cpu0_ITLB WRITEBACK ACCESS:          0  HIT:          0  MISS:          0
cpu0_L1I TOTAL     ACCESS:     248290  HIT:     247504  MISS:        786
cpu0_L1I LOAD      ACCESS:     248290  HIT:     247504  MISS:        786
cpu0_L1I RFO       ACCESS:          0  HIT:          0  MISS:          0
cpu0_L1I PREFETCH  ACCESS:          0  HIT:          0  MISS:          0
cpu0_L1I WRITEBACK ACCESS:          0  HIT:          0  MISS:          0
cpu0_STLB TOTAL     ACCESS:      17683  HIT:      16027  MISS:       1656
cpu0_STLB LOAD      ACCESS:      12093  HIT:      11106  MISS:        987
cpu0_STLB RFO       ACCESS:       5590  HIT:       4921  MISS:        669
cpu0_STLB PREFETCH  ACCESS:          0  HIT:          0  MISS:          0
cpu0_STLB WRITEBACK ACCESS:          0  HIT:          0  MISS:          0
cpu0_L1D TOTAL     ACCESS:    6381855  HIT:    5934211  MISS:     447644
cpu0_L1D LOAD      ACCESS:    5407116  HIT:    5057283  MISS:     349833
cpu0_L1D RFO       ACCESS:     973095  HIT:     875586  MISS:      97509
cpu0_L1D PREFETCH  ACCESS:          0  HIT:          0  MISS:          0
cpu0_L1D WRITEBACK ACCESS:          0  HIT:          0  MISS:          0
cpu0_L2C TOTAL     ACCESS:     630703  HIT:     328418  MISS:     302285
cpu0_L2C LOAD      ACCESS:     350521  HIT:     137091  MISS:     213430
cpu0_L2C RFO       ACCESS:      97509  HIT:       9036  MISS:      88473
cpu0_L2C PREFETCH  ACCESS:          0  HIT:          0  MISS:          0
cpu0_L2C WRITEBACK ACCESS:     182371  HIT:     182031  MISS:        340
LLC TOTAL     ACCESS:     466088  HIT:     183022  MISS:     283066
LLC LOAD      ACCESS:     213430  HIT:      25185  MISS:     188245
LLC RFO       ACCESS:      88473  HIT:       5620  MISS:      82853
LLC PREFETCH  ACCESS:          0  HIT:          0  MISS:          0
LLC WRITEBACK ACCESS:     164143  HIT:     152210  MISS:      11933
Heartbeat CPU 0 instructions: 80000003 cycles: 42563640 heartbeat IPC: 1.63287 cumulative IPC: 1.15759 (Simulation time: 1 hr 10 min 32 sec) 

Region of Interest Statistics
cpu0_DTLB TOTAL     ACCESS:    7661232  HIT:    7643391  MISS:      17841
cpu0_DTLB LOAD      ACCESS:    6877419  HIT:    6865168  MISS:      12251
cpu0_DTLB RFO       ACCESS:     783813  HIT:     778223  MISS:       5590
cpu0_DTLB PREFETCH  ACCESS:          0  HIT:          0  MISS:          0
cpu0_DTLB WRITEBACK ACCESS:          0  HIT:          0  MISS:          0
cpu0_ITLB TOTAL     ACCESS:     826053  HIT:     826052  MISS:          1
cpu0_ITLB LOAD      ACCESS:     826053  HIT:     826052  MISS:          1
cpu0_ITLB RFO       ACCESS:          0  HIT:          0  MISS:          0
cpu0_ITLB PREFETCH  ACCESS:          0  HIT:          0  MISS:          0
cpu0_ITLB WRITEBACK ACCESS:          0  HIT:          0  MISS:          0
cpu0_L1I TOTAL     ACCESS:     249670  HIT:     248884  MISS:        786
cpu0_L1I LOAD      ACCESS:     249670  HIT:     248884  MISS:        786
cpu0_L1I RFO       ACCESS:          0  HIT:          0  MISS:          0
cpu0_L1I PREFETCH  ACCESS:          0  HIT:          0  MISS:          0
cpu0_L1I WRITEBACK ACCESS:          0  HIT:          0  MISS:          0
cpu0_STLB TOTAL     ACCESS:      17842  HIT:      16186  MISS:       1656
cpu0_STLB LOAD      ACCESS:      12252  HIT:      11265  MISS:        987
cpu0_STLB RFO       ACCESS:       5590  HIT:       4921  MISS:        669
cpu0_STLB PREFETCH  ACCESS:          0  HIT:          0  MISS:          0
cpu0_STLB WRITEBACK ACCESS:          0  HIT:          0  MISS:          0
cpu0_L1D TOTAL     ACCESS:    6736392  HIT:    6278981  MISS:     457411
cpu0_L1D LOAD      ACCESS:    5704670  HIT:    5345070  MISS:     359600
cpu0_L1D RFO       ACCESS:    1030078  HIT:     932569  MISS:      97509
cpu0_L1D PREFETCH  ACCESS:          0  HIT:          0  MISS:          0
cpu0_L1D WRITEBACK ACCESS:          0  HIT:          0  MISS:          0
cpu0_L2C TOTAL     ACCESS:     643657  HIT:     331617  MISS:     312040
cpu0_L2C LOAD      ACCESS:     360288  HIT:     137103  MISS:     223185
cpu0_L2C RFO       ACCESS:      97509  HIT:       9036  MISS:      88473
cpu0_L2C PREFETCH  ACCESS:          0  HIT:          0  MISS:          0
cpu0_L2C WRITEBACK ACCESS:     185558  HIT:     185218  MISS:        340
LLC TOTAL     ACCESS:     479237  HIT:     186167  MISS:     293070
LLC LOAD      ACCESS:     223185  HIT:      25205  MISS:     197980
LLC RFO       ACCESS:      88473  HIT:       5620  MISS:      82853
LLC PREFETCH  ACCESS:          0  HIT:          0  MISS:          0
LLC WRITEBACK ACCESS:     167537  HIT:     155335  MISS:      12202
Heartbeat CPU 0 instructions: 82000001 cycles: 43790059 heartbeat IPC: 1.63076 cumulative IPC: 1.17897 (Simulation time: 1 hr 12 min 23 sec) 

Region of Interest Statistics
cpu0_DTLB TOTAL     ACCESS:    8108133  HIT:    8090137  MISS:      17996
cpu0_DTLB LOAD      ACCESS:    7279587  HIT:    7267181  MISS:      12406
cpu0_DTLB RFO       ACCESS:     828546  HIT:     822956  MISS:       5590
cpu0_DTLB PREFETCH  ACCESS:          0  HIT:          0  MISS:          0
cpu0_DTLB WRITEBACK ACCESS:          0  HIT:          0  MISS:          0
cpu0_ITLB TOTAL     ACCESS:     868224  HIT:     868223  MISS:          1
cpu0_ITLB LOAD      ACCESS:     868224  HIT:     868223  MISS:          1
cpu0_ITLB RFO       ACCESS:          0  HIT:          0  MISS:          0
cpu0_ITLB PREFETCH  ACCESS:          0  HIT:          0  MISS:          0
cpu0_ITLB WRITEBACK ACCESS:          0  HIT:          0  MISS:          0
cpu0_L1I TOTAL     ACCESS:     250990  HIT:     250204  MISS:        786
cpu0_L1I LOAD      ACCESS:     250990  HIT:     250204  MISS:        786
cpu0_L1I RFO       ACCESS:          0  HIT:          0  MISS:          0
cpu0_L1I PREFETCH  ACCESS:          0  HIT:          0  MISS:          0
cpu0_L1I WRITEBACK ACCESS:          0  HIT:          0  MISS:          0
cpu0_STLB TOTAL     ACCESS:      17997  HIT:      16341  MISS:       1656
cpu0_STLB LOAD      ACCESS:      12407  HIT:      11420  MISS:        987
cpu0_STLB RFO       ACCESS:       5590  HIT:       4921  MISS:        669
cpu0_STLB PREFETCH  ACCESS:          0  HIT:          0  MISS:          0
cpu0_STLB WRITEBACK ACCESS:          0  HIT:          0  MISS:          0
cpu0_L1D TOTAL     ACCESS:    7090156  HIT:    6623093  MISS:     467063
cpu0_L1D LOAD      ACCESS:    6001873  HIT:    5632621  MISS:     369252
cpu0_L1D RFO       ACCESS:    1086639  HIT:     989130  MISS:      97509
cpu0_L1D PREFETCH  ACCESS:          0  HIT:          0  MISS:          0
cpu0_L1D WRITEBACK ACCESS:          0  HIT:          0  MISS:          0
cpu0_L2C TOTAL     ACCESS:     656513  HIT:     334831  MISS:     321682
cpu0_L2C LOAD      ACCESS:     369940  HIT:     137114  MISS:     232826
cpu0_L2C RFO       ACCESS:      97509  HIT:       9036  MISS:      88473
cpu0_L2C PREFETCH  ACCESS:          0  HIT:          0  MISS:          0
cpu0_L2C WRITEBACK ACCESS:     188762  HIT:     188421  MISS:        341
LLC TOTAL     ACCESS:     491848  HIT:     189148  MISS:     302700
LLC LOAD      ACCESS:     232826  HIT:      25216  MISS:     207610
LLC RFO       ACCESS:      88473  HIT:       5620  MISS:      82853
LLC PREFETCH  ACCESS:          0  HIT:          0  MISS:          0
LLC WRITEBACK ACCESS:     170507  HIT:     158305  MISS:      12202
Heartbeat CPU 0 instructions: 84000002 cycles: 45102439 heartbeat IPC: 1.52395 cumulative IPC: 1.19488 (Simulation time: 1 hr 14 min 20 sec) 

Region of Interest Statistics
cpu0_DTLB TOTAL     ACCESS:    8547591  HIT:    8529397  MISS:      18194
cpu0_DTLB LOAD      ACCESS:    7681612  HIT:    7669011  MISS:      12601
cpu0_DTLB RFO       ACCESS:     865979  HIT:     860386  MISS:       5593
cpu0_DTLB PREFETCH  ACCESS:          0  HIT:          0  MISS:          0
cpu0_DTLB WRITEBACK ACCESS:          0  HIT:          0  MISS:          0
cpu0_ITLB TOTAL     ACCESS:     909057  HIT:     909056  MISS:          1
cpu0_ITLB LOAD      ACCESS:     909057  HIT:     909056  MISS:          1
cpu0_ITLB RFO       ACCESS:          0  HIT:          0  MISS:          0
cpu0_ITLB PREFETCH  ACCESS:          0  HIT:          0  MISS:          0
cpu0_ITLB WRITEBACK ACCESS:          0  HIT:          0  MISS:          0
cpu0_L1I TOTAL     ACCESS:     252147  HIT:     251322  MISS:        825
cpu0_L1I LOAD      ACCESS:     252147  HIT:     251322  MISS:        825
cpu0_L1I RFO       ACCESS:          0  HIT:          0  MISS:          0
cpu0_L1I PREFETCH  ACCESS:          0  HIT:          0  MISS:          0
cpu0_L1I WRITEBACK ACCESS:          0  HIT:          0  MISS:          0
cpu0_STLB TOTAL     ACCESS:      18195  HIT:      16498  MISS:       1697
cpu0_STLB LOAD      ACCESS:      12602  HIT:      11575  MISS:       1027
cpu0_STLB RFO       ACCESS:       5593  HIT:       4923  MISS:        670
cpu0_STLB PREFETCH  ACCESS:          0  HIT:          0  MISS:          0
cpu0_STLB WRITEBACK ACCESS:          0  HIT:          0  MISS:          0
cpu0_L1D TOTAL     ACCESS:    7515235  HIT:    7036743  MISS:     478492
cpu0_L1D LOAD      ACCESS:    6362834  HIT:    5982287  MISS:     380547
cpu0_L1D RFO       ACCESS:    1150717  HIT:    1053078  MISS:      97639
cpu0_L1D PREFETCH  ACCESS:          0  HIT:          0  MISS:          0
cpu0_L1D WRITEBACK ACCESS:          0  HIT:          0  MISS:          0
cpu0_L2C TOTAL     ACCESS:     671825  HIT:     338554  MISS:     333271
cpu0_L2C LOAD      ACCESS:     381275  HIT:     137123  MISS:     244152
cpu0_L2C RFO       ACCESS:      97639  HIT:       9036  MISS:      88603
cpu0_L2C PREFETCH  ACCESS:          0  HIT:          0  MISS:          0
cpu0_L2C WRITEBACK ACCESS:     192605  HIT:     192134  MISS:        471
LLC TOTAL     ACCESS:     507379  HIT:     193259  MISS:     314120
LLC LOAD      ACCESS:     244152  HIT:      25275  MISS:     218877
LLC RFO       ACCESS:      88603  HIT:       5620  MISS:      82983
LLC PREFETCH  ACCESS:          0  HIT:          0  MISS:          0
LLC WRITEBACK ACCESS:     174579  HIT:     162355  MISS:      12224
Heartbeat CPU 0 instructions: 86000001 cycles: 46461156 heartbeat IPC: 1.47198 cumulative IPC: 1.20751 (Simulation time: 1 hr 16 min 38 sec) 

Region of Interest Statistics
cpu0_DTLB TOTAL     ACCESS:    8983828  HIT:    8965437  MISS:      18391
cpu0_DTLB LOAD      ACCESS:    8084418  HIT:    8071620  MISS:      12798
cpu0_DTLB RFO       ACCESS:     899410  HIT:     893817  MISS:       5593
cpu0_DTLB PREFETCH  ACCESS:          0  HIT:          0  MISS:          0
cpu0_DTLB WRITEBACK ACCESS:          0  HIT:          0  MISS:          0
cpu0_ITLB TOTAL     ACCESS:     948013  HIT:     948012  MISS:          1
cpu0_ITLB LOAD      ACCESS:     948013  HIT:     948012  MISS:          1
cpu0_ITLB RFO       ACCESS:          0  HIT:          0  MISS:          0
cpu0_ITLB PREFETCH  ACCESS:          0  HIT:          0  MISS:          0
cpu0_ITLB WRITEBACK ACCESS:          0  HIT:          0  MISS:          0
cpu0_L1I TOTAL     ACCESS:     253043  HIT:     252218  MISS:        825
cpu0_L1I LOAD      ACCESS:     253043  HIT:     252218  MISS:        825
cpu0_L1I RFO       ACCESS:          0  HIT:          0  MISS:          0
cpu0_L1I PREFETCH  ACCESS:          0  HIT:          0  MISS:          0
cpu0_L1I WRITEBACK ACCESS:          0  HIT:          0  MISS:          0
cpu0_STLB TOTAL     ACCESS:      18392  HIT:      16639  MISS:       1753
cpu0_STLB LOAD      ACCESS:      12799  HIT:      11716  MISS:       1083
cpu0_STLB RFO       ACCESS:       5593  HIT:       4923  MISS:        670
cpu0_STLB PREFETCH  ACCESS:          0  HIT:          0  MISS:          0
cpu0_STLB WRITEBACK ACCESS:          0  HIT:          0  MISS:          0
cpu0_L1D TOTAL     ACCESS:    7982036  HIT:    7491569  MISS:     490467
cpu0_L1D LOAD      ACCESS:    6760711  HIT:    6368191  MISS:     392520
cpu0_L1D RFO       ACCESS:    1219585  HIT:    1121946  MISS:      97639
cpu0_L1D PREFETCH  ACCESS:          0  HIT:          0  MISS:          0
cpu0_L1D WRITEBACK ACCESS:          0  HIT:          0  MISS:          0
cpu0_L2C TOTAL     ACCESS:     687895  HIT:     342659  MISS:     345236
cpu0_L2C LOAD      ACCESS:     393247  HIT:     137131  MISS:     256116
cpu0_L2C RFO       ACCESS:      97639  HIT:       9036  MISS:      88603
cpu0_L2C PREFETCH  ACCESS:          0  HIT:          0  MISS:          0
cpu0_L2C WRITEBACK ACCESS:     196701  HIT:     196230  MISS:        471
LLC TOTAL     ACCESS:     523466  HIT:     197275  MISS:     326191
LLC LOAD      ACCESS:     256116  HIT:      25300  MISS:     230816
LLC RFO       ACCESS:      88603  HIT:       5620  MISS:      82983
LLC PREFETCH  ACCESS:          0  HIT:          0  MISS:          0
LLC WRITEBACK ACCESS:     178701  HIT:     166346  MISS:      12355
Heartbeat CPU 0 instructions: 88000004 cycles: 48181158 heartbeat IPC: 1.16279 cumulative IPC: 1.20507 (Simulation time: 1 hr 19 min 15 sec) 

Region of Interest Statistics
cpu0_DTLB TOTAL     ACCESS:    9470115  HIT:    9451468  MISS:      18647
cpu0_DTLB LOAD      ACCESS:    8539174  HIT:    8526122  MISS:      13052
cpu0_DTLB RFO       ACCESS:     930941  HIT:     925346  MISS:       5595
cpu0_DTLB PREFETCH  ACCESS:          0  HIT:          0  MISS:          0
cpu0_DTLB WRITEBACK ACCESS:          0  HIT:          0  MISS:          0
cpu0_ITLB TOTAL     ACCESS:     988920  HIT:     988919  MISS:          1
cpu0_ITLB LOAD      ACCESS:     988920  HIT:     988919  MISS:          1
cpu0_ITLB RFO       ACCESS:          0  HIT:          0  MISS:          0
cpu0_ITLB PREFETCH  ACCESS:          0  HIT:          0  MISS:          0
cpu0_ITLB WRITEBACK ACCESS:          0  HIT:          0  MISS:          0
cpu0_L1I TOTAL     ACCESS:     310319  HIT:     309432  MISS:        887
cpu0_L1I LOAD      ACCESS:     310319  HIT:     309432  MISS:        887
cpu0_L1I RFO       ACCESS:          0  HIT:          0  MISS:          0
cpu0_L1I PREFETCH  ACCESS:          0  HIT:          0  MISS:          0
cpu0_L1I WRITEBACK ACCESS:          0  HIT:          0  MISS:          0
cpu0_STLB TOTAL     ACCESS:      18648  HIT:      16773  MISS:       1875
cpu0_STLB LOAD      ACCESS:      13053  HIT:      11848  MISS:       1205
cpu0_STLB RFO       ACCESS:       5595  HIT:       4925  MISS:        670
cpu0_STLB PREFETCH  ACCESS:          0  HIT:          0  MISS:          0
cpu0_STLB WRITEBACK ACCESS:          0  HIT:          0  MISS:          0
cpu0_L1D TOTAL     ACCESS:    8459255  HIT:    7946307  MISS:     512948
cpu0_L1D LOAD      ACCESS:    7183142  HIT:    6768166  MISS:     414976
cpu0_L1D RFO       ACCESS:    1274256  HIT:    1176603  MISS:      97653
cpu0_L1D PREFETCH  ACCESS:          0  HIT:          0  MISS:          0
cpu0_L1D WRITEBACK ACCESS:          0  HIT:          0  MISS:          0
cpu0_L2C TOTAL     ACCESS:     714929  HIT:     355673  MISS:     359256
cpu0_L2C LOAD      ACCESS:     415765  HIT:     145786  MISS:     269979
cpu0_L2C RFO       ACCESS:      97653  HIT:       9036  MISS:      88617
cpu0_L2C PREFETCH  ACCESS:          0  HIT:          0  MISS:          0
cpu0_L2C WRITEBACK ACCESS:     201192  HIT:     200583  MISS:        609
LLC TOTAL     ACCESS:     542103  HIT:     202033  MISS:     340070
LLC LOAD      ACCESS:     269979  HIT:      25372  MISS:     244607
LLC RFO       ACCESS:      88617  HIT:       5620  MISS:      82997
LLC PREFETCH  ACCESS:          0  HIT:          0  MISS:          0
LLC WRITEBACK ACCESS:     183456  HIT:     171031  MISS:      12425
Heartbeat CPU 0 instructions: 90000004 cycles: 50137388 heartbeat IPC: 1.02237 cumulative IPC: 1.1944 (Simulation time: 1 hr 21 min 54 sec) 

Region of Interest Statistics
cpu0_DTLB TOTAL     ACCESS:   10002067  HIT:    9983186  MISS:      18881
cpu0_DTLB LOAD      ACCESS:    9040947  HIT:    9027661  MISS:      13286
cpu0_DTLB RFO       ACCESS:     961120  HIT:     955525  MISS:       5595
cpu0_DTLB PREFETCH  ACCESS:          0  HIT:          0  MISS:          0
cpu0_DTLB WRITEBACK ACCESS:          0  HIT:          0  MISS:          0
cpu0_ITLB TOTAL     ACCESS:    1030945  HIT:    1030944  MISS:          1
cpu0_ITLB LOAD      ACCESS:    1030945  HIT:    1030944  MISS:          1
cpu0_ITLB RFO       ACCESS:          0  HIT:          0  MISS:          0
cpu0_ITLB PREFETCH  ACCESS:          0  HIT:          0  MISS:          0
cpu0_ITLB WRITEBACK ACCESS:          0  HIT:          0  MISS:          0
cpu0_L1I TOTAL     ACCESS:     415995  HIT:     415108  MISS:        887
cpu0_L1I LOAD      ACCESS:     415995  HIT:     415108  MISS:        887
cpu0_L1I RFO       ACCESS:          0  HIT:          0  MISS:          0
cpu0_L1I PREFETCH  ACCESS:          0  HIT:          0  MISS:          0
cpu0_L1I WRITEBACK ACCESS:          0  HIT:          0  MISS:          0
cpu0_STLB TOTAL     ACCESS:      18882  HIT:      16854  MISS:       2028
cpu0_STLB LOAD      ACCESS:      13287  HIT:      11929  MISS:       1358
cpu0_STLB RFO       ACCESS:       5595  HIT:       4925  MISS:        670
cpu0_STLB PREFETCH  ACCESS:          0  HIT:          0  MISS:          0
cpu0_STLB WRITEBACK ACCESS:          0  HIT:          0  MISS:          0
cpu0_L1D TOTAL     ACCESS:    8948275  HIT:    8404201  MISS:     544074
cpu0_L1D LOAD      ACCESS:    7630531  HIT:    7184444  MISS:     446087
cpu0_L1D RFO       ACCESS:    1315734  HIT:    1218081  MISS:      97653
cpu0_L1D PREFETCH  ACCESS:          0  HIT:          0  MISS:          0
cpu0_L1D WRITEBACK ACCESS:          0  HIT:          0  MISS:          0
cpu0_L2C TOTAL     ACCESS:     750369  HIT:     377188  MISS:     373181
cpu0_L2C LOAD      ACCESS:     446876  HIT:     162972  MISS:     283904
cpu0_L2C RFO       ACCESS:      97653  HIT:       9036  MISS:      88617
cpu0_L2C PREFETCH  ACCESS:          0  HIT:          0  MISS:          0
cpu0_L2C WRITEBACK ACCESS:     205506  HIT:     204897  MISS:        609
LLC TOTAL     ACCESS:     560292  HIT:     206213  MISS:     354079
LLC LOAD      ACCESS:     283904  HIT:      25372  MISS:     258532
LLC RFO       ACCESS:      88617  HIT:       5620  MISS:      82997
LLC PREFETCH  ACCESS:          0  HIT:          0  MISS:          0
LLC WRITEBACK ACCESS:     187720  HIT:     175211  MISS:      12509
Heartbeat CPU 0 instructions: 92000002 cycles: 52365111 heartbeat IPC: 0.897777 cumulative IPC: 1.1759 (Simulation time: 1 hr 24 min 47 sec) 

Region of Interest Statistics
cpu0_DTLB TOTAL     ACCESS:   10454435  HIT:   10434661  MISS:      19774
cpu0_DTLB LOAD      ACCESS:    9415995  HIT:    9402104  MISS:      13891
cpu0_DTLB RFO       ACCESS:    1038440  HIT:    1032557  MISS:       5883
cpu0_DTLB PREFETCH  ACCESS:          0  HIT:          0  MISS:          0
cpu0_DTLB WRITEBACK ACCESS:          0  HIT:          0  MISS:          0
cpu0_ITLB TOTAL     ACCESS:    1163333  HIT:    1163332  MISS:          1
cpu0_ITLB LOAD      ACCESS:    1163333  HIT:    1163332  MISS:          1
cpu0_ITLB RFO       ACCESS:          0  HIT:          0  MISS:          0
cpu0_ITLB PREFETCH  ACCESS:          0  HIT:          0  MISS:          0
cpu0_ITLB WRITEBACK ACCESS:          0  HIT:          0  MISS:          0
cpu0_L1I TOTAL     ACCESS:     458823  HIT:     457824  MISS:        999
cpu0_L1I LOAD      ACCESS:     458823  HIT:     457824  MISS:        999
cpu0_L1I RFO       ACCESS:          0  HIT:          0  MISS:          0
cpu0_L1I PREFETCH  ACCESS:          0  HIT:          0  MISS:          0
cpu0_L1I WRITEBACK ACCESS:          0  HIT:          0  MISS:          0
cpu0_STLB TOTAL     ACCESS:      19775  HIT:      17561  MISS:       2214
cpu0_STLB LOAD      ACCESS:      13892  HIT:      12462  MISS:       1430
cpu0_STLB RFO       ACCESS:       5883  HIT:       5099  MISS:        784
cpu0_STLB PREFETCH  ACCESS:          0  HIT:          0  MISS:          0
cpu0_STLB WRITEBACK ACCESS:          0  HIT:          0  MISS:          0
cpu0_L1D TOTAL     ACCESS:    9352353  HIT:    8749304  MISS:     603049
cpu0_L1D LOAD      ACCESS:    7920369  HIT:    7432591  MISS:     487778
cpu0_L1D RFO       ACCESS:    1429790  HIT:    1314870  MISS:     114920
cpu0_L1D PREFETCH  ACCESS:          0  HIT:          0  MISS:          0
cpu0_L1D WRITEBACK ACCESS:          0  HIT:          0  MISS:          0
cpu0_L2C TOTAL     ACCESS:     837989  HIT:     413846  MISS:     424143
cpu0_L2C LOAD      ACCESS:     488679  HIT:     169957  MISS:     318722
cpu0_L2C RFO       ACCESS:     114920  HIT:      10178  MISS:     104742
cpu0_L2C PREFETCH  ACCESS:          0  HIT:          0  MISS:          0
cpu0_L2C WRITEBACK ACCESS:     234039  HIT:     233418  MISS:        621
LLC TOTAL     ACCESS:     636011  HIT:     243605  MISS:     392406
LLC LOAD      ACCESS:     318722  HIT:      33449  MISS:     285273
LLC RFO       ACCESS:     104742  HIT:      10485  MISS:      94257
LLC PREFETCH  ACCESS:          0  HIT:          0  MISS:          0
LLC WRITEBACK ACCESS:     212489  HIT:     199661  MISS:      12828
Heartbeat CPU 0 instructions: 94000003 cycles: 56704384 heartbeat IPC: 0.460907 cumulative IPC: 1.09844 (Simulation time: 1 hr 29 min 10 sec) 

Region of Interest Statistics
cpu0_DTLB TOTAL     ACCESS:   10997484  HIT:   10970467  MISS:      27017
cpu0_DTLB LOAD      ACCESS:    9843593  HIT:    9824890  MISS:      18703
cpu0_DTLB RFO       ACCESS:    1153891  HIT:    1145577  MISS:       8314
cpu0_DTLB PREFETCH  ACCESS:          0  HIT:          0  MISS:          0
cpu0_DTLB WRITEBACK ACCESS:          0  HIT:          0  MISS:          0
cpu0_ITLB TOTAL     ACCESS:    1255724  HIT:    1255723  MISS:          1
cpu0_ITLB LOAD      ACCESS:    1255724  HIT:    1255723  MISS:          1
cpu0_ITLB RFO       ACCESS:          0  HIT:          0  MISS:          0
cpu0_ITLB PREFETCH  ACCESS:          0  HIT:          0  MISS:          0
cpu0_ITLB WRITEBACK ACCESS:          0  HIT:          0  MISS:          0
cpu0_L1I TOTAL     ACCESS:     474048  HIT:     472838  MISS:       1210
cpu0_L1I LOAD      ACCESS:     474048  HIT:     472838  MISS:       1210
cpu0_L1I RFO       ACCESS:          0  HIT:          0  MISS:          0
cpu0_L1I PREFETCH  ACCESS:          0  HIT:          0  MISS:          0
cpu0_L1I WRITEBACK ACCESS:          0  HIT:          0  MISS:          0
cpu0_STLB TOTAL     ACCESS:      27018  HIT:      24474  MISS:       2544
cpu0_STLB LOAD      ACCESS:      18704  HIT:      17191  MISS:       1513
cpu0_STLB RFO       ACCESS:       8314  HIT:       7283  MISS:       1031
cpu0_STLB PREFETCH  ACCESS:          0  HIT:          0  MISS:          0
cpu0_STLB WRITEBACK ACCESS:          0  HIT:          0  MISS:          0
cpu0_L1D TOTAL     ACCESS:    9792314  HIT:    9119298  MISS:     673016
cpu0_L1D LOAD      ACCESS:    8261877  HIT:    7740209  MISS:     521668
cpu0_L1D RFO       ACCESS:    1527915  HIT:    1376963  MISS:     150952
cpu0_L1D PREFETCH  ACCESS:          0  HIT:          0  MISS:          0
cpu0_L1D WRITEBACK ACCESS:          0  HIT:          0  MISS:          0
cpu0_L2C TOTAL     ACCESS:     954566  HIT:     473117  MISS:     481449
cpu0_L2C LOAD      ACCESS:     522767  HIT:     181527  MISS:     341240
cpu0_L2C RFO       ACCESS:     150951  HIT:      11458  MISS:     139493
cpu0_L2C PREFETCH  ACCESS:          0  HIT:          0  MISS:          0
cpu0_L2C WRITEBACK ACCESS:     280452  HIT:     279804  MISS:        648
LLC TOTAL     ACCESS:     737798  HIT:     287937  MISS:     449861
LLC LOAD      ACCESS:     341240  HIT:      37446  MISS:     303794
LLC RFO       ACCESS:     139493  HIT:      10837  MISS:     128656
LLC PREFETCH  ACCESS:          0  HIT:          0  MISS:          0
LLC WRITEBACK ACCESS:     256997  HIT:     239643  MISS:      17354
Heartbeat CPU 0 instructions: 96000002 cycles: 57913431 heartbeat IPC: 1.65419 cumulative IPC: 1.11473 (Simulation time: 1 hr 31 min 17 sec) 

Region of Interest Statistics
cpu0_DTLB TOTAL     ACCESS:   11605836  HIT:   11578638  MISS:      27198
cpu0_DTLB LOAD      ACCESS:   10415208  HIT:   10396324  MISS:      18884
cpu0_DTLB RFO       ACCESS:    1190628  HIT:    1182314  MISS:       8314
cpu0_DTLB PREFETCH  ACCESS:          0  HIT:          0  MISS:          0
cpu0_DTLB WRITEBACK ACCESS:          0  HIT:          0  MISS:          0
cpu0_ITLB TOTAL     ACCESS:    1288965  HIT:    1288964  MISS:          1
cpu0_ITLB LOAD      ACCESS:    1288965  HIT:    1288964  MISS:          1
cpu0_ITLB RFO       ACCESS:          0  HIT:          0  MISS:          0
cpu0_ITLB PREFETCH  ACCESS:          0  HIT:          0  MISS:          0
cpu0_ITLB WRITEBACK ACCESS:          0  HIT:          0  MISS:          0
cpu0_L1I TOTAL     ACCESS:     474755  HIT:     473545  MISS:       1210
cpu0_L1I LOAD      ACCESS:     474755  HIT:     473545  MISS:       1210
cpu0_L1I RFO       ACCESS:          0  HIT:          0  MISS:          0
cpu0_L1I PREFETCH  ACCESS:          0  HIT:          0  MISS:          0
cpu0_L1I WRITEBACK ACCESS:          0  HIT:          0  MISS:          0
cpu0_STLB TOTAL     ACCESS:      27199  HIT:      24562  MISS:       2637
cpu0_STLB LOAD      ACCESS:      18885  HIT:      17279  MISS:       1606
cpu0_STLB RFO       ACCESS:       8314  HIT:       7283  MISS:       1031
cpu0_STLB PREFETCH  ACCESS:          0  HIT:          0  MISS:          0
cpu0_STLB WRITEBACK ACCESS:          0  HIT:          0  MISS:          0
cpu0_L1D TOTAL     ACCESS:   10329096  HIT:    9625781  MISS:     703315
cpu0_L1D LOAD      ACCESS:    8744851  HIT:    8194215  MISS:     550636
cpu0_L1D RFO       ACCESS:    1581630  HIT:    1429388  MISS:     152242
cpu0_L1D PREFETCH  ACCESS:          0  HIT:          0  MISS:          0
cpu0_L1D WRITEBACK ACCESS:          0  HIT:          0  MISS:          0
cpu0_L2C TOTAL     ACCESS:     990636  HIT:     499828  MISS:     490808
cpu0_L2C LOAD      ACCESS:     551716  HIT:     201119  MISS:     350597
cpu0_L2C RFO       ACCESS:     152241  HIT:      12748  MISS:     139493
cpu0_L2C PREFETCH  ACCESS:          0  HIT:          0  MISS:          0
cpu0_L2C WRITEBACK ACCESS:     286242  HIT:     285594  MISS:        648
LLC TOTAL     ACCESS:     751201  HIT:     291579  MISS:     459622
LLC LOAD      ACCESS:     350597  HIT:      37449  MISS:     313148
LLC RFO       ACCESS:     139493  HIT:      10837  MISS:     128656
LLC PREFETCH  ACCESS:          0  HIT:          0  MISS:          0
LLC WRITEBACK ACCESS:     261041  HIT:     243280  MISS:      17761
Heartbeat CPU 0 instructions: 98000000 cycles: 58999078 heartbeat IPC: 1.84222 cumulative IPC: 1.13337 (Simulation time: 1 hr 33 min 16 sec) 

Region of Interest Statistics
cpu0_DTLB TOTAL     ACCESS:   12214679  HIT:   12187312  MISS:      27367
cpu0_DTLB LOAD      ACCESS:   10987267  HIT:   10968214  MISS:      19053
cpu0_DTLB RFO       ACCESS:    1227412  HIT:    1219098  MISS:       8314
cpu0_DTLB PREFETCH  ACCESS:          0  HIT:          0  MISS:          0
cpu0_DTLB WRITEBACK ACCESS:          0  HIT:          0  MISS:          0
cpu0_ITLB TOTAL     ACCESS:    1321738  HIT:    1321737  MISS:          1
cpu0_ITLB LOAD      ACCESS:    1321738  HIT:    1321737  MISS:          1
cpu0_ITLB RFO       ACCESS:          0  HIT:          0  MISS:          0
cpu0_ITLB PREFETCH  ACCESS:          0  HIT:          0  MISS:          0
cpu0_ITLB WRITEBACK ACCESS:          0  HIT:          0  MISS:          0
cpu0_L1I TOTAL     ACCESS:     475428  HIT:     474218  MISS:       1210
cpu0_L1I LOAD      ACCESS:     475428  HIT:     474218  MISS:       1210
cpu0_L1I RFO       ACCESS:          0  HIT:          0  MISS:          0
cpu0_L1I PREFETCH  ACCESS:          0  HIT:          0  MISS:          0
cpu0_L1I WRITEBACK ACCESS:          0  HIT:          0  MISS:          0
cpu0_STLB TOTAL     ACCESS:      27368  HIT:      24639  MISS:       2729
cpu0_STLB LOAD      ACCESS:      19054  HIT:      17356  MISS:       1698
cpu0_STLB RFO       ACCESS:       8314  HIT:       7283  MISS:       1031
cpu0_STLB PREFETCH  ACCESS:          0  HIT:          0  MISS:          0
cpu0_STLB WRITEBACK ACCESS:          0  HIT:          0  MISS:          0
cpu0_L1D TOTAL     ACCESS:   10866506  HIT:   10133138  MISS:     733368
cpu0_L1D LOAD      ACCESS:    9228794  HIT:    8649440  MISS:     579354
cpu0_L1D RFO       ACCESS:    1635005  HIT:    1481470  MISS:     153535
cpu0_L1D PREFETCH  ACCESS:          0  HIT:          0  MISS:          0
cpu0_L1D WRITEBACK ACCESS:          0  HIT:          0  MISS:          0
cpu0_L2C TOTAL     ACCESS:    1026684  HIT:     526618  MISS:     500066
cpu0_L2C LOAD      ACCESS:     580415  HIT:     220560  MISS:     359855
cpu0_L2C RFO       ACCESS:     153534  HIT:      14041  MISS:     139493
cpu0_L2C PREFETCH  ACCESS:          0  HIT:          0  MISS:          0
cpu0_L2C WRITEBACK ACCESS:     292256  HIT:     291608  MISS:        648
LLC TOTAL     ACCESS:     763738  HIT:     294868  MISS:     468870
LLC LOAD      ACCESS:     359855  HIT:      37470  MISS:     322385
LLC RFO       ACCESS:     139493  HIT:      10837  MISS:     128656
LLC PREFETCH  ACCESS:          0  HIT:          0  MISS:          0
LLC WRITEBACK ACCESS:     264320  HIT:     246548  MISS:      17772
Heartbeat CPU 0 instructions: 100000002 cycles: 60257172 heartbeat IPC: 1.58971 cumulative IPC: 1.14654 (Simulation time: 1 hr 34 min 59 sec) 

Region of Interest Statistics
cpu0_DTLB TOTAL     ACCESS:   12667787  HIT:   12640243  MISS:      27544
cpu0_DTLB LOAD      ACCESS:   11396331  HIT:   11377104  MISS:      19227
cpu0_DTLB RFO       ACCESS:    1271456  HIT:    1263139  MISS:       8317
cpu0_DTLB PREFETCH  ACCESS:          0  HIT:          0  MISS:          0
cpu0_DTLB WRITEBACK ACCESS:          0  HIT:          0  MISS:          0
cpu0_ITLB TOTAL     ACCESS:    1365783  HIT:    1365782  MISS:          1
cpu0_ITLB LOAD      ACCESS:    1365783  HIT:    1365782  MISS:          1
cpu0_ITLB RFO       ACCESS:          0  HIT:          0  MISS:          0
cpu0_ITLB PREFETCH  ACCESS:          0  HIT:          0  MISS:          0
cpu0_ITLB WRITEBACK ACCESS:          0  HIT:          0  MISS:          0
cpu0_L1I TOTAL     ACCESS:     476820  HIT:     475553  MISS:       1267
cpu0_L1I LOAD      ACCESS:     476820  HIT:     475553  MISS:       1267
cpu0_L1I RFO       ACCESS:          0  HIT:          0  MISS:          0
cpu0_L1I PREFETCH  ACCESS:          0  HIT:          0  MISS:          0
cpu0_L1I WRITEBACK ACCESS:          0  HIT:          0  MISS:          0
cpu0_STLB TOTAL     ACCESS:      27545  HIT:      24809  MISS:       2736
cpu0_STLB LOAD      ACCESS:      19228  HIT:      17524  MISS:       1704
cpu0_STLB RFO       ACCESS:       8317  HIT:       7285  MISS:       1032
cpu0_STLB PREFETCH  ACCESS:          0  HIT:          0  MISS:          0
cpu0_STLB WRITEBACK ACCESS:          0  HIT:          0  MISS:          0
cpu0_L1D TOTAL     ACCESS:   11225888  HIT:   10481082  MISS:     744806
cpu0_L1D LOAD      ACCESS:    9531116  HIT:    8940495  MISS:     590621
cpu0_L1D RFO       ACCESS:    1692058  HIT:    1538354  MISS:     153704
cpu0_L1D PREFETCH  ACCESS:          0  HIT:          0  MISS:          0
cpu0_L1D WRITEBACK ACCESS:          0  HIT:          0  MISS:          0
cpu0_L2C TOTAL     ACCESS:    1041691  HIT:     531541  MISS:     510150
cpu0_L2C LOAD      ACCESS:     591737  HIT:     221929  MISS:     369808
cpu0_L2C RFO       ACCESS:     153703  HIT:      14083  MISS:     139620
cpu0_L2C PREFETCH  ACCESS:          0  HIT:          0  MISS:          0
cpu0_L2C WRITEBACK ACCESS:     295770  HIT:     295119  MISS:        651
LLC TOTAL     ACCESS:     777165  HIT:     297980  MISS:     479185
LLC LOAD      ACCESS:     369808  HIT:      37483  MISS:     332325
LLC RFO       ACCESS:     139620  HIT:      10837  MISS:     128783
LLC PREFETCH  ACCESS:          0  HIT:          0  MISS:          0
LLC WRITEBACK ACCESS:     267666  HIT:     249646  MISS:      18020
Heartbeat CPU 0 instructions: 102000004 cycles: 61513933 heartbeat IPC: 1.59139 cumulative IPC: 1.159 (Simulation time: 1 hr 36 min 41 sec) 

Region of Interest Statistics
cpu0_DTLB TOTAL     ACCESS:   13113464  HIT:   13085761  MISS:      27703
cpu0_DTLB LOAD      ACCESS:   11797719  HIT:   11778333  MISS:      19386
cpu0_DTLB RFO       ACCESS:    1315745  HIT:    1307428  MISS:       8317
cpu0_DTLB PREFETCH  ACCESS:          0  HIT:          0  MISS:          0
cpu0_DTLB WRITEBACK ACCESS:          0  HIT:          0  MISS:          0
cpu0_ITLB TOTAL     ACCESS:    1408031  HIT:    1408030  MISS:          1
cpu0_ITLB LOAD      ACCESS:    1408031  HIT:    1408030  MISS:          1
cpu0_ITLB RFO       ACCESS:          0  HIT:          0  MISS:          0
cpu0_ITLB PREFETCH  ACCESS:          0  HIT:          0  MISS:          0
cpu0_ITLB WRITEBACK ACCESS:          0  HIT:          0  MISS:          0
cpu0_L1I TOTAL     ACCESS:     478140  HIT:     476873  MISS:       1267
cpu0_L1I LOAD      ACCESS:     478140  HIT:     476873  MISS:       1267
cpu0_L1I RFO       ACCESS:          0  HIT:          0  MISS:          0
cpu0_L1I PREFETCH  ACCESS:          0  HIT:          0  MISS:          0
cpu0_L1I WRITEBACK ACCESS:          0  HIT:          0  MISS:          0
cpu0_STLB TOTAL     ACCESS:      27704  HIT:      24968  MISS:       2736
cpu0_STLB LOAD      ACCESS:      19387  HIT:      17683  MISS:       1704
cpu0_STLB RFO       ACCESS:       8317  HIT:       7285  MISS:       1032
cpu0_STLB PREFETCH  ACCESS:          0  HIT:          0  MISS:          0
cpu0_STLB WRITEBACK ACCESS:          0  HIT:          0  MISS:          0
cpu0_L1D TOTAL     ACCESS:   11579275  HIT:   10824819  MISS:     754456
cpu0_L1D LOAD      ACCESS:    9827942  HIT:    9227671  MISS:     600271
cpu0_L1D RFO       ACCESS:    1748619  HIT:    1594915  MISS:     153704
cpu0_L1D PREFETCH  ACCESS:          0  HIT:          0  MISS:          0
cpu0_L1D WRITEBACK ACCESS:          0  HIT:          0  MISS:          0
cpu0_L2C TOTAL     ACCESS:    1054549  HIT:     534759  MISS:     519790
cpu0_L2C LOAD      ACCESS:     601387  HIT:     221939  MISS:     379448
cpu0_L2C RFO       ACCESS:     153703  HIT:      14083  MISS:     139620
cpu0_L2C PREFETCH  ACCESS:          0  HIT:          0  MISS:          0
cpu0_L2C WRITEBACK ACCESS:     298978  HIT:     298327  MISS:        651
LLC TOTAL     ACCESS:     789971  HIT:     301192  MISS:     488779
LLC LOAD      ACCESS:     379448  HIT:      37547  MISS:     341901
LLC RFO       ACCESS:     139620  HIT:      10837  MISS:     128783
LLC PREFETCH  ACCESS:          0  HIT:          0  MISS:          0
LLC WRITEBACK ACCESS:     270832  HIT:     252794  MISS:      18038
Heartbeat CPU 0 instructions: 104000002 cycles: 62793465 heartbeat IPC: 1.56307 cumulative IPC: 1.1702 (Simulation time: 1 hr 38 min 32 sec) 

Region of Interest Statistics
cpu0_DTLB TOTAL     ACCESS:   13556811  HIT:   13528924  MISS:      27887
cpu0_DTLB LOAD      ACCESS:   12199734  HIT:   12180167  MISS:      19567
cpu0_DTLB RFO       ACCESS:    1357077  HIT:    1348757  MISS:       8320
cpu0_DTLB PREFETCH  ACCESS:          0  HIT:          0  MISS:          0
cpu0_DTLB WRITEBACK ACCESS:          0  HIT:          0  MISS:          0
cpu0_ITLB TOTAL     ACCESS:    1449934  HIT:    1449933  MISS:          1
cpu0_ITLB LOAD      ACCESS:    1449934  HIT:    1449933  MISS:          1
cpu0_ITLB RFO       ACCESS:          0  HIT:          0  MISS:          0
cpu0_ITLB PREFETCH  ACCESS:          0  HIT:          0  MISS:          0
cpu0_ITLB WRITEBACK ACCESS:          0  HIT:          0  MISS:          0
cpu0_L1I TOTAL     ACCESS:     479445  HIT:     478139  MISS:       1306
cpu0_L1I LOAD      ACCESS:     479445  HIT:     478139  MISS:       1306
cpu0_L1I RFO       ACCESS:          0  HIT:          0  MISS:          0
cpu0_L1I PREFETCH  ACCESS:          0  HIT:          0  MISS:          0
cpu0_L1I WRITEBACK ACCESS:          0  HIT:          0  MISS:          0
cpu0_STLB TOTAL     ACCESS:      27888  HIT:      25126  MISS:       2762
cpu0_STLB LOAD      ACCESS:      19568  HIT:      17839  MISS:       1729
cpu0_STLB RFO       ACCESS:       8320  HIT:       7287  MISS:       1033
cpu0_STLB PREFETCH  ACCESS:          0  HIT:          0  MISS:          0
cpu0_STLB WRITEBACK ACCESS:          0  HIT:          0  MISS:          0
cpu0_L1D TOTAL     ACCESS:   11964236  HIT:   11199266  MISS:     764970
cpu0_L1D LOAD      ACCESS:   10153425  HIT:    9542773  MISS:     610652
cpu0_L1D RFO       ACCESS:    1808072  HIT:    1654238  MISS:     153834
cpu0_L1D PREFETCH  ACCESS:          0  HIT:          0  MISS:          0
cpu0_L1D WRITEBACK ACCESS:          0  HIT:          0  MISS:          0
cpu0_L2C TOTAL     ACCESS:    1068650  HIT:     538188  MISS:     530462
cpu0_L2C LOAD      ACCESS:     611807  HIT:     221951  MISS:     389856
cpu0_L2C RFO       ACCESS:     153833  HIT:      14083  MISS:     139750
cpu0_L2C PREFETCH  ACCESS:          0  HIT:          0  MISS:          0
cpu0_L2C WRITEBACK ACCESS:     302526  HIT:     301744  MISS:        782
LLC TOTAL     ACCESS:     804028  HIT:     304768  MISS:     499260
LLC LOAD      ACCESS:     389856  HIT:      37606  MISS:     352250
LLC RFO       ACCESS:     139750  HIT:      10837  MISS:     128913
LLC PREFETCH  ACCESS:          0  HIT:          0  MISS:          0
LLC WRITEBACK ACCESS:     274348  HIT:     256309  MISS:      18039
Heartbeat CPU 0 instructions: 106000004 cycles: 64118817 heartbeat IPC: 1.50903 cumulative IPC: 1.17966 (Simulation time: 1 hr 40 min 33 sec) 

Region of Interest Statistics
cpu0_DTLB TOTAL     ACCESS:   13992142  HIT:   13964058  MISS:      28084
cpu0_DTLB LOAD      ACCESS:   12602091  HIT:   12582327  MISS:      19764
cpu0_DTLB RFO       ACCESS:    1390051  HIT:    1381731  MISS:       8320
cpu0_DTLB PREFETCH  ACCESS:          0  HIT:          0  MISS:          0
cpu0_DTLB WRITEBACK ACCESS:          0  HIT:          0  MISS:          0
cpu0_ITLB TOTAL     ACCESS:    1489023  HIT:    1489022  MISS:          1
cpu0_ITLB LOAD      ACCESS:    1489023  HIT:    1489022  MISS:          1
cpu0_ITLB RFO       ACCESS:          0  HIT:          0  MISS:          0
cpu0_ITLB PREFETCH  ACCESS:          0  HIT:          0  MISS:          0
cpu0_ITLB WRITEBACK ACCESS:          0  HIT:          0  MISS:          0
cpu0_L1I TOTAL     ACCESS:     480353  HIT:     479047  MISS:       1306
cpu0_L1I LOAD      ACCESS:     480353  HIT:     479047  MISS:       1306
cpu0_L1I RFO       ACCESS:          0  HIT:          0  MISS:          0
cpu0_L1I PREFETCH  ACCESS:          0  HIT:          0  MISS:          0
cpu0_L1I WRITEBACK ACCESS:          0  HIT:          0  MISS:          0
cpu0_STLB TOTAL     ACCESS:      28085  HIT:      25270  MISS:       2815
cpu0_STLB LOAD      ACCESS:      19765  HIT:      17983  MISS:       1782
cpu0_STLB RFO       ACCESS:       8320  HIT:       7287  MISS:       1033
cpu0_STLB PREFETCH  ACCESS:          0  HIT:          0  MISS:          0
cpu0_STLB WRITEBACK ACCESS:          0  HIT:          0  MISS:          0
cpu0_L1D TOTAL     ACCESS:   12430310  HIT:   11653262  MISS:     777048
cpu0_L1D LOAD      ACCESS:   10550342  HIT:    9927614  MISS:     622728
cpu0_L1D RFO       ACCESS:    1877176  HIT:    1723342  MISS:     153834
cpu0_L1D PREFETCH  ACCESS:          0  HIT:          0  MISS:          0
cpu0_L1D WRITEBACK ACCESS:          0  HIT:          0  MISS:          0
cpu0_L2C TOTAL     ACCESS:    1084804  HIT:     542272  MISS:     542532
cpu0_L2C LOAD      ACCESS:     623883  HIT:     221957  MISS:     401926
cpu0_L2C RFO       ACCESS:     153833  HIT:      14083  MISS:     139750
cpu0_L2C PREFETCH  ACCESS:          0  HIT:          0  MISS:          0
cpu0_L2C WRITEBACK ACCESS:     306602  HIT:     305820  MISS:        782
[...]
cpu0_ITLB RFO       ACCESS:          0  HIT:          0  MISS:          0
cpu0_ITLB PREFETCH  ACCESS:          0  HIT:          0  MISS:          0
cpu0_ITLB WRITEBACK ACCESS:          0  HIT:          0  MISS:          0
cpu0_ITLB TRANSLATION ACCESS:          0  HIT:          0  MISS:          0
cpu0_ITLB PREFETCH  REQUESTED:          0  ISSUED:          0  USEFUL:          0  USELESS:          0
cpu0_ITLB AVERAGE MISS LATENCY: 206.259 cycles
cpu0_L1I TOTAL     ACCESS:   81377196  HIT:   81304527  MISS:      72669
cpu0_L1I LOAD      ACCESS:   81377196  HIT:   81304527  MISS:      72669
cpu0_L1I RFO       ACCESS:          0  HIT:          0  MISS:          0
cpu0_L1I PREFETCH  ACCESS:          0  HIT:          0  MISS:          0
cpu0_L1I WRITEBACK ACCESS:          0  HIT:          0  MISS:          0
cpu0_L1I TRANSLATION ACCESS:          0  HIT:          0  MISS:          0
cpu0_L1I PREFETCH  REQUESTED:          0  ISSUED:          0  USEFUL:          0  USELESS:          0
cpu0_L1I AVERAGE MISS LATENCY: 192.998 cycles
cpu0_STLB TOTAL     ACCESS:    1357029  HIT:    1228859  MISS:     128170
cpu0_STLB LOAD      ACCESS:     999192  HIT:     900720  MISS:      98472
cpu0_STLB RFO       ACCESS:     357837  HIT:     328139  MISS:      29698
cpu0_STLB PREFETCH  ACCESS:          0  HIT:          0  MISS:          0
cpu0_STLB WRITEBACK ACCESS:          0  HIT:          0  MISS:          0
cpu0_STLB TRANSLATION ACCESS:          0  HIT:          0  MISS:          0
cpu0_STLB PREFETCH  REQUESTED:          0  ISSUED:          0  USEFUL:          0  USELESS:          0
cpu0_STLB AVERAGE MISS LATENCY: 138.224 cycles
cpu0_L1D TOTAL     ACCESS:  333572802  HIT:  315612239  MISS:   17960563
cpu0_L1D LOAD      ACCESS:  260859000  HIT:  246564163  MISS:   14294837
cpu0_L1D RFO       ACCESS:   72603877  HIT:   68951113  MISS:    3652764
cpu0_L1D PREFETCH  ACCESS:          0  HIT:          0  MISS:          0
cpu0_L1D WRITEBACK ACCESS:          0  HIT:          0  MISS:          0
cpu0_L1D TRANSLATION ACCESS:     109925  HIT:      96963  MISS:      12962
cpu0_L1D PREFETCH  REQUESTED:          0  ISSUED:          0  USEFUL:          0  USELESS:          0
cpu0_L1D AVERAGE MISS LATENCY: 476.416 cycles
cpu0_L2C TOTAL     ACCESS:   24889877  HIT:   11975971  MISS:   12913906
cpu0_L2C LOAD      ACCESS:   14366556  HIT:    4113052  MISS:   10253504
cpu0_L2C RFO       ACCESS:    3652659  HIT:    1000828  MISS:    2651831
cpu0_L2C PREFETCH  ACCESS:          0  HIT:          0  MISS:          0
cpu0_L2C WRITEBACK ACCESS:    6857700  HIT:    6851187  MISS:       6513
cpu0_L2C TRANSLATION ACCESS:      12962  HIT:      10904  MISS:       2058
cpu0_L2C PREFETCH  REQUESTED:          0  ISSUED:          0  USEFUL:          0  USELESS:          0
cpu0_L2C AVERAGE MISS LATENCY: 648.076 cycles
LLC TOTAL     ACCESS:   18210025  HIT:    5858047  MISS:   12351978
LLC LOAD      ACCESS:   10253500  HIT:     406990  MISS:    9846510
LLC RFO       ACCESS:    2651831  HIT:     270130  MISS:    2381701
LLC PREFETCH  ACCESS:          0  HIT:          0  MISS:          0
LLC WRITEBACK ACCESS:    5302636  HIT:    5180217  MISS:     122419
LLC TRANSLATION ACCESS:       2058  HIT:        710  MISS:       1348
LLC PREFETCH  REQUESTED:          0  ISSUED:          0  USEFUL:          0  USELESS:          0
LLC AVERAGE MISS LATENCY: 655.614 cycles
~~~~~~~~~~Reuse Distance Profiler output~~~~~~~~~~
0	33991072	12263392
1	16746400	10710624
2	16934368	12379024
3	14994176	12089328
4	13605232	11341824
5	12905792	10776320
6	11966464	10493024
7	12940272	11628368
8	11052496	9745024
9	11054656	9944720
10	10248784	9307488
11	10780720	9913104
12	6871808	6056576
13	5256304	4604112
14	5190560	4499552
15	4587248	3780064
16	4393312	3891552
17	3840720	3473872
18	5050256	4527744
19	4854896	4308480
20	4396272	3801968
21	4160480	3524592
22	4602688	3993088
23	4543024	3881984
24	4524992	4023792
25	4286800	3854208
26	3357232	3011344
27	3070336	2714512
28	2399104	2154800
29	2394992	2073792
30	1631584	1160256
31	1463648	1127152
32	1567712	1283456
33	1603792	1287760
34	1322912	997984
35	3039872	2522384
36	1259232	1022240
37	1545872	1154816
38	3943424	3450240
39	1545856	1292320
40	1481312	1087872
41	1048272	869904
42	1040928	823136
43	1131120	885760
44	1170000	962368
45	901696	662352
46	977824	670912
47	969872	583456
48	897696	478896
49	980160	620096
50	2293264	1573440
51	664144	441728
52	421488	324096
53	464032	356448
54	515424	418352
55	617632	479920
56	588928	467488
57	1108416	847648
58	747472	551904
59	804752	553504
60	999120	739504
61	726480	541520
62	1089728	814864
63	838208	671296
64	3105264	2283376
66	762384	592144
68	1183936	960704
70	2910928	2188224
72	712976	574384
74	577024	489520
76	493008	415888
78	452080	348480
80	377584	327088
82	312560	266992
84	402624	357808
86	473664	414944
88	422512	358912
90	321552	257008
92	210992	174512
94	302048	232736
96	192464	156624
98	184608	153760
100	173536	149424
102	164096	140336
104	151760	130624
106	127344	106928
108	137984	118480
110	153248	135920
112	146816	131024
114	216896	198960
116	153120	137056
118	138336	119440
120	155520	134368
122	130048	108704
124	110208	94272
126	117312	102896
128	234752	203280
132	218464	192192
136	217664	189296
140	195824	170624
144	179488	163808
148	213104	191296
152	204448	176592
156	176336	158928
160	173040	156224
164	178240	158032
168	142384	128992
172	133488	125168
176	153024	143744
180	135552	130000
184	130464	127088
188	130384	125296
192	130976	125936
196	126400	118608
200	208448	181008
204	181984	162544
208	131744	124288
212	92496	89840
216	92848	90736
220	93024	91360
224	86208	84960
228	92448	90832
232	85392	83264
236	104608	101904
240	105200	101456
244	115296	111072
248	77760	73328
252	72848	65888
256	141824	129856
264	151024	146304
272	171568	167072
280	140800	136240
288	135376	132128
296	123168	119936
304	116720	114048
312	121104	117504
320	91968	89872
328	96544	94368
336	100144	82704
344	84976	77120
352	109328	100096
360	83456	74848
368	102944	90816
376	94960	79840
384	131616	110304
392	89232	80720
400	134416	124032
408	184064	173552
416	461760	456848
424	182960	179216
432	164672	161856
440	117504	116912
448	118848	118224
456	116880	115680
464	116768	114576
472	147040	145744
480	143568	143312
488	146592	146416
496	158208	158000
504	133104	132560
512	157248	151296
528	104992	100912
544	128128	125744
560	129472	121088
576	185056	183680
592	184480	184320
608	59072	58368
624	36672	35648
640	61600	59008
656	37680	37472
672	23296	22928
688	46848	44160
704	43488	33312
720	43712	32320
736	35760	26384
752	34208	24480
768	13600	11136
784	22928	15792
800	48000	33440
816	51216	38384
832	58080	45936
848	59456	50192
864	24496	14304
880	46256	34272
896	53264	41584
912	49392	42640
928	62144	53792
944	30384	22560
960	26448	19104
976	23840	19280
992	20736	16144
1008	53472	45792
1024	56896	47536
1056	44336	35728
1088	61840	43216
1120	75696	58864
1152	45920	41120
1184	49344	41360
1216	35856	30064
1248	35200	30944
1280	45968	42128
1312	147120	139712
1344	146304	131184
1376	108800	52176
1408	88704	45040
1440	63040	49504
1472	91328	65648
1504	402624	367344
1536	148144	129280
1568	69152	63840
1600	36176	32960
1632	31408	27520
1664	49584	44704
1696	50752	46640
1728	24784	20576
1760	25760	21152
1792	34704	29568
1824	40048	25328
1856	52848	27616
1888	64144	47504
1920	72800	63904
1952	60032	54080
1984	35456	30336
2016	31104	22976
2048	42672	33760
2112	52512	40864
2176	52352	37568
2240	48704	34208
2304	67648	39024
2368	111024	67136
2432	187472	167072
2496	112640	97744
2560	67744	53120
2624	74000	60064
2688	76336	57168
2752	78080	60032
2816	124608	81920
2880	119840	75536
2944	234928	213168
3008	169104	153200
3072	70592	59040
3136	69136	57280
3200	54096	41472
3264	50112	36320
3328	66928	48848
3392	80816	63984
3456	80832	70544
3520	67888	60096
3584	44000	35808
3648	30048	24480
3712	30384	25568
3776	27408	22160
3840	30720	24416
3904	25824	22064
3968	31120	24944
4032	29760	23696
4096	46384	35616
4224	41840	33184
4352	41360	29568
4480	44864	35280
4608	42528	32112
4736	39120	28576
4864	44832	34608
4992	41984	32912
5120	33456	22480
5248	30448	19664
5376	27840	18912
5504	30432	21168
5632	29328	19360
5760	29232	20976
5888	40800	32768
6016	31968	23424
6144	62496	56080
6272	32960	25632
6400	31296	23856
6528	32832	24944
6656	34752	26640
6784	88176	78224
6912	166128	152320
7040	70016	55408
7168	108096	92000
7296	94352	74160
7424	38816	25088
7552	24448	13040
7680	25696	15232
7808	23968	14544
7936	24704	15056
8064	54304	44672
8192	54608	37248
8448	59424	42992
8704	39520	23952
8960	55776	39680
9216	55488	41696
9472	46000	31648
9728	35264	20128
9984	40624	22832
10240	37888	20384
10496	41488	23184
10752	39904	20224
11008	38928	21920
11264	37184	21264
11520	36096	19408
11776	37776	20912
12032	45888	29216
12288	41296	31152
12544	47072	35680
12800	44240	34400
13056	44624	33168
13312	42768	28320
13568	43120	29328
13824	54160	42304
14080	52768	39984
14336	37040	24272
14592	146016	132480
14848	27872	16176
15104	29328	16544
15360	22096	15216
15616	30656	25872
15872	45296	38576
16128	123024	118688
16384	64496	56576
16896	121616	112752
17408	263776	255216
17920	32256	24368
18432	91056	82688
18944	121936	111360
19456	20400	13312
19968	19504	11552
20480	32704	26944
20992	19184	12176
21504	18656	11984
22016	20416	13152
22528	20368	13792
23040	9632	6448
23552	11104	7920
24064	63280	60112
24576	412544	410304
25088	8848	6992
25600	6208	4880
26112	58992	57408
26624	258384	253968
27136	83856	79472
27648	9520	4400
28160	7392	2672
28672	7216	3120
29184	35696	30560
29696	7440	2560
30208	14784	10080
30720	13616	9312
31232	9296	4576
31744	9024	3824
32256	8352	4112
32768	24288	15312
33792	27552	24080
34816	35008	31936
35840	37568	34368
36864	24752	21968
37888	12576	10096
38912	11424	8640
39936	17296	13392
40960	10176	6768
41984	10528	6576
43008	8208	4960
44032	8768	5632
45056	7792	4800
46080	8448	5344
47104	8592	5200
48128	7920	4752
49152	8464	4976
50176	8352	5072
51200	30160	27072
52224	221920	218736
53248	7344	4320
54272	7424	4144
55296	7952	4720
56320	7840	4640
57344	8096	5296
58368	8448	5440
59392	8032	4864
60416	8304	5168
61440	7424	4800
62464	7728	4992
63488	8032	5376
64512	7904	5216
65536	16048	11056
67584	16320	13920
69632	22032	19824
71680	25104	23216
73728	24064	22176
75776	25664	23904
77824	26256	23952
79872	24912	22640
81920	25696	22992
83968	27264	23584
86016	26352	22320
88064	24288	22032
90112	25760	23408
92160	34528	32416
94208	35552	32800
96256	40672	38256
98304	41152	37904
100352	23072	19968
102400	21968	19264
104448	22160	19408
106496	21872	19072
108544	23584	20736
110592	23792	20656
112640	23104	20288
114688	24576	21936
116736	40192	37728
118784	39936	37296
120832	28896	26464
122880	24640	22384
124928	31104	28208
126976	21232	19280
129024	19472	17776
131072	37200	33760
135168	34352	32656
139264	41696	40448
143360	39136	37792
147456	34816	33648
151552	31056	29232
155648	39728	38240
159744	30704	29440
163840	29488	27056
167936	25344	22752
172032	23392	20912
176128	18960	17024
180224	17424	15312
184320	19056	16928
188416	20064	17840
192512	20320	17984
196608	21904	19664
200704	19104	16176
204800	17712	14032
208896	19472	15840
212992	22064	16080
217088	26368	18512
221184	22000	14096
225280	24800	16912
229376	23760	15232
233472	27168	18960
237568	27744	19056
241664	27328	17984
245760	28288	18272
249856	24384	14656
253952	26544	16336
258048	23408	14672
262144	49280	29440
270336	45664	29120
278528	42592	28128
286720	38192	24608
294912	37248	22800
303104	34400	23248
311296	38880	23920
319488	45472	24048
327680	50528	23184
335872	45184	25104
344064	42912	23056
352256	35728	22448
360448	27568	19328
368640	21824	17328
376832	23744	19168
385024	26992	22912
393216	27840	22128
401408	26496	20928
409600	26640	20816
417792	115728	110576
425984	73696	67104
434176	37936	30576
442368	32176	26848
450560	38944	27488
458752	37568	27632
466944	35872	25136
475136	32688	24544
483328	37840	27552
491520	36480	25776
499712	29632	23936
507904	33520	24720
516096	34752	24128
524288	70160	49072
540672	70544	47296
557056	50480	46096
573440	46960	43616
589824	47408	44688
606208	38400	35744
622592	42016	37600
638976	38976	35104
655360	42624	36928
671744	41696	35712
688128	40576	34384
704512	36544	31216
720896	46368	35232
737280	53856	38560
753664	47104	36752
770048	51632	43424
786432	51408	43200
802816	72208	68384
819200	84160	80448
835584	83360	80288
851968	74896	72096
868352	65552	62864
884736	63248	61760
901120	71824	69504
917504	78864	76912
933888	124736	123200
950272	133904	132288
966656	156032	154272
983040	66176	64912
999424	67216	65840
1015808	56016	54608
1032192	48512	46432
1048576	118624	110720
1081344	137680	127504
1114112	122592	113744
1146880	99664	91072
1179648	105168	90032
1212416	105808	91200
1245184	99456	88880
1277952	87728	79568
1310720	78960	76096
1343488	67024	65200
1376256	59952	58224
1409024	45280	43280
1441792	46608	43072
1474560	50336	44528
1507328	50416	38736
1540096	58480	39408
1572864	55504	38960
1605632	41584	28688
1638400	42272	28496
1671168	36864	26576
1703936	35568	34208
1736704	26992	26192
1769472	26352	25568
1802240	27968	27104
1835008	31280	30528
1867776	32192	31248
1900544	32304	31328
1933312	29744	28896
1966080	30384	29264
1998848	29328	28496
2031616	29120	28272
2064384	25664	24720
2097152	66704	64016
2162688	74784	70864
2228224	100896	97216
2293760	105856	103504
2359296	95904	94240
2424832	93232	90448
2490368	57104	51552
2555904	28384	24432
2621440	24640	19312
2686976	29200	23072
2752512	28640	24288
2818048	30880	25440
2883584	30576	25072
2949120	28688	22256
3014656	26400	20432
3080192	27632	22048
3145728	29792	22816
3211264	39680	32496
3276800	50496	42352
3342336	46624	28576
3407872	59824	37264
3473408	42864	39456
3538944	43424	40144
3604480	199168	139888
3670016	64496	41056
3735552	72400	67248
3801088	100592	95216
3866624	42752	36880
3932160	27600	23296
3997696	29200	24416
4063232	25152	20576
4128768	26160	19008
4194304	60720	41584
4325376	81072	38800
4456448	73584	50016
4587520	176976	114848
4718592	131840	107344
4849664	77920	52176
4980736	63440	47040
5111808	84272	71488
5242880	83024	67824
5373952	43472	38080
5505024	54672	31936
5636096	38880	35248
5767168	17504	17392
5898240	20736	19360
6029312	216400	210352
6160384	477184	467376
6291456	58096	35936
6422528	46608	37920
6553600	19744	16240
6684672	29824	26144
6815744	28128	24960
6946816	27232	23328
7077888	39440	35728
7208960	37088	33328
7340032	28608	24736
7471104	28864	25424
7602176	28112	24688
7733248	28416	25200
7864320	30720	27152
7995392	16608	13168
8126464	16752	13120
8257536	20256	14912
8388608	74128	65632
8650752	32048	24352
8912896	24496	23552
9175040	22784	22368
9437184	26528	25520
9699328	64880	64608
9961472	40848	40672
10223616	52208	32032
10485760	134432	78064
10747904	14688	14176
11010048	30832	30336
11272192	19760	19440
11534336	26848	26528
11796480	10080	9424
12058624	13232	9088
12320768	4176	3712
12582912	9008	8512
12845056	9824	9728
13107200	10960	10752
13369344	5376	5296
13631488	1392	1216
13893632	2560	2048
14155776	14656	13648
14417920	11056	10416
14680064	18096	17680
14942208	33968	33312
15204352	28416	28064
15466496	5216	5056
15728640	7152	6768
15990784	4912	4896
16252928	4288	4208
16515072	7520	7488
16777216	37488	37136
17301504	33456	33392
17825792	15216	14816
18350080	19120	18416
18874368	36432	27328
19398656	12752	11200
19922944	9744	8032
20447232	15168	7712
20971520	11136	8448
21495808	21968	20752
22020096	9120	7968
22544384	9568	8160
23068672	20448	18272
23592960	42496	31424
24117248	3376	3120
24641536	2320	2304
25165824	4720	3296
25690112	113216	8800
26214400	55728	15696
26738688	13376	3456
27262976	29648	17296
27787264	12400	4960
28311552	9264	3392
28835840	9520	2288
29360128	12032	1888
29884416	23056	1168
30408704	20832	2000
30932992	30176	15984
31457280	25456	9712
31981568	15440	11248
32505856	5632	3216
33030144	17792	2400
33554432	45200	5776
34603008	5824	1568
35651584	3008	1936
36700160	2432	1856
37748736	1504	864
38797312	2704	1440
39845888	33552	1200
40894464	20400	6080
41943040	31104	16112
42991616	19872	6144
44040192	12384	5952
45088768	13024	12480
46137344	3760	2912
47185920	1920	1616
48234496	15360	6608
49283072	5952	5264
50331648	2544	1568
51380224	20768	2192
52428800	45152	17760
53477376	11232	9376
54525952	33472	6784
55574528	21376	12848
56623104	12128	9440
57671680	9600	3312
58720256	19392	10496
59768832	21840	2704
60817408	34656	25152
61865984	17968	7120
62914560	6336	3520
63963136	5504	2976
65011712	46848	26336
66060288	138800	121424
67108864	59280	56784
69206016	19744	19056
71303168	45616	36496
73400320	20592	20048
75497472	9040	8112
77594624	7232	6096
79691776	3248	2560
81788928	4432	3264
83886080	3552	2768
85983232	18288	8592
88080384	6960	6144
90177536	4016	3168
92274688	5584	3840
94371840	14000	10512
96468992	19552	15408
98566144	38016	27808
100663296	688	544
102760448	960	736
104857600	1968	1536
106954752	19360	17760
109051904	15792	2576
111149056	13744	1040
113246208	4720	432
115343360	1920	624
117440512	528	528
119537664	864	640
121634816	336	336
123731968	24480	256
125829120	832	320
127926272	224	224
130023424	464	464
132120576	352	352
134217728	9520	240
138412032	240	240
142606336	8928	0
146800640	0	0
150994944	800	0
155189248	8528	0
159383552	0	0
163577856	45616	25568
167772160	22432	8496
171966464	21072	0
176160768	0	0
180355072	0	0
184549376	0	0
188743680	16912	14176
192937984	70736	0
197132288	272	0
201326592	256	256
205520896	16	16
209715200	0	0
213909504	0	0
218103808	15008	5168
222298112	0	0
226492416	0	0
230686720	0	0
234881024	0	0
239075328	0	0
243269632	0	0
247463936	0	0
251658240	0	0
255852544	0	0
260046848	0	0
264241152	0	0
268435456	0	0
276824064	0	0
285212672	0	0
293601280	0	0
301989888	0	0
310378496	0	0
318767104	16	0
327155712	0	0
335544320	0	0
343932928	0	0
352321536	0	0
360710144	0	0
369098752	0	0
377487360	0	0
385875968	0	0
394264576	0	0
402653184	0	0
411041792	0	0
419430400	0	0
427819008	0	0
436207616	0	0
444596224	0	0
452984832	0	0
461373440	0	0
469762048	0	0
478150656	0	0
486539264	0	0
494927872	0	0
503316480	0	0
511705088	0	0
520093696	0	0
528482304	0	0
536870912	0	0
553648128	0	0
570425344	0	0
587202560	0	0
603979776	0	0
620756992	0	0
637534208	0	0
654311424	0	0
671088640	0	0
687865856	0	0
704643072	0	0
721420288	0	0
738197504	0	0
754974720	0	0
771751936	0	0
788529152	0	0
805306368	0	0
822083584	0	0
838860800	0	0
855638016	0	0
872415232	0	0
889192448	0	0
905969664	0	0
922746880	0	0
939524096	0	0
956301312	0	0
973078528	0	0
989855744	0	0
1006632960	0	0
1023410176	0	0
1040187392	0	0
1056964608	0	0
1073741824	0	0
1107296256	0	0
1140850688	0	0
1174405120	0	0
1207959552	0	0
1241513984	0	0
1275068416	0	0
1308622848	0	0
1342177280	0	0
1375731712	0	0
1409286144	0	0
1442840576	0	0
1476395008	0	0
1509949440	0	0
1543503872	0	0
1577058304	0	0
1610612736	0	0
1644167168	0	0
1677721600	0	0
1711276032	0	0
1744830464	0	0
1778384896	0	0
1811939328	0	0
1845493760	0	0
1879048192	0	0
1912602624	0	0
1946157056	0	0
1979711488	0	0
2013265920	0	0
2046820352	0	0
2080374784	0	0
2113929216	0	0
2147483648	0	0
2214592512	0	0
2281701376	0	0
2348810240	0	0
2415919104	0	0
2483027968	0	0
2550136832	0	0
2617245696	0	0
2684354560	0	0
2751463424	0	0
2818572288	0	0
2885681152	0	0
2952790016	0	0
3019898880	0	0
3087007744	0	0
3154116608	0	0
3221225472	0	0
3288334336	0	0
3355443200	0	0
3422552064	0	0
3489660928	0	0
3556769792	0	0
3623878656	0	0
3690987520	0	0
3758096384	0	0
3825205248	0	0
3892314112	0	0
3959422976	0	0
4026531840	0	0
4093640704	0	0
4160749568	0	0
4227858432	0	0
~~~~~~~~~~Reuse Distance Profiler output end~~~~~~~~~~

Sampler size:65024

DRAM Statistics
 CHANNEL 0
 RQ ROW_BUFFER_HIT:    1121058  ROW_BUFFER_MISS:   11104557
 DBUS AVG_CONGESTED_CYCLE:    3.96012
 WQ ROW_BUFFER_HIT:     376646  ROW_BUFFER_MISS:    4501864  FULL:        207


CPU 0 Branch Prediction Accuracy: 95.1447% MPKI: 3.99242 Average ROB Occupancy at Mispredict: 173.641
Branch type MPKI
BRANCH_DIRECT_JUMP: 0.000264
BRANCH_INDIRECT: 8.93333e-05
BRANCH_CONDITIONAL: 3.98954
BRANCH_DIRECT_CALL: 0.00196467
BRANCH_INDIRECT_CALL: 2.66667e-06
BRANCH_RETURN: 0.000564

