
*** ChampSim Multicore Out-of-Order Simulator ***

Warmup Instructions: 50000000
Simulation Instructions: 1500000000
Number of CPUs: 1
Off-chip DRAM Size: 4 GiB Channels: 1 Width: 64-bit Data Rate: 3200 MT/s

VirtualMemory physical capacity: 8588881920 num_ppages: 2096895
VirtualMemory page size: 4096 log2_page_size: 12

CPU 0 runs /s/traces/champsim_traces/644.nab_s-12459B.champsimtrace.xz
CPU 0 Bimodal branch predictor
Basic BTB sets: 1024 ways: 8 indirect buffer size: 4096 RAS size: 64
Initializing LRU.
Initializing LRU.
Initializing LRU.
Initializing LRU.
Initializing rdLRU.
Initializing LRU.
Heartbeat CPU 0 instructions: 2000001 cycles: 502379 heartbeat IPC: 3.98106 cumulative IPC: 3.98106 (Simulation time: 0 hr 1 min 8 sec) 
Heartbeat CPU 0 instructions: 4000002 cycles: 1004599 heartbeat IPC: 3.98232 cumulative IPC: 3.98169 (Simulation time: 0 hr 2 min 12 sec) 
Heartbeat CPU 0 instructions: 6000001 cycles: 1506828 heartbeat IPC: 3.98225 cumulative IPC: 3.98188 (Simulation time: 0 hr 3 min 16 sec) 
Heartbeat CPU 0 instructions: 8000001 cycles: 2009013 heartbeat IPC: 3.9826 cumulative IPC: 3.98206 (Simulation time: 0 hr 4 min 17 sec) 
Heartbeat CPU 0 instructions: 10000001 cycles: 2511159 heartbeat IPC: 3.98291 cumulative IPC: 3.98223 (Simulation time: 0 hr 5 min 13 sec) 
Heartbeat CPU 0 instructions: 12000003 cycles: 3014439 heartbeat IPC: 3.97393 cumulative IPC: 3.98084 (Simulation time: 0 hr 6 min 9 sec) 
Heartbeat CPU 0 instructions: 14000000 cycles: 3516730 heartbeat IPC: 3.98175 cumulative IPC: 3.98097 (Simulation time: 0 hr 7 min 8 sec) 
Heartbeat CPU 0 instructions: 16000001 cycles: 4019023 heartbeat IPC: 3.98174 cumulative IPC: 3.98107 (Simulation time: 0 hr 8 min 4 sec) 
Heartbeat CPU 0 instructions: 18000001 cycles: 4521321 heartbeat IPC: 3.9817 cumulative IPC: 3.98114 (Simulation time: 0 hr 9 min 3 sec) 
Heartbeat CPU 0 instructions: 20000001 cycles: 5023564 heartbeat IPC: 3.98214 cumulative IPC: 3.98124 (Simulation time: 0 hr 10 min 2 sec) 
Heartbeat CPU 0 instructions: 22000001 cycles: 5525790 heartbeat IPC: 3.98227 cumulative IPC: 3.98133 (Simulation time: 0 hr 10 min 58 sec) 
Heartbeat CPU 0 instructions: 24000002 cycles: 6028030 heartbeat IPC: 3.98216 cumulative IPC: 3.9814 (Simulation time: 0 hr 11 min 59 sec) 
Heartbeat CPU 0 instructions: 26000003 cycles: 6530261 heartbeat IPC: 3.98223 cumulative IPC: 3.98146 (Simulation time: 0 hr 12 min 58 sec) 
Heartbeat CPU 0 instructions: 28000003 cycles: 7032549 heartbeat IPC: 3.98178 cumulative IPC: 3.98149 (Simulation time: 0 hr 13 min 57 sec) 
Heartbeat CPU 0 instructions: 30000001 cycles: 7534875 heartbeat IPC: 3.98147 cumulative IPC: 3.98149 (Simulation time: 0 hr 14 min 55 sec) 
Heartbeat CPU 0 instructions: 32000001 cycles: 8037214 heartbeat IPC: 3.98138 cumulative IPC: 3.98148 (Simulation time: 0 hr 15 min 55 sec) 
Heartbeat CPU 0 instructions: 34000001 cycles: 8539596 heartbeat IPC: 3.98103 cumulative IPC: 3.98145 (Simulation time: 0 hr 16 min 52 sec) 
Heartbeat CPU 0 instructions: 36000002 cycles: 9041918 heartbeat IPC: 3.98151 cumulative IPC: 3.98146 (Simulation time: 0 hr 17 min 51 sec) 
Heartbeat CPU 0 instructions: 38000003 cycles: 9544261 heartbeat IPC: 3.98135 cumulative IPC: 3.98145 (Simulation time: 0 hr 18 min 50 sec) 
Heartbeat CPU 0 instructions: 40000003 cycles: 10046447 heartbeat IPC: 3.98259 cumulative IPC: 3.98151 (Simulation time: 0 hr 19 min 47 sec) 
Heartbeat CPU 0 instructions: 42000001 cycles: 10548545 heartbeat IPC: 3.98328 cumulative IPC: 3.98159 (Simulation time: 0 hr 20 min 44 sec) 
Heartbeat CPU 0 instructions: 44000003 cycles: 11050614 heartbeat IPC: 3.98352 cumulative IPC: 3.98168 (Simulation time: 0 hr 21 min 42 sec) 
Heartbeat CPU 0 instructions: 46000000 cycles: 11553516 heartbeat IPC: 3.97691 cumulative IPC: 3.98147 (Simulation time: 0 hr 22 min 38 sec) 
Heartbeat CPU 0 instructions: 48000003 cycles: 12055369 heartbeat IPC: 3.98524 cumulative IPC: 3.98163 (Simulation time: 0 hr 23 min 35 sec) 
Heartbeat CPU 0 instructions: 50000003 cycles: 12557336 heartbeat IPC: 3.98433 cumulative IPC: 3.98174 (Simulation time: 0 hr 24 min 31 sec) 

Warmup complete CPU 0 instructions: 50000003 cycles: 12557336 (Simulation time: 0 hr 24 min 31 sec) 

Heartbeat CPU 0 instructions: 52000002 cycles: 14072314 heartbeat IPC: 1.32015 cumulative IPC: 1.32015 (Simulation time: 0 hr 25 min 27 sec) 

Region of Interest Statistics
cpu0_DTLB TOTAL     ACCESS:     349951  HIT:     349400  MISS:        551
cpu0_DTLB LOAD      ACCESS:     266603  HIT:     266070  MISS:        533
cpu0_DTLB RFO       ACCESS:      83348  HIT:      83330  MISS:         18
cpu0_DTLB PREFETCH  ACCESS:          0  HIT:          0  MISS:          0
cpu0_DTLB WRITEBACK ACCESS:          0  HIT:          0  MISS:          0
cpu0_ITLB TOTAL     ACCESS:     210204  HIT:     210204  MISS:          0
cpu0_ITLB LOAD      ACCESS:     210204  HIT:     210204  MISS:          0
cpu0_ITLB RFO       ACCESS:          0  HIT:          0  MISS:          0
cpu0_ITLB PREFETCH  ACCESS:          0  HIT:          0  MISS:          0
cpu0_ITLB WRITEBACK ACCESS:          0  HIT:          0  MISS:          0
cpu0_STLB TOTAL     ACCESS:        551  HIT:        547  MISS:          4
cpu0_STLB LOAD      ACCESS:        533  HIT:        533  MISS:          0
cpu0_STLB RFO       ACCESS:         18  HIT:         14  MISS:          4
cpu0_STLB PREFETCH  ACCESS:          0  HIT:          0  MISS:          0
cpu0_STLB WRITEBACK ACCESS:          0  HIT:          0  MISS:          0
cpu0_L1D TOTAL     ACCESS:     468954  HIT:     454717  MISS:      14237
cpu0_L1D LOAD      ACCESS:     261045  HIT:     247582  MISS:      13463
cpu0_L1D RFO       ACCESS:     207905  HIT:     207133  MISS:        772
cpu0_L1D PREFETCH  ACCESS:          0  HIT:          0  MISS:          0
cpu0_L1D WRITEBACK ACCESS:          0  HIT:          0  MISS:          0
cpu0_L2C TOTAL     ACCESS:      15411  HIT:      13966  MISS:       1445
cpu0_L2C LOAD      ACCESS:      13463  HIT:      12365  MISS:       1098
cpu0_L2C RFO       ACCESS:        772  HIT:        425  MISS:        347
cpu0_L2C PREFETCH  ACCESS:          0  HIT:          0  MISS:          0
cpu0_L2C WRITEBACK ACCESS:       1174  HIT:       1174  MISS:          0
LLC TOTAL     ACCESS:       1705  HIT:       1360  MISS:        345
LLC LOAD      ACCESS:       1098  HIT:       1097  MISS:          1
LLC RFO       ACCESS:        347  HIT:          3  MISS:        344
LLC PREFETCH  ACCESS:          0  HIT:          0  MISS:          0
LLC WRITEBACK ACCESS:        260  HIT:        260  MISS:          0
Heartbeat CPU 0 instructions: 54000002 cycles: 15503156 heartbeat IPC: 1.39778 cumulative IPC: 1.35786 (Simulation time: 0 hr 26 min 20 sec) 

Region of Interest Statistics
cpu0_DTLB TOTAL     ACCESS:     684115  HIT:     683143  MISS:        972
cpu0_DTLB LOAD      ACCESS:     520535  HIT:     519600  MISS:        935
cpu0_DTLB RFO       ACCESS:     163580  HIT:     163543  MISS:         37
cpu0_DTLB PREFETCH  ACCESS:          0  HIT:          0  MISS:          0
cpu0_DTLB WRITEBACK ACCESS:          0  HIT:          0  MISS:          0
cpu0_ITLB TOTAL     ACCESS:     418990  HIT:     418990  MISS:          0
cpu0_ITLB LOAD      ACCESS:     418990  HIT:     418990  MISS:          0
cpu0_ITLB RFO       ACCESS:          0  HIT:          0  MISS:          0
cpu0_ITLB PREFETCH  ACCESS:          0  HIT:          0  MISS:          0
cpu0_ITLB WRITEBACK ACCESS:          0  HIT:          0  MISS:          0
cpu0_STLB TOTAL     ACCESS:        972  HIT:        962  MISS:         10
cpu0_STLB LOAD      ACCESS:        935  HIT:        935  MISS:          0
cpu0_STLB RFO       ACCESS:         37  HIT:         27  MISS:         10
cpu0_STLB PREFETCH  ACCESS:          0  HIT:          0  MISS:          0
cpu0_STLB WRITEBACK ACCESS:          0  HIT:          0  MISS:          0
cpu0_L1D TOTAL     ACCESS:     894494  HIT:     869782  MISS:      24712
cpu0_L1D LOAD      ACCESS:     502650  HIT:     479371  MISS:      23279
cpu0_L1D RFO       ACCESS:     391834  HIT:     390406  MISS:       1428
cpu0_L1D PREFETCH  ACCESS:          0  HIT:          0  MISS:          0
cpu0_L1D WRITEBACK ACCESS:          0  HIT:          0  MISS:          0
cpu0_L2C TOTAL     ACCESS:      26700  HIT:      24158  MISS:       2542
cpu0_L2C LOAD      ACCESS:      23279  HIT:      21448  MISS:       1831
cpu0_L2C RFO       ACCESS:       1428  HIT:        717  MISS:        711
cpu0_L2C PREFETCH  ACCESS:          0  HIT:          0  MISS:          0
cpu0_L2C WRITEBACK ACCESS:       1988  HIT:       1988  MISS:          0
LLC TOTAL     ACCESS:       3020  HIT:       2314  MISS:        706
LLC LOAD      ACCESS:       1831  HIT:       1830  MISS:          1
LLC RFO       ACCESS:        711  HIT:          6  MISS:        705
LLC PREFETCH  ACCESS:          0  HIT:          0  MISS:          0
LLC WRITEBACK ACCESS:        478  HIT:        478  MISS:          0
Heartbeat CPU 0 instructions: 56000000 cycles: 17009801 heartbeat IPC: 1.32745 cumulative IPC: 1.34757 (Simulation time: 0 hr 27 min 13 sec) 

Region of Interest Statistics
cpu0_DTLB TOTAL     ACCESS:    1032050  HIT:    1030544  MISS:       1506
cpu0_DTLB LOAD      ACCESS:     786033  HIT:     784579  MISS:       1454
cpu0_DTLB RFO       ACCESS:     246017  HIT:     245965  MISS:         52
cpu0_DTLB PREFETCH  ACCESS:          0  HIT:          0  MISS:          0
cpu0_DTLB WRITEBACK ACCESS:          0  HIT:          0  MISS:          0
cpu0_ITLB TOTAL     ACCESS:     629963  HIT:     629963  MISS:          0
cpu0_ITLB LOAD      ACCESS:     629963  HIT:     629963  MISS:          0
cpu0_ITLB RFO       ACCESS:          0  HIT:          0  MISS:          0
cpu0_ITLB PREFETCH  ACCESS:          0  HIT:          0  MISS:          0
cpu0_ITLB WRITEBACK ACCESS:          0  HIT:          0  MISS:          0
cpu0_STLB TOTAL     ACCESS:       1506  HIT:       1493  MISS:         13
cpu0_STLB LOAD      ACCESS:       1454  HIT:       1454  MISS:          0
cpu0_STLB RFO       ACCESS:         52  HIT:         39  MISS:         13
cpu0_STLB PREFETCH  ACCESS:          0  HIT:          0  MISS:          0
cpu0_STLB WRITEBACK ACCESS:          0  HIT:          0  MISS:          0
cpu0_L1D TOTAL     ACCESS:    1360977  HIT:    1322347  MISS:      38630
cpu0_L1D LOAD      ACCESS:     762029  HIT:     725461  MISS:      36568
cpu0_L1D RFO       ACCESS:     598935  HIT:     596880  MISS:       2055
cpu0_L1D PREFETCH  ACCESS:          0  HIT:          0  MISS:          0
cpu0_L1D WRITEBACK ACCESS:          0  HIT:          0  MISS:          0
cpu0_L2C TOTAL     ACCESS:      41737  HIT:      38186  MISS:       3551
cpu0_L2C LOAD      ACCESS:      36568  HIT:      33961  MISS:       2607
cpu0_L2C RFO       ACCESS:       2055  HIT:       1111  MISS:        944
cpu0_L2C PREFETCH  ACCESS:          0  HIT:          0  MISS:          0
cpu0_L2C WRITEBACK ACCESS:       3107  HIT:       3107  MISS:          0
LLC TOTAL     ACCESS:       4247  HIT:       3309  MISS:        938
LLC LOAD      ACCESS:       2607  HIT:       2606  MISS:          1
LLC RFO       ACCESS:        944  HIT:          7  MISS:        937
LLC PREFETCH  ACCESS:          0  HIT:          0  MISS:          0
LLC WRITEBACK ACCESS:        696  HIT:        696  MISS:          0
Heartbeat CPU 0 instructions: 58000003 cycles: 18487637 heartbeat IPC: 1.35333 cumulative IPC: 1.349 (Simulation time: 0 hr 28 min 6 sec) 

Region of Interest Statistics
cpu0_DTLB TOTAL     ACCESS:    1370041  HIT:    1368099  MISS:       1942
cpu0_DTLB LOAD      ACCESS:    1042893  HIT:    1041022  MISS:       1871
cpu0_DTLB RFO       ACCESS:     327148  HIT:     327077  MISS:         71
cpu0_DTLB PREFETCH  ACCESS:          0  HIT:          0  MISS:          0
cpu0_DTLB WRITEBACK ACCESS:          0  HIT:          0  MISS:          0
cpu0_ITLB TOTAL     ACCESS:     839729  HIT:     839729  MISS:          0
cpu0_ITLB LOAD      ACCESS:     839729  HIT:     839729  MISS:          0
cpu0_ITLB RFO       ACCESS:          0  HIT:          0  MISS:          0
cpu0_ITLB PREFETCH  ACCESS:          0  HIT:          0  MISS:          0
cpu0_ITLB WRITEBACK ACCESS:          0  HIT:          0  MISS:          0
cpu0_STLB TOTAL     ACCESS:       1942  HIT:       1923  MISS:         19
cpu0_STLB LOAD      ACCESS:       1871  HIT:       1871  MISS:          0
cpu0_STLB RFO       ACCESS:         71  HIT:         52  MISS:         19
cpu0_STLB PREFETCH  ACCESS:          0  HIT:          0  MISS:          0
cpu0_STLB WRITEBACK ACCESS:          0  HIT:          0  MISS:          0
cpu0_L1D TOTAL     ACCESS:    1797142  HIT:    1746840  MISS:      50302
cpu0_L1D LOAD      ACCESS:    1006885  HIT:     959303  MISS:      47582
cpu0_L1D RFO       ACCESS:     790238  HIT:     787528  MISS:       2710
cpu0_L1D PREFETCH  ACCESS:          0  HIT:          0  MISS:          0
cpu0_L1D WRITEBACK ACCESS:          0  HIT:          0  MISS:          0
cpu0_L2C TOTAL     ACCESS:      54195  HIT:      48452  MISS:       5743
cpu0_L2C LOAD      ACCESS:      47582  HIT:      43153  MISS:       4429
cpu0_L2C RFO       ACCESS:       2710  HIT:       1402  MISS:       1308
cpu0_L2C PREFETCH  ACCESS:          0  HIT:          0  MISS:          0
cpu0_L2C WRITEBACK ACCESS:       3893  HIT:       3887  MISS:          6
LLC TOTAL     ACCESS:       6983  HIT:       5664  MISS:       1319
LLC LOAD      ACCESS:       4429  HIT:       4405  MISS:         24
LLC RFO       ACCESS:       1308  HIT:         13  MISS:       1295
LLC PREFETCH  ACCESS:          0  HIT:          0  MISS:          0
LLC WRITEBACK ACCESS:       1246  HIT:       1246  MISS:          0
Heartbeat CPU 0 instructions: 60000002 cycles: 20037030 heartbeat IPC: 1.29083 cumulative IPC: 1.33695 (Simulation time: 0 hr 29 min 3 sec) 

Region of Interest Statistics
cpu0_DTLB TOTAL     ACCESS:    1719990  HIT:    1717525  MISS:       2465
cpu0_DTLB LOAD      ACCESS:    1309251  HIT:    1306872  MISS:       2379
cpu0_DTLB RFO       ACCESS:     410739  HIT:     410653  MISS:         86
cpu0_DTLB PREFETCH  ACCESS:          0  HIT:          0  MISS:          0
cpu0_DTLB WRITEBACK ACCESS:          0  HIT:          0  MISS:          0
cpu0_ITLB TOTAL     ACCESS:    1050865  HIT:    1050865  MISS:          0
cpu0_ITLB LOAD      ACCESS:    1050865  HIT:    1050865  MISS:          0
cpu0_ITLB RFO       ACCESS:          0  HIT:          0  MISS:          0
cpu0_ITLB PREFETCH  ACCESS:          0  HIT:          0  MISS:          0
cpu0_ITLB WRITEBACK ACCESS:          0  HIT:          0  MISS:          0
cpu0_STLB TOTAL     ACCESS:       2465  HIT:       2442  MISS:         23
cpu0_STLB LOAD      ACCESS:       2379  HIT:       2379  MISS:          0
cpu0_STLB RFO       ACCESS:         86  HIT:         63  MISS:         23
cpu0_STLB PREFETCH  ACCESS:          0  HIT:          0  MISS:          0
cpu0_STLB WRITEBACK ACCESS:          0  HIT:          0  MISS:          0
cpu0_L1D TOTAL     ACCESS:    2269263  HIT:    2204353  MISS:      64910
cpu0_L1D LOAD      ACCESS:    1269089  HIT:    1207507  MISS:      61582
cpu0_L1D RFO       ACCESS:    1000151  HIT:     996835  MISS:       3316
cpu0_L1D PREFETCH  ACCESS:          0  HIT:          0  MISS:          0
cpu0_L1D WRITEBACK ACCESS:          0  HIT:          0  MISS:          0
cpu0_L2C TOTAL     ACCESS:      69936  HIT:      62072  MISS:       7864
cpu0_L2C LOAD      ACCESS:      61582  HIT:      55293  MISS:       6289
cpu0_L2C RFO       ACCESS:       3316  HIT:       1755  MISS:       1561
cpu0_L2C PREFETCH  ACCESS:          0  HIT:          0  MISS:          0
cpu0_L2C WRITEBACK ACCESS:       5026  HIT:       5012  MISS:         14
LLC TOTAL     ACCESS:       9382  HIT:       7773  MISS:       1609
LLC LOAD      ACCESS:       6289  HIT:       6226  MISS:         63
LLC RFO       ACCESS:       1561  HIT:         15  MISS:       1546
LLC PREFETCH  ACCESS:          0  HIT:          0  MISS:          0
LLC WRITEBACK ACCESS:       1532  HIT:       1532  MISS:          0
Heartbeat CPU 0 instructions: 62000000 cycles: 21531296 heartbeat IPC: 1.33845 cumulative IPC: 1.3372 (Simulation time: 0 hr 29 min 54 sec) 

Region of Interest Statistics
cpu0_DTLB TOTAL     ACCESS:    2062298  HIT:    2059409  MISS:       2889
cpu0_DTLB LOAD      ACCESS:    1569486  HIT:    1566698  MISS:       2788
cpu0_DTLB RFO       ACCESS:     492812  HIT:     492711  MISS:        101
cpu0_DTLB PREFETCH  ACCESS:          0  HIT:          0  MISS:          0
cpu0_DTLB WRITEBACK ACCESS:          0  HIT:          0  MISS:          0
cpu0_ITLB TOTAL     ACCESS:    1261280  HIT:    1261280  MISS:          0
cpu0_ITLB LOAD      ACCESS:    1261280  HIT:    1261280  MISS:          0
cpu0_ITLB RFO       ACCESS:          0  HIT:          0  MISS:          0
cpu0_ITLB PREFETCH  ACCESS:          0  HIT:          0  MISS:          0
cpu0_ITLB WRITEBACK ACCESS:          0  HIT:          0  MISS:          0
cpu0_STLB TOTAL     ACCESS:       2889  HIT:       2862  MISS:         27
cpu0_STLB LOAD      ACCESS:       2788  HIT:       2788  MISS:          0
cpu0_STLB RFO       ACCESS:        101  HIT:         74  MISS:         27
cpu0_STLB PREFETCH  ACCESS:          0  HIT:          0  MISS:          0
cpu0_STLB WRITEBACK ACCESS:          0  HIT:          0  MISS:          0
cpu0_L1D TOTAL     ACCESS:    2718289  HIT:    2640712  MISS:      77577
cpu0_L1D LOAD      ACCESS:    1518904  HIT:    1445237  MISS:      73667
cpu0_L1D RFO       ACCESS:    1199358  HIT:    1195462  MISS:       3896
cpu0_L1D PREFETCH  ACCESS:          0  HIT:          0  MISS:          0
cpu0_L1D WRITEBACK ACCESS:          0  HIT:          0  MISS:          0
cpu0_L2C TOTAL     ACCESS:      83461  HIT:      73685  MISS:       9776
cpu0_L2C LOAD      ACCESS:      73667  HIT:      65722  MISS:       7945
cpu0_L2C RFO       ACCESS:       3896  HIT:       2088  MISS:       1808
cpu0_L2C PREFETCH  ACCESS:          0  HIT:          0  MISS:          0
cpu0_L2C WRITEBACK ACCESS:       5884  HIT:       5862  MISS:         22
LLC TOTAL     ACCESS:      11546  HIT:       9691  MISS:       1855
LLC LOAD      ACCESS:       7945  HIT:       7880  MISS:         65
LLC RFO       ACCESS:       1808  HIT:         18  MISS:       1790
LLC PREFETCH  ACCESS:          0  HIT:          0  MISS:          0
LLC WRITEBACK ACCESS:       1792  HIT:       1792  MISS:          0
Heartbeat CPU 0 instructions: 64000002 cycles: 23048872 heartbeat IPC: 1.31789 cumulative IPC: 1.33441 (Simulation time: 0 hr 30 min 48 sec) 

Region of Interest Statistics
cpu0_DTLB TOTAL     ACCESS:    2407449  HIT:    2404074  MISS:       3375
cpu0_DTLB LOAD      ACCESS:    1832462  HIT:    1829207  MISS:       3255
cpu0_DTLB RFO       ACCESS:     574987  HIT:     574867  MISS:        120
cpu0_DTLB PREFETCH  ACCESS:          0  HIT:          0  MISS:          0
cpu0_DTLB WRITEBACK ACCESS:          0  HIT:          0  MISS:          0
cpu0_ITLB TOTAL     ACCESS:    1470549  HIT:    1470549  MISS:          0
cpu0_ITLB LOAD      ACCESS:    1470549  HIT:    1470549  MISS:          0
cpu0_ITLB RFO       ACCESS:          0  HIT:          0  MISS:          0
cpu0_ITLB PREFETCH  ACCESS:          0  HIT:          0  MISS:          0
cpu0_ITLB WRITEBACK ACCESS:          0  HIT:          0  MISS:          0
cpu0_STLB TOTAL     ACCESS:       3375  HIT:       3343  MISS:         32
cpu0_STLB LOAD      ACCESS:       3255  HIT:       3255  MISS:          0
cpu0_STLB RFO       ACCESS:        120  HIT:         88  MISS:         32
cpu0_STLB PREFETCH  ACCESS:          0  HIT:          0  MISS:          0
cpu0_STLB WRITEBACK ACCESS:          0  HIT:          0  MISS:          0
cpu0_L1D TOTAL     ACCESS:    3169822  HIT:    3079381  MISS:      90441
cpu0_L1D LOAD      ACCESS:    1773675  HIT:    1687821  MISS:      85854
cpu0_L1D RFO       ACCESS:    1396116  HIT:    1391546  MISS:       4570
cpu0_L1D PREFETCH  ACCESS:          0  HIT:          0  MISS:          0
cpu0_L1D WRITEBACK ACCESS:          0  HIT:          0  MISS:          0
cpu0_L2C TOTAL     ACCESS:      97372  HIT:      85048  MISS:      12324
cpu0_L2C LOAD      ACCESS:      85854  HIT:      75729  MISS:      10125
cpu0_L2C RFO       ACCESS:       4570  HIT:       2400  MISS:       2170
cpu0_L2C PREFETCH  ACCESS:          0  HIT:          0  MISS:          0
cpu0_L2C WRITEBACK ACCESS:       6931  HIT:       6903  MISS:         28
LLC TOTAL     ACCESS:      14467  HIT:      12231  MISS:       2236
LLC LOAD      ACCESS:      10125  HIT:      10037  MISS:         88
LLC RFO       ACCESS:       2170  HIT:         22  MISS:       2148
LLC PREFETCH  ACCESS:          0  HIT:          0  MISS:          0
LLC WRITEBACK ACCESS:       2171  HIT:       2171  MISS:          0
Heartbeat CPU 0 instructions: 66000003 cycles: 24582413 heartbeat IPC: 1.30417 cumulative IPC: 1.33055 (Simulation time: 0 hr 31 min 43 sec) 

Region of Interest Statistics
cpu0_DTLB TOTAL     ACCESS:    2754403  HIT:    2750548  MISS:       3855
cpu0_DTLB LOAD      ACCESS:    2096151  HIT:    2092431  MISS:       3720
cpu0_DTLB RFO       ACCESS:     658252  HIT:     658117  MISS:        135
cpu0_DTLB PREFETCH  ACCESS:          0  HIT:          0  MISS:          0
cpu0_DTLB WRITEBACK ACCESS:          0  HIT:          0  MISS:          0
cpu0_ITLB TOTAL     ACCESS:    1680691  HIT:    1680691  MISS:          0
cpu0_ITLB LOAD      ACCESS:    1680691  HIT:    1680691  MISS:          0
cpu0_ITLB RFO       ACCESS:          0  HIT:          0  MISS:          0
cpu0_ITLB PREFETCH  ACCESS:          0  HIT:          0  MISS:          0
cpu0_ITLB WRITEBACK ACCESS:          0  HIT:          0  MISS:          0
cpu0_STLB TOTAL     ACCESS:       3855  HIT:       3819  MISS:         36
cpu0_STLB LOAD      ACCESS:       3720  HIT:       3720  MISS:          0
cpu0_STLB RFO       ACCESS:        135  HIT:         99  MISS:         36
cpu0_STLB PREFETCH  ACCESS:          0  HIT:          0  MISS:          0
cpu0_STLB WRITEBACK ACCESS:          0  HIT:          0  MISS:          0
cpu0_L1D TOTAL     ACCESS:    3635250  HIT:    3531438  MISS:     103812
cpu0_L1D LOAD      ACCESS:    2033171  HIT:    1934543  MISS:      98628
cpu0_L1D RFO       ACCESS:    1602044  HIT:    1596879  MISS:       5165
cpu0_L1D PREFETCH  ACCESS:          0  HIT:          0  MISS:          0
cpu0_L1D WRITEBACK ACCESS:          0  HIT:          0  MISS:          0
cpu0_L2C TOTAL     ACCESS:     111586  HIT:      97291  MISS:      14295
cpu0_L2C LOAD      ACCESS:      98628  HIT:      86776  MISS:      11852
cpu0_L2C RFO       ACCESS:       5165  HIT:       2758  MISS:       2407
cpu0_L2C PREFETCH  ACCESS:          0  HIT:          0  MISS:          0
cpu0_L2C WRITEBACK ACCESS:       7774  HIT:       7739  MISS:         35
LLC TOTAL     ACCESS:      16736  HIT:      14152  MISS:       2584
LLC LOAD      ACCESS:      11852  HIT:      11652  MISS:        200
LLC RFO       ACCESS:       2407  HIT:         23  MISS:       2384
LLC PREFETCH  ACCESS:          0  HIT:          0  MISS:          0
LLC WRITEBACK ACCESS:       2476  HIT:       2476  MISS:          0
Heartbeat CPU 0 instructions: 68000003 cycles: 26089749 heartbeat IPC: 1.32684 cumulative IPC: 1.33014 (Simulation time: 0 hr 32 min 36 sec) 

Region of Interest Statistics
cpu0_DTLB TOTAL     ACCESS:    3100030  HIT:    3095697  MISS:       4333
cpu0_DTLB LOAD      ACCESS:    2357535  HIT:    2353356  MISS:       4179
cpu0_DTLB RFO       ACCESS:     742495  HIT:     742341  MISS:        154
cpu0_DTLB PREFETCH  ACCESS:          0  HIT:          0  MISS:          0
cpu0_DTLB WRITEBACK ACCESS:          0  HIT:          0  MISS:          0
cpu0_ITLB TOTAL     ACCESS:    1889482  HIT:    1889482  MISS:          0
cpu0_ITLB LOAD      ACCESS:    1889482  HIT:    1889482  MISS:          0
cpu0_ITLB RFO       ACCESS:          0  HIT:          0  MISS:          0
cpu0_ITLB PREFETCH  ACCESS:          0  HIT:          0  MISS:          0
cpu0_ITLB WRITEBACK ACCESS:          0  HIT:          0  MISS:          0
cpu0_STLB TOTAL     ACCESS:       4333  HIT:       4292  MISS:         41
cpu0_STLB LOAD      ACCESS:       4179  HIT:       4179  MISS:          0
cpu0_STLB RFO       ACCESS:        154  HIT:        113  MISS:         41
cpu0_STLB PREFETCH  ACCESS:          0  HIT:          0  MISS:          0
cpu0_STLB WRITEBACK ACCESS:          0  HIT:          0  MISS:          0
cpu0_L1D TOTAL     ACCESS:    4084466  HIT:    3967799  MISS:     116667
cpu0_L1D LOAD      ACCESS:    2284401  HIT:    2173572  MISS:     110829
cpu0_L1D RFO       ACCESS:    1800025  HIT:    1794209  MISS:       5816
cpu0_L1D PREFETCH  ACCESS:          0  HIT:          0  MISS:          0
cpu0_L1D WRITEBACK ACCESS:          0  HIT:          0  MISS:          0
cpu0_L2C TOTAL     ACCESS:     125464  HIT:     109504  MISS:      15960
cpu0_L2C LOAD      ACCESS:     110829  HIT:      97677  MISS:      13152
cpu0_L2C RFO       ACCESS:       5816  HIT:       3050  MISS:       2766
cpu0_L2C PREFETCH  ACCESS:          0  HIT:          0  MISS:          0
cpu0_L2C WRITEBACK ACCESS:       8797  HIT:       8756  MISS:         41
LLC TOTAL     ACCESS:      18693  HIT:      15744  MISS:       2949
LLC LOAD      ACCESS:      13152  HIT:      12946  MISS:        206
LLC RFO       ACCESS:       2766  HIT:         23  MISS:       2743
LLC PREFETCH  ACCESS:          0  HIT:          0  MISS:          0
LLC WRITEBACK ACCESS:       2774  HIT:       2774  MISS:          0
Heartbeat CPU 0 instructions: 70000004 cycles: 27635871 heartbeat IPC: 1.29356 cumulative IPC: 1.32639 (Simulation time: 0 hr 33 min 31 sec) 

Region of Interest Statistics
cpu0_DTLB TOTAL     ACCESS:    3452670  HIT:    3447838  MISS:       4832
cpu0_DTLB LOAD      ACCESS:    2625064  HIT:    2620401  MISS:       4663
cpu0_DTLB RFO       ACCESS:     827606  HIT:     827437  MISS:        169
cpu0_DTLB PREFETCH  ACCESS:          0  HIT:          0  MISS:          0
cpu0_DTLB WRITEBACK ACCESS:          0  HIT:          0  MISS:          0
cpu0_ITLB TOTAL     ACCESS:    2100290  HIT:    2100290  MISS:          0
cpu0_ITLB LOAD      ACCESS:    2100290  HIT:    2100290  MISS:          0
cpu0_ITLB RFO       ACCESS:          0  HIT:          0  MISS:          0
cpu0_ITLB PREFETCH  ACCESS:          0  HIT:          0  MISS:          0
cpu0_ITLB WRITEBACK ACCESS:          0  HIT:          0  MISS:          0
cpu0_STLB TOTAL     ACCESS:       4832  HIT:       4787  MISS:         45
cpu0_STLB LOAD      ACCESS:       4663  HIT:       4663  MISS:          0
cpu0_STLB RFO       ACCESS:        169  HIT:        124  MISS:         45
cpu0_STLB PREFETCH  ACCESS:          0  HIT:          0  MISS:          0
cpu0_STLB WRITEBACK ACCESS:          0  HIT:          0  MISS:          0
cpu0_L1D TOTAL     ACCESS:    4561499  HIT:    4430270  MISS:     131229
cpu0_L1D LOAD      ACCESS:    2548540  HIT:    2423755  MISS:     124785
cpu0_L1D RFO       ACCESS:    2012915  HIT:    2006495  MISS:       6420
cpu0_L1D PREFETCH  ACCESS:          0  HIT:          0  MISS:          0
cpu0_L1D WRITEBACK ACCESS:          0  HIT:          0  MISS:          0
cpu0_L2C TOTAL     ACCESS:     140910  HIT:     122965  MISS:      17945
cpu0_L2C LOAD      ACCESS:     124785  HIT:     109899  MISS:      14886
cpu0_L2C RFO       ACCESS:       6420  HIT:       3411  MISS:       3009
cpu0_L2C PREFETCH  ACCESS:          0  HIT:          0  MISS:          0
cpu0_L2C WRITEBACK ACCESS:       9681  HIT:       9632  MISS:         49
LLC TOTAL     ACCESS:      20965  HIT:      17772  MISS:       3193
LLC LOAD      ACCESS:      14886  HIT:      14676  MISS:        210
LLC RFO       ACCESS:       3009  HIT:         26  MISS:       2983
LLC PREFETCH  ACCESS:          0  HIT:          0  MISS:          0
LLC WRITEBACK ACCESS:       3069  HIT:       3069  MISS:          0
Heartbeat CPU 0 instructions: 72000000 cycles: 29100229 heartbeat IPC: 1.36578 cumulative IPC: 1.32988 (Simulation time: 0 hr 34 min 24 sec) 

Region of Interest Statistics
cpu0_DTLB TOTAL     ACCESS:    3792692  HIT:    3787447  MISS:       5245
cpu0_DTLB LOAD      ACCESS:    2881480  HIT:    2876423  MISS:       5057
cpu0_DTLB RFO       ACCESS:     911212  HIT:     911024  MISS:        188
cpu0_DTLB PREFETCH  ACCESS:          0  HIT:          0  MISS:          0
cpu0_DTLB WRITEBACK ACCESS:          0  HIT:          0  MISS:          0
cpu0_ITLB TOTAL     ACCESS:    2308881  HIT:    2308881  MISS:          0
cpu0_ITLB LOAD      ACCESS:    2308881  HIT:    2308881  MISS:          0
cpu0_ITLB RFO       ACCESS:          0  HIT:          0  MISS:          0
cpu0_ITLB PREFETCH  ACCESS:          0  HIT:          0  MISS:          0
cpu0_ITLB WRITEBACK ACCESS:          0  HIT:          0  MISS:          0
cpu0_STLB TOTAL     ACCESS:       5245  HIT:       5194  MISS:         51
cpu0_STLB LOAD      ACCESS:       5057  HIT:       5057  MISS:          0
cpu0_STLB RFO       ACCESS:        188  HIT:        137  MISS:         51
cpu0_STLB PREFETCH  ACCESS:          0  HIT:          0  MISS:          0
cpu0_STLB WRITEBACK ACCESS:          0  HIT:          0  MISS:          0
cpu0_L1D TOTAL     ACCESS:    5001252  HIT:    4858834  MISS:     142418
cpu0_L1D LOAD      ACCESS:    2799360  HIT:    2663996  MISS:     135364
cpu0_L1D RFO       ACCESS:    2201842  HIT:    2194815  MISS:       7027
cpu0_L1D PREFETCH  ACCESS:          0  HIT:          0  MISS:          0
cpu0_L1D WRITEBACK ACCESS:          0  HIT:          0  MISS:          0
cpu0_L2C TOTAL     ACCESS:     152884  HIT:     133499  MISS:      19385
cpu0_L2C LOAD      ACCESS:     135364  HIT:     119392  MISS:      15972
cpu0_L2C RFO       ACCESS:       7027  HIT:       3673  MISS:       3354
cpu0_L2C PREFETCH  ACCESS:          0  HIT:          0  MISS:          0
cpu0_L2C WRITEBACK ACCESS:      10466  HIT:      10408  MISS:         58
LLC TOTAL     ACCESS:      22695  HIT:      19165  MISS:       3530
LLC LOAD      ACCESS:      15972  HIT:      15761  MISS:        211
LLC RFO       ACCESS:       3354  HIT:         35  MISS:       3319
LLC PREFETCH  ACCESS:          0  HIT:          0  MISS:          0
LLC WRITEBACK ACCESS:       3368  HIT:       3368  MISS:          0
Heartbeat CPU 0 instructions: 74000001 cycles: 30647632 heartbeat IPC: 1.29249 cumulative IPC: 1.32668 (Simulation time: 0 hr 35 min 20 sec) 

Region of Interest Statistics
cpu0_DTLB TOTAL     ACCESS:    4144403  HIT:    4138605  MISS:       5798
cpu0_DTLB LOAD      ACCESS:    3148344  HIT:    3142749  MISS:       5595
cpu0_DTLB RFO       ACCESS:     996059  HIT:     995856  MISS:        203
cpu0_DTLB PREFETCH  ACCESS:          0  HIT:          0  MISS:          0
cpu0_DTLB WRITEBACK ACCESS:          0  HIT:          0  MISS:          0
cpu0_ITLB TOTAL     ACCESS:    2519768  HIT:    2519768  MISS:          0
cpu0_ITLB LOAD      ACCESS:    2519768  HIT:    2519768  MISS:          0
cpu0_ITLB RFO       ACCESS:          0  HIT:          0  MISS:          0
cpu0_ITLB PREFETCH  ACCESS:          0  HIT:          0  MISS:          0
cpu0_ITLB WRITEBACK ACCESS:          0  HIT:          0  MISS:          0
cpu0_STLB TOTAL     ACCESS:       5798  HIT:       5744  MISS:         54
cpu0_STLB LOAD      ACCESS:       5595  HIT:       5595  MISS:          0
cpu0_STLB RFO       ACCESS:        203  HIT:        149  MISS:         54
cpu0_STLB PREFETCH  ACCESS:          0  HIT:          0  MISS:          0
cpu0_STLB WRITEBACK ACCESS:          0  HIT:          0  MISS:          0
cpu0_L1D TOTAL     ACCESS:    5475241  HIT:    5317689  MISS:     157552
cpu0_L1D LOAD      ACCESS:    3058241  HIT:    2908365  MISS:     149876
cpu0_L1D RFO       ACCESS:    2416947  HIT:    2409300  MISS:       7647
cpu0_L1D PREFETCH  ACCESS:          0  HIT:          0  MISS:          0
cpu0_L1D WRITEBACK ACCESS:          0  HIT:          0  MISS:          0
cpu0_L2C TOTAL     ACCESS:     169101  HIT:     148095  MISS:      21006
cpu0_L2C LOAD      ACCESS:     149876  HIT:     132544  MISS:      17332
cpu0_L2C RFO       ACCESS:       7647  HIT:       4040  MISS:       3607
cpu0_L2C PREFETCH  ACCESS:          0  HIT:          0  MISS:          0
cpu0_L2C WRITEBACK ACCESS:      11549  HIT:      11483  MISS:         66
LLC TOTAL     ACCESS:      24547  HIT:      20762  MISS:       3785
LLC LOAD      ACCESS:      17332  HIT:      17117  MISS:        215
LLC RFO       ACCESS:       3607  HIT:         37  MISS:       3570
LLC PREFETCH  ACCESS:          0  HIT:          0  MISS:          0
LLC WRITEBACK ACCESS:       3607  HIT:       3607  MISS:          0
Heartbeat CPU 0 instructions: 76000000 cycles: 32123427 heartbeat IPC: 1.3552 cumulative IPC: 1.32883 (Simulation time: 0 hr 36 min 13 sec) 

Region of Interest Statistics
cpu0_DTLB TOTAL     ACCESS:    4486333  HIT:    4480070  MISS:       6263
cpu0_DTLB LOAD      ACCESS:    3407625  HIT:    3401583  MISS:       6042
cpu0_DTLB RFO       ACCESS:    1078708  HIT:    1078487  MISS:        221
cpu0_DTLB PREFETCH  ACCESS:          0  HIT:          0  MISS:          0
cpu0_DTLB WRITEBACK ACCESS:          0  HIT:          0  MISS:          0
cpu0_ITLB TOTAL     ACCESS:    2728961  HIT:    2728961  MISS:          0
cpu0_ITLB LOAD      ACCESS:    2728961  HIT:    2728961  MISS:          0
cpu0_ITLB RFO       ACCESS:          0  HIT:          0  MISS:          0
cpu0_ITLB PREFETCH  ACCESS:          0  HIT:          0  MISS:          0
cpu0_ITLB WRITEBACK ACCESS:          0  HIT:          0  MISS:          0
cpu0_STLB TOTAL     ACCESS:       6263  HIT:       6204  MISS:         59
cpu0_STLB LOAD      ACCESS:       6042  HIT:       6042  MISS:          0
cpu0_STLB RFO       ACCESS:        221  HIT:        162  MISS:         59
cpu0_STLB PREFETCH  ACCESS:          0  HIT:          0  MISS:          0
cpu0_STLB WRITEBACK ACCESS:          0  HIT:          0  MISS:          0
cpu0_L1D TOTAL     ACCESS:    5920055  HIT:    5750502  MISS:     169553
cpu0_L1D LOAD      ACCESS:    3310087  HIT:    3148837  MISS:     161250
cpu0_L1D RFO       ACCESS:    2609910  HIT:    2601639  MISS:       8271
cpu0_L1D PREFETCH  ACCESS:          0  HIT:          0  MISS:          0
cpu0_L1D WRITEBACK ACCESS:          0  HIT:          0  MISS:          0
cpu0_L2C TOTAL     ACCESS:     182026  HIT:     159671  MISS:      22355
cpu0_L2C LOAD      ACCESS:     161250  HIT:     142921  MISS:      18329
cpu0_L2C RFO       ACCESS:       8271  HIT:       4321  MISS:       3950
cpu0_L2C PREFETCH  ACCESS:          0  HIT:          0  MISS:          0
cpu0_L2C WRITEBACK ACCESS:      12473  HIT:      12398  MISS:         75
LLC TOTAL     ACCESS:      26164  HIT:      22042  MISS:       4122
LLC LOAD      ACCESS:      18329  HIT:      18114  MISS:        215
LLC RFO       ACCESS:       3950  HIT:         43  MISS:       3907
LLC PREFETCH  ACCESS:          0  HIT:          0  MISS:          0
LLC WRITEBACK ACCESS:       3884  HIT:       3884  MISS:          0
Heartbeat CPU 0 instructions: 78000000 cycles: 33632719 heartbeat IPC: 1.32512 cumulative IPC: 1.32856 (Simulation time: 0 hr 37 min 6 sec) 

Region of Interest Statistics
cpu0_DTLB TOTAL     ACCESS:    4832677  HIT:    4825899  MISS:       6778
cpu0_DTLB LOAD      ACCESS:    3670759  HIT:    3664218  MISS:       6541
cpu0_DTLB RFO       ACCESS:    1161918  HIT:    1161681  MISS:        237
cpu0_DTLB PREFETCH  ACCESS:          0  HIT:          0  MISS:          0
cpu0_DTLB WRITEBACK ACCESS:          0  HIT:          0  MISS:          0
cpu0_ITLB TOTAL     ACCESS:    2940368  HIT:    2940368  MISS:          0
cpu0_ITLB LOAD      ACCESS:    2940368  HIT:    2940368  MISS:          0
cpu0_ITLB RFO       ACCESS:          0  HIT:          0  MISS:          0
cpu0_ITLB PREFETCH  ACCESS:          0  HIT:          0  MISS:          0
cpu0_ITLB WRITEBACK ACCESS:          0  HIT:          0  MISS:          0
cpu0_STLB TOTAL     ACCESS:       6778  HIT:       6715  MISS:         63
cpu0_STLB LOAD      ACCESS:       6541  HIT:       6541  MISS:          0
cpu0_STLB RFO       ACCESS:        237  HIT:        174  MISS:         63
cpu0_STLB PREFETCH  ACCESS:          0  HIT:          0  MISS:          0
cpu0_STLB WRITEBACK ACCESS:          0  HIT:          0  MISS:          0
cpu0_L1D TOTAL     ACCESS:    6387260  HIT:    6203862  MISS:     183398
cpu0_L1D LOAD      ACCESS:    3568586  HIT:    3394094  MISS:     174492
cpu0_L1D RFO       ACCESS:    2818612  HIT:    2809740  MISS:       8872
cpu0_L1D PREFETCH  ACCESS:          0  HIT:          0  MISS:          0
cpu0_L1D WRITEBACK ACCESS:          0  HIT:          0  MISS:          0
cpu0_L2C TOTAL     ACCESS:     196810  HIT:     173187  MISS:      23623
cpu0_L2C LOAD      ACCESS:     174492  HIT:     155134  MISS:      19358
cpu0_L2C RFO       ACCESS:       8872  HIT:       4685  MISS:       4187
cpu0_L2C PREFETCH  ACCESS:          0  HIT:          0  MISS:          0
cpu0_L2C WRITEBACK ACCESS:      13412  HIT:      13335  MISS:         77
LLC TOTAL     ACCESS:      27732  HIT:      23383  MISS:       4349
LLC LOAD      ACCESS:      19358  HIT:      19142  MISS:        216
LLC RFO       ACCESS:       4187  HIT:         54  MISS:       4133
LLC PREFETCH  ACCESS:          0  HIT:          0  MISS:          0
LLC WRITEBACK ACCESS:       4186  HIT:       4186  MISS:          0
Heartbeat CPU 0 instructions: 80000002 cycles: 35138592 heartbeat IPC: 1.32813 cumulative IPC: 1.32854 (Simulation time: 0 hr 37 min 57 sec) 

Region of Interest Statistics
cpu0_DTLB TOTAL     ACCESS:    5178407  HIT:    5171071  MISS:       7336
cpu0_DTLB LOAD      ACCESS:    3933040  HIT:    3925961  MISS:       7079
cpu0_DTLB RFO       ACCESS:    1245367  HIT:    1245110  MISS:        257
cpu0_DTLB PREFETCH  ACCESS:          0  HIT:          0  MISS:          0
cpu0_DTLB WRITEBACK ACCESS:          0  HIT:          0  MISS:          0
cpu0_ITLB TOTAL     ACCESS:    3150902  HIT:    3150902  MISS:          0
cpu0_ITLB LOAD      ACCESS:    3150902  HIT:    3150902  MISS:          0
cpu0_ITLB RFO       ACCESS:          0  HIT:          0  MISS:          0
cpu0_ITLB PREFETCH  ACCESS:          0  HIT:          0  MISS:          0
cpu0_ITLB WRITEBACK ACCESS:          0  HIT:          0  MISS:          0
cpu0_STLB TOTAL     ACCESS:       7336  HIT:       7268  MISS:         68
cpu0_STLB LOAD      ACCESS:       7079  HIT:       7079  MISS:          0
cpu0_STLB RFO       ACCESS:        257  HIT:        189  MISS:         68
cpu0_STLB PREFETCH  ACCESS:          0  HIT:          0  MISS:          0
cpu0_STLB WRITEBACK ACCESS:          0  HIT:          0  MISS:          0
cpu0_L1D TOTAL     ACCESS:    6845122  HIT:    6648037  MISS:     197085
cpu0_L1D LOAD      ACCESS:    3821163  HIT:    3633678  MISS:     187485
cpu0_L1D RFO       ACCESS:    3023892  HIT:    3014329  MISS:       9563
cpu0_L1D PREFETCH  ACCESS:          0  HIT:          0  MISS:          0
cpu0_L1D WRITEBACK ACCESS:          0  HIT:          0  MISS:          0
cpu0_L2C TOTAL     ACCESS:     211522  HIT:     186949  MISS:      24573
cpu0_L2C LOAD      ACCESS:     187485  HIT:     167503  MISS:      19982
cpu0_L2C RFO       ACCESS:       9563  HIT:       5053  MISS:       4510
cpu0_L2C PREFETCH  ACCESS:          0  HIT:          0  MISS:          0
cpu0_L2C WRITEBACK ACCESS:      14437  HIT:      14357  MISS:         80
LLC TOTAL     ACCESS:      28889  HIT:      24221  MISS:       4668
LLC LOAD      ACCESS:      19982  HIT:      19766  MISS:        216
LLC RFO       ACCESS:       4510  HIT:         58  MISS:       4452
LLC PREFETCH  ACCESS:          0  HIT:          0  MISS:          0
LLC WRITEBACK ACCESS:       4396  HIT:       4396  MISS:          0
Heartbeat CPU 0 instructions: 82000003 cycles: 36605511 heartbeat IPC: 1.3634 cumulative IPC: 1.33066 (Simulation time: 0 hr 38 min 51 sec) 

Region of Interest Statistics
cpu0_DTLB TOTAL     ACCESS:    5518879  HIT:    5511024  MISS:       7855
cpu0_DTLB LOAD      ACCESS:    4191791  HIT:    4184212  MISS:       7579
cpu0_DTLB RFO       ACCESS:    1327088  HIT:    1326812  MISS:        276
cpu0_DTLB PREFETCH  ACCESS:          0  HIT:          0  MISS:          0
cpu0_DTLB WRITEBACK ACCESS:          0  HIT:          0  MISS:          0
cpu0_ITLB TOTAL     ACCESS:    3360960  HIT:    3360960  MISS:          0
cpu0_ITLB LOAD      ACCESS:    3360960  HIT:    3360960  MISS:          0
cpu0_ITLB RFO       ACCESS:          0  HIT:          0  MISS:          0
cpu0_ITLB PREFETCH  ACCESS:          0  HIT:          0  MISS:          0
cpu0_ITLB WRITEBACK ACCESS:          0  HIT:          0  MISS:          0
cpu0_STLB TOTAL     ACCESS:       7855  HIT:       7782  MISS:         73
cpu0_STLB LOAD      ACCESS:       7579  HIT:       7579  MISS:          0
cpu0_STLB RFO       ACCESS:        276  HIT:        203  MISS:         73
cpu0_STLB PREFETCH  ACCESS:          0  HIT:          0  MISS:          0
cpu0_STLB WRITEBACK ACCESS:          0  HIT:          0  MISS:          0
cpu0_L1D TOTAL     ACCESS:    7291476  HIT:    7082086  MISS:     209390
cpu0_L1D LOAD      ACCESS:    4071974  HIT:    3872816  MISS:     199158
cpu0_L1D RFO       ACCESS:    3219430  HIT:    3209238  MISS:      10192
cpu0_L1D PREFETCH  ACCESS:          0  HIT:          0  MISS:          0
cpu0_L1D WRITEBACK ACCESS:          0  HIT:          0  MISS:          0
cpu0_L2C TOTAL     ACCESS:     224816  HIT:     199406  MISS:      25410
cpu0_L2C LOAD      ACCESS:     199158  HIT:     178671  MISS:      20487
cpu0_L2C RFO       ACCESS:      10192  HIT:       5353  MISS:       4839
cpu0_L2C PREFETCH  ACCESS:          0  HIT:          0  MISS:          0
cpu0_L2C WRITEBACK ACCESS:      15426  HIT:      15343  MISS:         83
LLC TOTAL     ACCESS:      30014  HIT:      25020  MISS:       4994
LLC LOAD      ACCESS:      20487  HIT:      20271  MISS:        216
LLC RFO       ACCESS:       4839  HIT:         61  MISS:       4778
LLC PREFETCH  ACCESS:          0  HIT:          0  MISS:          0
LLC WRITEBACK ACCESS:       4687  HIT:       4687  MISS:          0
Heartbeat CPU 0 instructions: 84000001 cycles: 38080393 heartbeat IPC: 1.35604 cumulative IPC: 1.33213 (Simulation time: 0 hr 39 min 44 sec) 

Region of Interest Statistics
cpu0_DTLB TOTAL     ACCESS:    5860012  HIT:    5851669  MISS:       8343
cpu0_DTLB LOAD      ACCESS:    4450042  HIT:    4441994  MISS:       8048
cpu0_DTLB RFO       ACCESS:    1409970  HIT:    1409675  MISS:        295
cpu0_DTLB PREFETCH  ACCESS:          0  HIT:          0  MISS:          0
cpu0_DTLB WRITEBACK ACCESS:          0  HIT:          0  MISS:          0
cpu0_ITLB TOTAL     ACCESS:    3571238  HIT:    3571238  MISS:          0
cpu0_ITLB LOAD      ACCESS:    3571238  HIT:    3571238  MISS:          0
cpu0_ITLB RFO       ACCESS:          0  HIT:          0  MISS:          0
cpu0_ITLB PREFETCH  ACCESS:          0  HIT:          0  MISS:          0
cpu0_ITLB WRITEBACK ACCESS:          0  HIT:          0  MISS:          0
cpu0_STLB TOTAL     ACCESS:       8343  HIT:       8265  MISS:         78
cpu0_STLB LOAD      ACCESS:       8048  HIT:       8048  MISS:          0
cpu0_STLB RFO       ACCESS:        295  HIT:        217  MISS:         78
cpu0_STLB PREFETCH  ACCESS:          0  HIT:          0  MISS:          0
cpu0_STLB WRITEBACK ACCESS:          0  HIT:          0  MISS:          0
cpu0_L1D TOTAL     ACCESS:    7743420  HIT:    7521454  MISS:     221966
cpu0_L1D LOAD      ACCESS:    4324580  HIT:    4113501  MISS:     211079
cpu0_L1D RFO       ACCESS:    3418763  HIT:    3407919  MISS:      10844
cpu0_L1D PREFETCH  ACCESS:          0  HIT:          0  MISS:          0
cpu0_L1D WRITEBACK ACCESS:          0  HIT:          0  MISS:          0
cpu0_L2C TOTAL     ACCESS:     238380  HIT:     212059  MISS:      26321
cpu0_L2C LOAD      ACCESS:     211079  HIT:     190003  MISS:      21076
cpu0_L2C RFO       ACCESS:      10844  HIT:       5687  MISS:       5157
cpu0_L2C PREFETCH  ACCESS:          0  HIT:          0  MISS:          0
cpu0_L2C WRITEBACK ACCESS:      16414  HIT:      16328  MISS:         86
LLC TOTAL     ACCESS:      31167  HIT:      25858  MISS:       5309
LLC LOAD      ACCESS:      21076  HIT:      20858  MISS:        218
LLC RFO       ACCESS:       5157  HIT:         66  MISS:       5091
LLC PREFETCH  ACCESS:          0  HIT:          0  MISS:          0
LLC WRITEBACK ACCESS:       4932  HIT:       4932  MISS:          0
Heartbeat CPU 0 instructions: 86000000 cycles: 39568044 heartbeat IPC: 1.3444 cumulative IPC: 1.3328 (Simulation time: 0 hr 40 min 39 sec) 

Region of Interest Statistics
cpu0_DTLB TOTAL     ACCESS:    6201888  HIT:    6193033  MISS:       8855
cpu0_DTLB LOAD      ACCESS:    4708727  HIT:    4700182  MISS:       8545
cpu0_DTLB RFO       ACCESS:    1493161  HIT:    1492851  MISS:        310
cpu0_DTLB PREFETCH  ACCESS:          0  HIT:          0  MISS:          0
cpu0_DTLB WRITEBACK ACCESS:          0  HIT:          0  MISS:          0
cpu0_ITLB TOTAL     ACCESS:    3782359  HIT:    3782359  MISS:          0
cpu0_ITLB LOAD      ACCESS:    3782359  HIT:    3782359  MISS:          0
cpu0_ITLB RFO       ACCESS:          0  HIT:          0  MISS:          0
cpu0_ITLB PREFETCH  ACCESS:          0  HIT:          0  MISS:          0
cpu0_ITLB WRITEBACK ACCESS:          0  HIT:          0  MISS:          0
cpu0_STLB TOTAL     ACCESS:       8855  HIT:       8774  MISS:         81
cpu0_STLB LOAD      ACCESS:       8545  HIT:       8545  MISS:          0
cpu0_STLB RFO       ACCESS:        310  HIT:        229  MISS:         81
cpu0_STLB PREFETCH  ACCESS:          0  HIT:          0  MISS:          0
cpu0_STLB WRITEBACK ACCESS:          0  HIT:          0  MISS:          0
cpu0_L1D TOTAL     ACCESS:    8197293  HIT:    7962375  MISS:     234918
cpu0_L1D LOAD      ACCESS:    4575162  HIT:    4351675  MISS:     223487
cpu0_L1D RFO       ACCESS:    3622051  HIT:    3610665  MISS:      11386
cpu0_L1D PREFETCH  ACCESS:          0  HIT:          0  MISS:          0
cpu0_L1D WRITEBACK ACCESS:          0  HIT:          0  MISS:          0
cpu0_L2C TOTAL     ACCESS:     252113  HIT:     224925  MISS:      27188
cpu0_L2C LOAD      ACCESS:     223487  HIT:     201757  MISS:      21730
cpu0_L2C RFO       ACCESS:      11386  HIT:       6018  MISS:       5368
cpu0_L2C PREFETCH  ACCESS:          0  HIT:          0  MISS:          0
cpu0_L2C WRITEBACK ACCESS:      17195  HIT:      17107  MISS:         88
LLC TOTAL     ACCESS:      32194  HIT:      26675  MISS:       5519
LLC LOAD      ACCESS:      21730  HIT:      21512  MISS:        218
LLC RFO       ACCESS:       5368  HIT:         67  MISS:       5301
LLC PREFETCH  ACCESS:          0  HIT:          0  MISS:          0
LLC WRITEBACK ACCESS:       5094  HIT:       5094  MISS:          0
Heartbeat CPU 0 instructions: 88000001 cycles: 41067514 heartbeat IPC: 1.33381 cumulative IPC: 1.33286 (Simulation time: 0 hr 41 min 32 sec) 

Region of Interest Statistics
cpu0_DTLB TOTAL     ACCESS:    6547042  HIT:    6537636  MISS:       9406
cpu0_DTLB LOAD      ACCESS:    4971838  HIT:    4962763  MISS:       9075
cpu0_DTLB RFO       ACCESS:    1575204  HIT:    1574873  MISS:        331
cpu0_DTLB PREFETCH  ACCESS:          0  HIT:          0  MISS:          0
cpu0_DTLB WRITEBACK ACCESS:          0  HIT:          0  MISS:          0
cpu0_ITLB TOTAL     ACCESS:    3992847  HIT:    3992847  MISS:          0
cpu0_ITLB LOAD      ACCESS:    3992847  HIT:    3992847  MISS:          0
cpu0_ITLB RFO       ACCESS:          0  HIT:          0  MISS:          0
cpu0_ITLB PREFETCH  ACCESS:          0  HIT:          0  MISS:          0
cpu0_ITLB WRITEBACK ACCESS:          0  HIT:          0  MISS:          0
cpu0_STLB TOTAL     ACCESS:       9406  HIT:       9320  MISS:         86
cpu0_STLB LOAD      ACCESS:       9075  HIT:       9075  MISS:          0
cpu0_STLB RFO       ACCESS:        331  HIT:        245  MISS:         86
cpu0_STLB PREFETCH  ACCESS:          0  HIT:          0  MISS:          0
cpu0_STLB WRITEBACK ACCESS:          0  HIT:          0  MISS:          0
cpu0_L1D TOTAL     ACCESS:    8657692  HIT:    8409295  MISS:     248397
cpu0_L1D LOAD      ACCESS:    4831247  HIT:    4594946  MISS:     236301
cpu0_L1D RFO       ACCESS:    3826360  HIT:    3814312  MISS:      12048
cpu0_L1D PREFETCH  ACCESS:          0  HIT:          0  MISS:          0
cpu0_L1D WRITEBACK ACCESS:          0  HIT:          0  MISS:          0
cpu0_L2C TOTAL     ACCESS:     266575  HIT:     238160  MISS:      28415
cpu0_L2C LOAD      ACCESS:     236301  HIT:     213652  MISS:      22649
cpu0_L2C RFO       ACCESS:      12048  HIT:       6375  MISS:       5673
cpu0_L2C PREFETCH  ACCESS:          0  HIT:          0  MISS:          0
cpu0_L2C WRITEBACK ACCESS:      18178  HIT:      18087  MISS:         91
LLC TOTAL     ACCESS:      33698  HIT:      27876  MISS:       5822
LLC LOAD      ACCESS:      22649  HIT:      22431  MISS:        218
LLC RFO       ACCESS:       5673  HIT:         69  MISS:       5604
LLC PREFETCH  ACCESS:          0  HIT:          0  MISS:          0
LLC WRITEBACK ACCESS:       5374  HIT:       5374  MISS:          0
Heartbeat CPU 0 instructions: 90000000 cycles: 42571166 heartbeat IPC: 1.33009 cumulative IPC: 1.33272 (Simulation time: 0 hr 42 min 30 sec) 

Region of Interest Statistics
cpu0_DTLB TOTAL     ACCESS:    6892518  HIT:    6882563  MISS:       9955
cpu0_DTLB LOAD      ACCESS:    5234355  HIT:    5224752  MISS:       9603
cpu0_DTLB RFO       ACCESS:    1658163  HIT:    1657811  MISS:        352
cpu0_DTLB PREFETCH  ACCESS:          0  HIT:          0  MISS:          0
cpu0_DTLB WRITEBACK ACCESS:          0  HIT:          0  MISS:          0
cpu0_ITLB TOTAL     ACCESS:    4203171  HIT:    4203171  MISS:          0
cpu0_ITLB LOAD      ACCESS:    4203171  HIT:    4203171  MISS:          0
cpu0_ITLB RFO       ACCESS:          0  HIT:          0  MISS:          0
cpu0_ITLB PREFETCH  ACCESS:          0  HIT:          0  MISS:          0
cpu0_ITLB WRITEBACK ACCESS:          0  HIT:          0  MISS:          0
cpu0_STLB TOTAL     ACCESS:       9955  HIT:       9864  MISS:         91
cpu0_STLB LOAD      ACCESS:       9603  HIT:       9603  MISS:          0
cpu0_STLB RFO       ACCESS:        352  HIT:        261  MISS:         91
cpu0_STLB PREFETCH  ACCESS:          0  HIT:          0  MISS:          0
cpu0_STLB WRITEBACK ACCESS:          0  HIT:          0  MISS:          0
cpu0_L1D TOTAL     ACCESS:    9118119  HIT:    8856402  MISS:     261717
cpu0_L1D LOAD      ACCESS:    5087587  HIT:    4838629  MISS:     248958
cpu0_L1D RFO       ACCESS:    4030442  HIT:    4017734  MISS:      12708
cpu0_L1D PREFETCH  ACCESS:          0  HIT:          0  MISS:          0
cpu0_L1D WRITEBACK ACCESS:          0  HIT:          0  MISS:          0
cpu0_L2C TOTAL     ACCESS:     280877  HIT:     251407  MISS:      29470
cpu0_L2C LOAD      ACCESS:     248958  HIT:     225569  MISS:      23389
cpu0_L2C RFO       ACCESS:      12708  HIT:       6721  MISS:       5987
cpu0_L2C PREFETCH  ACCESS:          0  HIT:          0  MISS:          0
cpu0_L2C WRITEBACK ACCESS:      19160  HIT:      19068  MISS:         92
LLC TOTAL     ACCESS:      35046  HIT:      28913  MISS:       6133
LLC LOAD      ACCESS:      23389  HIT:      23170  MISS:        219
LLC RFO       ACCESS:       5987  HIT:         73  MISS:       5914
LLC PREFETCH  ACCESS:          0  HIT:          0  MISS:          0
LLC WRITEBACK ACCESS:       5668  HIT:       5668  MISS:          0
Heartbeat CPU 0 instructions: 92000004 cycles: 44073766 heartbeat IPC: 1.33103 cumulative IPC: 1.33264 (Simulation time: 0 hr 43 min 21 sec) 

Region of Interest Statistics
cpu0_DTLB TOTAL     ACCESS:    7238401  HIT:    7227895  MISS:      10506
cpu0_DTLB LOAD      ACCESS:    5497110  HIT:    5486977  MISS:      10133
cpu0_DTLB RFO       ACCESS:    1741291  HIT:    1740918  MISS:        373
cpu0_DTLB PREFETCH  ACCESS:          0  HIT:          0  MISS:          0
cpu0_DTLB WRITEBACK ACCESS:          0  HIT:          0  MISS:          0
cpu0_ITLB TOTAL     ACCESS:    4413087  HIT:    4413087  MISS:          0
cpu0_ITLB LOAD      ACCESS:    4413087  HIT:    4413087  MISS:          0
cpu0_ITLB RFO       ACCESS:          0  HIT:          0  MISS:          0
cpu0_ITLB PREFETCH  ACCESS:          0  HIT:          0  MISS:          0
cpu0_ITLB WRITEBACK ACCESS:          0  HIT:          0  MISS:          0
cpu0_STLB TOTAL     ACCESS:      10506  HIT:      10411  MISS:         95
cpu0_STLB LOAD      ACCESS:      10133  HIT:      10133  MISS:          0
cpu0_STLB RFO       ACCESS:        373  HIT:        278  MISS:         95
cpu0_STLB PREFETCH  ACCESS:          0  HIT:          0  MISS:          0
cpu0_STLB WRITEBACK ACCESS:          0  HIT:          0  MISS:          0
cpu0_L1D TOTAL     ACCESS:    9575977  HIT:    9300739  MISS:     275238
cpu0_L1D LOAD      ACCESS:    5339750  HIT:    5077908  MISS:     261842
cpu0_L1D RFO       ACCESS:    4236133  HIT:    4222791  MISS:      13342
cpu0_L1D PREFETCH  ACCESS:          0  HIT:          0  MISS:          0
cpu0_L1D WRITEBACK ACCESS:          0  HIT:          0  MISS:          0
cpu0_L2C TOTAL     ACCESS:     295365  HIT:     265010  MISS:      30355
cpu0_L2C LOAD      ACCESS:     261842  HIT:     237860  MISS:      23982
cpu0_L2C RFO       ACCESS:      13342  HIT:       7063  MISS:       6279
cpu0_L2C PREFETCH  ACCESS:          0  HIT:          0  MISS:          0
cpu0_L2C WRITEBACK ACCESS:      20127  HIT:      20035  MISS:         92
LLC TOTAL     ACCESS:      36338  HIT:      29898  MISS:       6440
LLC LOAD      ACCESS:      23982  HIT:      23747  MISS:        235
LLC RFO       ACCESS:       6279  HIT:         74  MISS:       6205
LLC PREFETCH  ACCESS:          0  HIT:          0  MISS:          0
LLC WRITEBACK ACCESS:       6075  HIT:       6075  MISS:          0
Heartbeat CPU 0 instructions: 94000004 cycles: 45586540 heartbeat IPC: 1.32207 cumulative IPC: 1.33215 (Simulation time: 0 hr 44 min 13 sec) 

Region of Interest Statistics
cpu0_DTLB TOTAL     ACCESS:    7584602  HIT:    7573544  MISS:      11058
cpu0_DTLB LOAD      ACCESS:    5761145  HIT:    5750483  MISS:      10662
cpu0_DTLB RFO       ACCESS:    1823457  HIT:    1823061  MISS:        396
cpu0_DTLB PREFETCH  ACCESS:          0  HIT:          0  MISS:          0
cpu0_DTLB WRITEBACK ACCESS:          0  HIT:          0  MISS:          0
cpu0_ITLB TOTAL     ACCESS:    4622915  HIT:    4622915  MISS:          0
cpu0_ITLB LOAD      ACCESS:    4622915  HIT:    4622915  MISS:          0
cpu0_ITLB RFO       ACCESS:          0  HIT:          0  MISS:          0
cpu0_ITLB PREFETCH  ACCESS:          0  HIT:          0  MISS:          0
cpu0_ITLB WRITEBACK ACCESS:          0  HIT:          0  MISS:          0
cpu0_STLB TOTAL     ACCESS:      11058  HIT:      10958  MISS:        100
cpu0_STLB LOAD      ACCESS:      10662  HIT:      10662  MISS:          0
cpu0_STLB RFO       ACCESS:        396  HIT:        296  MISS:        100
cpu0_STLB PREFETCH  ACCESS:          0  HIT:          0  MISS:          0
cpu0_STLB WRITEBACK ACCESS:          0  HIT:          0  MISS:          0
cpu0_L1D TOTAL     ACCESS:   10039359  HIT:    9750402  MISS:     288957
cpu0_L1D LOAD      ACCESS:    5596344  HIT:    5321408  MISS:     274936
cpu0_L1D RFO       ACCESS:    4442916  HIT:    4428952  MISS:      13964
cpu0_L1D PREFETCH  ACCESS:          0  HIT:          0  MISS:          0
cpu0_L1D WRITEBACK ACCESS:          0  HIT:          0  MISS:          0
cpu0_L2C TOTAL     ACCESS:     310043  HIT:     278801  MISS:      31242
cpu0_L2C LOAD      ACCESS:     274936  HIT:     250369  MISS:      24567
cpu0_L2C RFO       ACCESS:      13964  HIT:       7383  MISS:       6581
cpu0_L2C PREFETCH  ACCESS:          0  HIT:          0  MISS:          0
cpu0_L2C WRITEBACK ACCESS:      21086  HIT:      20994  MISS:         92
LLC TOTAL     ACCESS:      37586  HIT:      30807  MISS:       6779
LLC LOAD      ACCESS:      24567  HIT:      24293  MISS:        274
LLC RFO       ACCESS:       6581  HIT:         76  MISS:       6505
LLC PREFETCH  ACCESS:          0  HIT:          0  MISS:          0
LLC WRITEBACK ACCESS:       6436  HIT:       6436  MISS:          0
Heartbeat CPU 0 instructions: 96000003 cycles: 47081965 heartbeat IPC: 1.33741 cumulative IPC: 1.33238 (Simulation time: 0 hr 45 min 4 sec) 

Region of Interest Statistics
cpu0_DTLB TOTAL     ACCESS:    7925164  HIT:    7913563  MISS:      11601
cpu0_DTLB LOAD      ACCESS:    6020659  HIT:    6009477  MISS:      11182
cpu0_DTLB RFO       ACCESS:    1904505  HIT:    1904086  MISS:        419
cpu0_DTLB PREFETCH  ACCESS:          0  HIT:          0  MISS:          0
cpu0_DTLB WRITEBACK ACCESS:          0  HIT:          0  MISS:          0
cpu0_ITLB TOTAL     ACCESS:    4832728  HIT:    4832728  MISS:          0
cpu0_ITLB LOAD      ACCESS:    4832728  HIT:    4832728  MISS:          0
cpu0_ITLB RFO       ACCESS:          0  HIT:          0  MISS:          0
cpu0_ITLB PREFETCH  ACCESS:          0  HIT:          0  MISS:          0
cpu0_ITLB WRITEBACK ACCESS:          0  HIT:          0  MISS:          0
cpu0_STLB TOTAL     ACCESS:      11601  HIT:      11497  MISS:        104
cpu0_STLB LOAD      ACCESS:      11182  HIT:      11182  MISS:          0
cpu0_STLB RFO       ACCESS:        419  HIT:        315  MISS:        104
cpu0_STLB PREFETCH  ACCESS:          0  HIT:          0  MISS:          0
cpu0_STLB WRITEBACK ACCESS:          0  HIT:          0  MISS:          0
cpu0_L1D TOTAL     ACCESS:   10494617  HIT:   10192739  MISS:     301878
cpu0_L1D LOAD      ACCESS:    5849597  HIT:    5562302  MISS:     287295
cpu0_L1D RFO       ACCESS:    4644917  HIT:    4630394  MISS:      14523
cpu0_L1D PREFETCH  ACCESS:          0  HIT:          0  MISS:          0
cpu0_L1D WRITEBACK ACCESS:          0  HIT:          0  MISS:          0
cpu0_L2C TOTAL     ACCESS:     323830  HIT:     292034  MISS:      31796
cpu0_L2C LOAD      ACCESS:     287295  HIT:     262444  MISS:      24851
cpu0_L2C RFO       ACCESS:      14523  HIT:       7672  MISS:       6851
cpu0_L2C PREFETCH  ACCESS:          0  HIT:          0  MISS:          0
cpu0_L2C WRITEBACK ACCESS:      21952  HIT:      21860  MISS:         92
LLC TOTAL     ACCESS:      38362  HIT:      31309  MISS:       7053
LLC LOAD      ACCESS:      24851  HIT:      24573  MISS:        278
LLC RFO       ACCESS:       6851  HIT:         76  MISS:       6775
LLC PREFETCH  ACCESS:          0  HIT:          0  MISS:          0
LLC WRITEBACK ACCESS:       6658  HIT:       6658  MISS:          0
Heartbeat CPU 0 instructions: 98000000 cycles: 48595169 heartbeat IPC: 1.3217 cumulative IPC: 1.33193 (Simulation time: 0 hr 45 min 59 sec) 

Region of Interest Statistics
cpu0_DTLB TOTAL     ACCESS:    8272273  HIT:    8260127  MISS:      12146
cpu0_DTLB LOAD      ACCESS:    6284034  HIT:    6272327  MISS:      11707
cpu0_DTLB RFO       ACCESS:    1988239  HIT:    1987800  MISS:        439
cpu0_DTLB PREFETCH  ACCESS:          0  HIT:          0  MISS:          0
cpu0_DTLB WRITEBACK ACCESS:          0  HIT:          0  MISS:          0
cpu0_ITLB TOTAL     ACCESS:    5042808  HIT:    5042808  MISS:          0
cpu0_ITLB LOAD      ACCESS:    5042808  HIT:    5042808  MISS:          0
cpu0_ITLB RFO       ACCESS:          0  HIT:          0  MISS:          0
cpu0_ITLB PREFETCH  ACCESS:          0  HIT:          0  MISS:          0
cpu0_ITLB WRITEBACK ACCESS:          0  HIT:          0  MISS:          0
cpu0_STLB TOTAL     ACCESS:      12146  HIT:      12037  MISS:        109
cpu0_STLB LOAD      ACCESS:      11707  HIT:      11707  MISS:          0
cpu0_STLB RFO       ACCESS:        439  HIT:        330  MISS:        109
cpu0_STLB PREFETCH  ACCESS:          0  HIT:          0  MISS:          0
cpu0_STLB WRITEBACK ACCESS:          0  HIT:          0  MISS:          0
cpu0_L1D TOTAL     ACCESS:   10957233  HIT:   10641872  MISS:     315361
cpu0_L1D LOAD      ACCESS:    6106716  HIT:    5806559  MISS:     300157
cpu0_L1D RFO       ACCESS:    4850409  HIT:    4835268  MISS:      15141
cpu0_L1D PREFETCH  ACCESS:          0  HIT:          0  MISS:          0
cpu0_L1D WRITEBACK ACCESS:          0  HIT:          0  MISS:          0
cpu0_L2C TOTAL     ACCESS:     338227  HIT:     305580  MISS:      32647
cpu0_L2C LOAD      ACCESS:     300157  HIT:     274749  MISS:      25408
cpu0_L2C RFO       ACCESS:      15141  HIT:       7997  MISS:       7144
cpu0_L2C PREFETCH  ACCESS:          0  HIT:          0  MISS:          0
cpu0_L2C WRITEBACK ACCESS:      22866  HIT:      22773  MISS:         93
LLC TOTAL     ACCESS:      39539  HIT:      32192  MISS:       7347
LLC LOAD      ACCESS:      25408  HIT:      25123  MISS:        285
LLC RFO       ACCESS:       7144  HIT:         82  MISS:       7062
LLC PREFETCH  ACCESS:          0  HIT:          0  MISS:          0
LLC WRITEBACK ACCESS:       6985  HIT:       6985  MISS:          0
Heartbeat CPU 0 instructions: 100000004 cycles: 50112385 heartbeat IPC: 1.31821 cumulative IPC: 1.33138 (Simulation time: 0 hr 46 min 51 sec) 

Region of Interest Statistics
cpu0_DTLB TOTAL     ACCESS:    8620313  HIT:    8607614  MISS:      12699
cpu0_DTLB LOAD      ACCESS:    6547000  HIT:    6534764  MISS:      12236
cpu0_DTLB RFO       ACCESS:    2073313  HIT:    2072850  MISS:        463
cpu0_DTLB PREFETCH  ACCESS:          0  HIT:          0  MISS:          0
cpu0_DTLB WRITEBACK ACCESS:          0  HIT:          0  MISS:          0
cpu0_ITLB TOTAL     ACCESS:    5252307  HIT:    5252307  MISS:          0
cpu0_ITLB LOAD      ACCESS:    5252307  HIT:    5252307  MISS:          0
cpu0_ITLB RFO       ACCESS:          0  HIT:          0  MISS:          0
cpu0_ITLB PREFETCH  ACCESS:          0  HIT:          0  MISS:          0
cpu0_ITLB WRITEBACK ACCESS:          0  HIT:          0  MISS:          0
cpu0_STLB TOTAL     ACCESS:      12699  HIT:      12585  MISS:        114
cpu0_STLB LOAD      ACCESS:      12236  HIT:      12236  MISS:          0
cpu0_STLB RFO       ACCESS:        463  HIT:        349  MISS:        114
cpu0_STLB PREFETCH  ACCESS:          0  HIT:          0  MISS:          0
cpu0_STLB WRITEBACK ACCESS:          0  HIT:          0  MISS:          0
cpu0_L1D TOTAL     ACCESS:   11418167  HIT:   11089593  MISS:     328574
cpu0_L1D LOAD      ACCESS:    6363345  HIT:    6050647  MISS:     312698
cpu0_L1D RFO       ACCESS:    5054709  HIT:    5038900  MISS:      15809
cpu0_L1D PREFETCH  ACCESS:          0  HIT:          0  MISS:          0
cpu0_L1D WRITEBACK ACCESS:          0  HIT:          0  MISS:          0
cpu0_L2C TOTAL     ACCESS:     352328  HIT:     318947  MISS:      33381
cpu0_L2C LOAD      ACCESS:     312698  HIT:     286917  MISS:      25781
cpu0_L2C RFO       ACCESS:      15809  HIT:       8306  MISS:       7503
cpu0_L2C PREFETCH  ACCESS:          0  HIT:          0  MISS:          0
cpu0_L2C WRITEBACK ACCESS:      23754  HIT:      23659  MISS:         95
LLC TOTAL     ACCESS:      40565  HIT:      32813  MISS:       7752
LLC LOAD      ACCESS:      25781  HIT:      25444  MISS:        337
LLC RFO       ACCESS:       7503  HIT:         88  MISS:       7415
LLC PREFETCH  ACCESS:          0  HIT:          0  MISS:          0
LLC WRITEBACK ACCESS:       7279  HIT:       7279  MISS:          0
Heartbeat CPU 0 instructions: 102000001 cycles: 51653511 heartbeat IPC: 1.29775 cumulative IPC: 1.33005 (Simulation time: 0 hr 47 min 43 sec) 

Region of Interest Statistics
cpu0_DTLB TOTAL     ACCESS:    8969414  HIT:    8956125  MISS:      13289
cpu0_DTLB LOAD      ACCESS:    6812268  HIT:    6799463  MISS:      12805
cpu0_DTLB RFO       ACCESS:    2157146  HIT:    2156662  MISS:        484
cpu0_DTLB PREFETCH  ACCESS:          0  HIT:          0  MISS:          0
cpu0_DTLB WRITEBACK ACCESS:          0  HIT:          0  MISS:          0
cpu0_ITLB TOTAL     ACCESS:    5462860  HIT:    5462860  MISS:          0
cpu0_ITLB LOAD      ACCESS:    5462860  HIT:    5462860  MISS:          0
cpu0_ITLB RFO       ACCESS:          0  HIT:          0  MISS:          0
cpu0_ITLB PREFETCH  ACCESS:          0  HIT:          0  MISS:          0
cpu0_ITLB WRITEBACK ACCESS:          0  HIT:          0  MISS:          0
cpu0_STLB TOTAL     ACCESS:      13289  HIT:      13170  MISS:        119
cpu0_STLB LOAD      ACCESS:      12805  HIT:      12805  MISS:          0
cpu0_STLB RFO       ACCESS:        484  HIT:        365  MISS:        119
cpu0_STLB PREFETCH  ACCESS:          0  HIT:          0  MISS:          0
cpu0_STLB WRITEBACK ACCESS:          0  HIT:          0  MISS:          0
cpu0_L1D TOTAL     ACCESS:   11884312  HIT:   11541109  MISS:     343203
cpu0_L1D LOAD      ACCESS:    6619029  HIT:    6292310  MISS:     326719
cpu0_L1D RFO       ACCESS:    5265165  HIT:    5248751  MISS:      16414
cpu0_L1D PREFETCH  ACCESS:          0  HIT:          0  MISS:          0
cpu0_L1D WRITEBACK ACCESS:          0  HIT:          0  MISS:          0
cpu0_L2C TOTAL     ACCESS:     368022  HIT:     333828  MISS:      34194
cpu0_L2C LOAD      ACCESS:     326719  HIT:     300410  MISS:      26309
cpu0_L2C RFO       ACCESS:      16414  HIT:       8630  MISS:       7784
cpu0_L2C PREFETCH  ACCESS:          0  HIT:          0  MISS:          0
cpu0_L2C WRITEBACK ACCESS:      24819  HIT:      24720  MISS:         99
LLC TOTAL     ACCESS:      41709  HIT:      33638  MISS:       8071
LLC LOAD      ACCESS:      26309  HIT:      25933  MISS:        376
LLC RFO       ACCESS:       7784  HIT:         89  MISS:       7695
LLC PREFETCH  ACCESS:          0  HIT:          0  MISS:          0
LLC WRITEBACK ACCESS:       7614  HIT:       7614  MISS:          0
Heartbeat CPU 0 instructions: 104000004 cycles: 53163949 heartbeat IPC: 1.32412 cumulative IPC: 1.32983 (Simulation time: 0 hr 48 min 40 sec) 

Region of Interest Statistics
cpu0_DTLB TOTAL     ACCESS:    9316854  HIT:    9303046  MISS:      13808
cpu0_DTLB LOAD      ACCESS:    7075694  HIT:    7062388  MISS:      13306
cpu0_DTLB RFO       ACCESS:    2241160  HIT:    2240658  MISS:        502
cpu0_DTLB PREFETCH  ACCESS:          0  HIT:          0  MISS:          0
cpu0_DTLB WRITEBACK ACCESS:          0  HIT:          0  MISS:          0
cpu0_ITLB TOTAL     ACCESS:    5673057  HIT:    5673057  MISS:          0
cpu0_ITLB LOAD      ACCESS:    5673057  HIT:    5673057  MISS:          0
cpu0_ITLB RFO       ACCESS:          0  HIT:          0  MISS:          0
cpu0_ITLB PREFETCH  ACCESS:          0  HIT:          0  MISS:          0
cpu0_ITLB WRITEBACK ACCESS:          0  HIT:          0  MISS:          0
cpu0_STLB TOTAL     ACCESS:      13808  HIT:      13685  MISS:        123
cpu0_STLB LOAD      ACCESS:      13306  HIT:      13306  MISS:          0
cpu0_STLB RFO       ACCESS:        502  HIT:        379  MISS:        123
cpu0_STLB PREFETCH  ACCESS:          0  HIT:          0  MISS:          0
cpu0_STLB WRITEBACK ACCESS:          0  HIT:          0  MISS:          0
cpu0_L1D TOTAL     ACCESS:   12347096  HIT:   11990474  MISS:     356622
cpu0_L1D LOAD      ACCESS:    6876430  HIT:    6536901  MISS:     339529
cpu0_L1D RFO       ACCESS:    5470544  HIT:    5453524  MISS:      17020
cpu0_L1D PREFETCH  ACCESS:          0  HIT:          0  MISS:          0
cpu0_L1D WRITEBACK ACCESS:          0  HIT:          0  MISS:          0
cpu0_L2C TOTAL     ACCESS:     382223  HIT:     347260  MISS:      34963
cpu0_L2C LOAD      ACCESS:     339529  HIT:     312747  MISS:      26782
cpu0_L2C RFO       ACCESS:      17020  HIT:       8944  MISS:       8076
cpu0_L2C PREFETCH  ACCESS:          0  HIT:          0  MISS:          0
cpu0_L2C WRITEBACK ACCESS:      25601  HIT:      25498  MISS:        103
LLC TOTAL     ACCESS:      42715  HIT:      34352  MISS:       8363
LLC LOAD      ACCESS:      26782  HIT:      26406  MISS:        376
LLC RFO       ACCESS:       8076  HIT:         89  MISS:       7987
LLC PREFETCH  ACCESS:          0  HIT:          0  MISS:          0
LLC WRITEBACK ACCESS:       7855  HIT:       7855  MISS:          0
Heartbeat CPU 0 instructions: 106000001 cycles: 54702028 heartbeat IPC: 1.30032 cumulative IPC: 1.32876 (Simulation time: 0 hr 49 min 35 sec) 

Region of Interest Statistics
cpu0_DTLB TOTAL     ACCESS:    9664674  HIT:    9650356  MISS:      14318
cpu0_DTLB LOAD      ACCESS:    7338264  HIT:    7324463  MISS:      13801
cpu0_DTLB RFO       ACCESS:    2326410  HIT:    2325893  MISS:        517
cpu0_DTLB PREFETCH  ACCESS:          0  HIT:          0  MISS:          0
cpu0_DTLB WRITEBACK ACCESS:          0  HIT:          0  MISS:          0
cpu0_ITLB TOTAL     ACCESS:    5884174  HIT:    5884174  MISS:          0
cpu0_ITLB LOAD      ACCESS:    5884174  HIT:    5884174  MISS:          0
cpu0_ITLB RFO       ACCESS:          0  HIT:          0  MISS:          0
cpu0_ITLB PREFETCH  ACCESS:          0  HIT:          0  MISS:          0
cpu0_ITLB WRITEBACK ACCESS:          0  HIT:          0  MISS:          0
cpu0_STLB TOTAL     ACCESS:      14318  HIT:      14192  MISS:        126
cpu0_STLB LOAD      ACCESS:      13801  HIT:      13801  MISS:          0
cpu0_STLB RFO       ACCESS:        517  HIT:        391  MISS:        126
cpu0_STLB PREFETCH  ACCESS:          0  HIT:          0  MISS:          0
cpu0_STLB WRITEBACK ACCESS:          0  HIT:          0  MISS:          0
cpu0_L1D TOTAL     ACCESS:   12816450  HIT:   12446018  MISS:     370432
cpu0_L1D LOAD      ACCESS:    7136498  HIT:    6783655  MISS:     352843
cpu0_L1D RFO       ACCESS:    5679827  HIT:    5662313  MISS:      17514
cpu0_L1D PREFETCH  ACCESS:          0  HIT:          0  MISS:          0
cpu0_L1D WRITEBACK ACCESS:          0  HIT:          0  MISS:          0
cpu0_L2C TOTAL     ACCESS:     396892  HIT:     360858  MISS:      36034
cpu0_L2C LOAD      ACCESS:     352843  HIT:     325191  MISS:      27652
cpu0_L2C RFO       ACCESS:      17514  HIT:       9242  MISS:       8272
cpu0_L2C PREFETCH  ACCESS:          0  HIT:          0  MISS:          0
cpu0_L2C WRITEBACK ACCESS:      26460  HIT:      26353  MISS:        107
LLC TOTAL     ACCESS:      44129  HIT:      35541  MISS:       8588
LLC LOAD      ACCESS:      27652  HIT:      27240  MISS:        412
LLC RFO       ACCESS:       8272  HIT:         96  MISS:       8176
LLC PREFETCH  ACCESS:          0  HIT:          0  MISS:          0
LLC WRITEBACK ACCESS:       8202  HIT:       8202  MISS:          0
Heartbeat CPU 0 instructions: 108000000 cycles: 56228838 heartbeat IPC: 1.30992 cumulative IPC: 1.3281 (Simulation time: 0 hr 50 min 31 sec) 

Region of Interest Statistics
cpu0_DTLB TOTAL     ACCESS:   10016694  HIT:   10001768  MISS:      14926
cpu0_DTLB LOAD      ACCESS:    7604883  HIT:    7590499  MISS:      14384
cpu0_DTLB RFO       ACCESS:    2411811  HIT:    2411269  MISS:        542
cpu0_DTLB PREFETCH  ACCESS:          0  HIT:          0  MISS:          0
cpu0_DTLB WRITEBACK ACCESS:          0  HIT:          0  MISS:          0
cpu0_ITLB TOTAL     ACCESS:    6093405  HIT:    6093405  MISS:          0
cpu0_ITLB LOAD      ACCESS:    6093405  HIT:    6093405  MISS:          0
cpu0_ITLB RFO       ACCESS:          0  HIT:          0  MISS:          0
cpu0_ITLB PREFETCH  ACCESS:          0  HIT:          0  MISS:          0
cpu0_ITLB WRITEBACK ACCESS:          0  HIT:          0  MISS:          0
cpu0_STLB TOTAL     ACCESS:      14926  HIT:      14794  MISS:        132
cpu0_STLB LOAD      ACCESS:      14384  HIT:      14384  MISS:          0
cpu0_STLB RFO       ACCESS:        542  HIT:        410  MISS:        132
cpu0_STLB PREFETCH  ACCESS:          0  HIT:          0  MISS:          0
cpu0_STLB WRITEBACK ACCESS:          0  HIT:          0  MISS:          0
cpu0_L1D TOTAL     ACCESS:   13284655  HIT:   12899979  MISS:     384676
cpu0_L1D LOAD      ACCESS:    7394614  HIT:    7028217  MISS:     366397
cpu0_L1D RFO       ACCESS:    5889910  HIT:    5871710  MISS:      18200
cpu0_L1D PREFETCH  ACCESS:          0  HIT:          0  MISS:          0
cpu0_L1D WRITEBACK ACCESS:          0  HIT:          0  MISS:          0
cpu0_L2C TOTAL     ACCESS:     412184  HIT:     375585  MISS:      36599
cpu0_L2C LOAD      ACCESS:     366397  HIT:     338542  MISS:      27855
cpu0_L2C RFO       ACCESS:      18200  HIT:       9569  MISS:       8631
cpu0_L2C PREFETCH  ACCESS:          0  HIT:          0  MISS:          0
cpu0_L2C WRITEBACK ACCESS:      27508  HIT:      27398  MISS:        110
LLC TOTAL     ACCESS:      45006  HIT:      36058  MISS:       8948
LLC LOAD      ACCESS:      27855  HIT:      27442  MISS:        413
LLC RFO       ACCESS:       8631  HIT:         96  MISS:       8535
LLC PREFETCH  ACCESS:          0  HIT:          0  MISS:          0
LLC WRITEBACK ACCESS:       8517  HIT:       8517  MISS:          0
Heartbeat CPU 0 instructions: 110000000 cycles: 57764023 heartbeat IPC: 1.30277 cumulative IPC: 1.32724 (Simulation time: 0 hr 51 min 25 sec) 

Region of Interest Statistics
cpu0_DTLB TOTAL     ACCESS:   10364505  HIT:   10348957  MISS:      15548
cpu0_DTLB LOAD      ACCESS:    7868687  HIT:    7853700  MISS:      14987
cpu0_DTLB RFO       ACCESS:    2495818  HIT:    2495257  MISS:        561
cpu0_DTLB PREFETCH  ACCESS:          0  HIT:          0  MISS:          0
cpu0_DTLB WRITEBACK ACCESS:          0  HIT:          0  MISS:          0
cpu0_ITLB TOTAL     ACCESS:    6303539  HIT:    6303539  MISS:          0
cpu0_ITLB LOAD      ACCESS:    6303539  HIT:    6303539  MISS:          0
cpu0_ITLB RFO       ACCESS:          0  HIT:          0  MISS:          0
cpu0_ITLB PREFETCH  ACCESS:          0  HIT:          0  MISS:          0
cpu0_ITLB WRITEBACK ACCESS:          0  HIT:          0  MISS:          0
cpu0_STLB TOTAL     ACCESS:      15548  HIT:      15412  MISS:        136
cpu0_STLB LOAD      ACCESS:      14987  HIT:      14987  MISS:          0
cpu0_STLB RFO       ACCESS:        561  HIT:        425  MISS:        136
cpu0_STLB PREFETCH  ACCESS:          0  HIT:          0  MISS:          0
cpu0_STLB WRITEBACK ACCESS:          0  HIT:          0  MISS:          0
cpu0_L1D TOTAL     ACCESS:   13750636  HIT:   13352243  MISS:     398393
cpu0_L1D LOAD      ACCESS:    7653191  HIT:    7273664  MISS:     379527
cpu0_L1D RFO       ACCESS:    6097310  HIT:    6078527  MISS:      18783
cpu0_L1D PREFETCH  ACCESS:          0  HIT:          0  MISS:          0
cpu0_L1D WRITEBACK ACCESS:          0  HIT:          0  MISS:          0
cpu0_L2C TOTAL     ACCESS:     426748  HIT:     389694  MISS:      37054
cpu0_L2C LOAD      ACCESS:     379527  HIT:     351513  MISS:      28014
cpu0_L2C RFO       ACCESS:      18783  HIT:       9857  MISS:       8926
cpu0_L2C PREFETCH  ACCESS:          0  HIT:          0  MISS:          0
cpu0_L2C WRITEBACK ACCESS:      28355  HIT:      28244  MISS:        111
LLC TOTAL     ACCESS:      45762  HIT:      36395  MISS:       9367
LLC LOAD      ACCESS:      28014  HIT:      27477  MISS:        537
LLC RFO       ACCESS:       8926  HIT:         96  MISS:       8830
LLC PREFETCH  ACCESS:          0  HIT:          0  MISS:          0
LLC WRITEBACK ACCESS:       8819  HIT:       8819  MISS:          0
Heartbeat CPU 0 instructions: 112000000 cycles: 59296824 heartbeat IPC: 1.3048 cumulative IPC: 1.3265 (Simulation time: 0 hr 52 min 18 sec) 

Region of Interest Statistics
cpu0_DTLB TOTAL     ACCESS:   10712106  HIT:   10695902  MISS:      16204
cpu0_DTLB LOAD      ACCESS:    8133088  HIT:    8117467  MISS:      15621
cpu0_DTLB RFO       ACCESS:    2579018  HIT:    2578435  MISS:        583
cpu0_DTLB PREFETCH  ACCESS:          0  HIT:          0  MISS:          0
cpu0_DTLB WRITEBACK ACCESS:          0  HIT:          0  MISS:          0
cpu0_ITLB TOTAL     ACCESS:    6514488  HIT:    6514488  MISS:          0
cpu0_ITLB LOAD      ACCESS:    6514488  HIT:    6514488  MISS:          0
cpu0_ITLB RFO       ACCESS:          0  HIT:          0  MISS:          0
cpu0_ITLB PREFETCH  ACCESS:          0  HIT:          0  MISS:          0
cpu0_ITLB WRITEBACK ACCESS:          0  HIT:          0  MISS:          0
cpu0_STLB TOTAL     ACCESS:      16204  HIT:      16064  MISS:        140
cpu0_STLB LOAD      ACCESS:      15621  HIT:      15621  MISS:          0
cpu0_STLB RFO       ACCESS:        583  HIT:        443  MISS:        140
cpu0_STLB PREFETCH  ACCESS:          0  HIT:          0  MISS:          0
cpu0_STLB WRITEBACK ACCESS:          0  HIT:          0  MISS:          0
cpu0_L1D TOTAL     ACCESS:   14220415  HIT:   13807503  MISS:     412912
cpu0_L1D LOAD      ACCESS:    7908852  HIT:    7515374  MISS:     393478
cpu0_L1D RFO       ACCESS:    6311425  HIT:    6292077  MISS:      19348
cpu0_L1D PREFETCH  ACCESS:          0  HIT:          0  MISS:          0
cpu0_L1D WRITEBACK ACCESS:          0  HIT:          0  MISS:          0
cpu0_L2C TOTAL     ACCESS:     442164  HIT:     404715  MISS:      37449
cpu0_L2C LOAD      ACCESS:     393478  HIT:     365340  MISS:      28138
cpu0_L2C RFO       ACCESS:      19348  HIT:      10153  MISS:       9195
cpu0_L2C PREFETCH  ACCESS:          0  HIT:          0  MISS:          0
cpu0_L2C WRITEBACK ACCESS:      29252  HIT:      29139  MISS:        113
LLC TOTAL     ACCESS:      46384  HIT:      36747  MISS:       9637
LLC LOAD      ACCESS:      28138  HIT:      27600  MISS:        538
LLC RFO       ACCESS:       9195  HIT:         96  MISS:       9099
LLC PREFETCH  ACCESS:          0  HIT:          0  MISS:          0
LLC WRITEBACK ACCESS:       9048  HIT:       9048  MISS:          0
Heartbeat CPU 0 instructions: 114000000 cycles: 60823239 heartbeat IPC: 1.31026 cumulative IPC: 1.32599 (Simulation time: 0 hr 53 min 12 sec) 

Region of Interest Statistics
cpu0_DTLB TOTAL     ACCESS:   11058127  HIT:   11041313  MISS:      16814
cpu0_DTLB LOAD      ACCESS:    8396199  HIT:    8379987  MISS:      16212
cpu0_DTLB RFO       ACCESS:    2661928  HIT:    2661326  MISS:        602
cpu0_DTLB PREFETCH  ACCESS:          0  HIT:          0  MISS:          0
cpu0_DTLB WRITEBACK ACCESS:          0  HIT:          0  MISS:          0
cpu0_ITLB TOTAL     ACCESS:    6726142  HIT:    6726142  MISS:          0
cpu0_ITLB LOAD      ACCESS:    6726142  HIT:    6726142  MISS:          0
cpu0_ITLB RFO       ACCESS:          0  HIT:          0  MISS:          0
cpu0_ITLB PREFETCH  ACCESS:          0  HIT:          0  MISS:          0
cpu0_ITLB WRITEBACK ACCESS:          0  HIT:          0  MISS:          0
cpu0_STLB TOTAL     ACCESS:      16814  HIT:      16670  MISS:        144
cpu0_STLB LOAD      ACCESS:      16212  HIT:      16212  MISS:          0
cpu0_STLB RFO       ACCESS:        602  HIT:        458  MISS:        144
cpu0_STLB PREFETCH  ACCESS:          0  HIT:          0  MISS:          0
cpu0_STLB WRITEBACK ACCESS:          0  HIT:          0  MISS:          0
cpu0_L1D TOTAL     ACCESS:   14692202  HIT:   14265319  MISS:     426883
cpu0_L1D LOAD      ACCESS:    8169602  HIT:    7762698  MISS:     406904
cpu0_L1D RFO       ACCESS:    6522458  HIT:    6502568  MISS:      19890
cpu0_L1D PREFETCH  ACCESS:          0  HIT:          0  MISS:          0
cpu0_L1D WRITEBACK ACCESS:          0  HIT:          0  MISS:          0
cpu0_L2C TOTAL     ACCESS:     456943  HIT:     419068  MISS:      37875
cpu0_L2C LOAD      ACCESS:     406904  HIT:     378565  MISS:      28339
cpu0_L2C RFO       ACCESS:      19890  HIT:      10470  MISS:       9420
cpu0_L2C PREFETCH  ACCESS:          0  HIT:          0  MISS:          0
cpu0_L2C WRITEBACK ACCESS:      30060  HIT:      29947  MISS:        113
LLC TOTAL     ACCESS:      46985  HIT:      37126  MISS:       9859
LLC LOAD      ACCESS:      28339  HIT:      27800  MISS:        539
LLC RFO       ACCESS:       9420  HIT:        100  MISS:       9320
LLC PREFETCH  ACCESS:          0  HIT:          0  MISS:          0
LLC WRITEBACK ACCESS:       9223  HIT:       9223  MISS:          0
Heartbeat CPU 0 instructions: 116000002 cycles: 62381691 heartbeat IPC: 1.28333 cumulative IPC: 1.32465 (Simulation time: 0 hr 54 min 5 sec) 

Region of Interest Statistics
cpu0_DTLB TOTAL     ACCESS:   11412503  HIT:   11395040  MISS:      17463
cpu0_DTLB LOAD      ACCESS:    8665098  HIT:    8648259  MISS:      16839
cpu0_DTLB RFO       ACCESS:    2747405  HIT:    2746781  MISS:        624
cpu0_DTLB PREFETCH  ACCESS:          0  HIT:          0  MISS:          0
[...]
LLC WRITEBACK ACCESS:     232319  HIT:     231428  MISS:        891
Finished CPU 0 instructions: 1500000000 cycles: 1156217549 cumulative IPC: 1.29733 (Simulation time: 11 hr 33 min 35 sec) 

ChampSim completed all CPUs

Region of Interest Statistics

CPU 0 cumulative IPC: 1.29733 instructions: 1500000000 cycles: 1156217549
cpu0_DTLB TOTAL     ACCESS:  264179393  HIT:  263656146  MISS:     523247
cpu0_DTLB LOAD      ACCESS:  197043692  HIT:  196535181  MISS:     508511
cpu0_DTLB RFO       ACCESS:   67135701  HIT:   67120965  MISS:      14736
cpu0_DTLB PREFETCH  ACCESS:          0  HIT:          0  MISS:          0
cpu0_DTLB WRITEBACK ACCESS:          0  HIT:          0  MISS:          0
cpu0_DTLB TRANSLATION ACCESS:          0  HIT:          0  MISS:          0
cpu0_DTLB PREFETCH  REQUESTED:          0  ISSUED:          0  USEFUL:          0  USELESS:          0
cpu0_DTLB AVERAGE MISS LATENCY: 10.3764 cycles
cpu0_ITLB TOTAL     ACCESS:  157256378  HIT:  157256378  MISS:          0
cpu0_ITLB LOAD      ACCESS:  157256378  HIT:  157256378  MISS:          0
cpu0_ITLB RFO       ACCESS:          0  HIT:          0  MISS:          0
cpu0_ITLB PREFETCH  ACCESS:          0  HIT:          0  MISS:          0
cpu0_ITLB WRITEBACK ACCESS:          0  HIT:          0  MISS:          0
cpu0_ITLB TRANSLATION ACCESS:          0  HIT:          0  MISS:          0
cpu0_ITLB PREFETCH  REQUESTED:          0  ISSUED:          0  USEFUL:          0  USELESS:          0
cpu0_ITLB AVERAGE MISS LATENCY: -nan cycles
cpu0_L1I TOTAL     ACCESS:        358  HIT:        355  MISS:          3
cpu0_L1I LOAD      ACCESS:        358  HIT:        355  MISS:          3
cpu0_L1I RFO       ACCESS:          0  HIT:          0  MISS:          0
cpu0_L1I PREFETCH  ACCESS:          0  HIT:          0  MISS:          0
cpu0_L1I WRITEBACK ACCESS:          0  HIT:          0  MISS:          0
cpu0_L1I TRANSLATION ACCESS:          0  HIT:          0  MISS:          0
cpu0_L1I PREFETCH  REQUESTED:          0  ISSUED:          0  USEFUL:          0  USELESS:          0
cpu0_L1I AVERAGE MISS LATENCY: 194 cycles
cpu0_STLB TOTAL     ACCESS:     523247  HIT:     519865  MISS:       3382
cpu0_STLB LOAD      ACCESS:     508511  HIT:     508364  MISS:        147
cpu0_STLB RFO       ACCESS:      14736  HIT:      11501  MISS:       3235
cpu0_STLB PREFETCH  ACCESS:          0  HIT:          0  MISS:          0
cpu0_STLB WRITEBACK ACCESS:          0  HIT:          0  MISS:          0
cpu0_STLB TRANSLATION ACCESS:          0  HIT:          0  MISS:          0
cpu0_STLB PREFETCH  REQUESTED:          0  ISSUED:          0  USEFUL:          0  USELESS:          0
cpu0_STLB AVERAGE MISS LATENCY: 212.338 cycles
cpu0_L1D TOTAL     ACCESS:  351449967  HIT:  340779072  MISS:   10670895
cpu0_L1D LOAD      ACCESS:  194007251  HIT:  183762712  MISS:   10244539
cpu0_L1D RFO       ACCESS:  157439347  HIT:  157015100  MISS:     424247
cpu0_L1D PREFETCH  ACCESS:          0  HIT:          0  MISS:          0
cpu0_L1D WRITEBACK ACCESS:          0  HIT:          0  MISS:          0
cpu0_L1D TRANSLATION ACCESS:       3369  HIT:       1260  MISS:       2109
cpu0_L1D PREFETCH  REQUESTED:          0  ISSUED:          0  USEFUL:          0  USELESS:          0
cpu0_L1D AVERAGE MISS LATENCY: 17.2938 cycles
cpu0_L2C TOTAL     ACCESS:   11343270  HIT:    9767918  MISS:    1575352
cpu0_L2C LOAD      ACCESS:   10244542  HIT:    8884180  MISS:    1360362
cpu0_L2C RFO       ACCESS:     424245  HIT:     209889  MISS:     214356
cpu0_L2C PREFETCH  ACCESS:          0  HIT:          0  MISS:          0
cpu0_L2C WRITEBACK ACCESS:     672374  HIT:     671863  MISS:        511
cpu0_L2C TRANSLATION ACCESS:       2109  HIT:       1986  MISS:        123
cpu0_L2C PREFETCH  REQUESTED:          0  ISSUED:          0  USEFUL:          0  USELESS:          0
cpu0_L2C AVERAGE MISS LATENCY: 42.5102 cycles
LLC TOTAL     ACCESS:    1807160  HIT:    1591529  MISS:     215631
LLC LOAD      ACCESS:    1360362  HIT:    1352639  MISS:       7723
LLC RFO       ACCESS:     214356  HIT:       7339  MISS:     207017
LLC PREFETCH  ACCESS:          0  HIT:          0  MISS:          0
LLC WRITEBACK ACCESS:     232319  HIT:     231428  MISS:        891
LLC TRANSLATION ACCESS:        123  HIT:        123  MISS:          0
LLC PREFETCH  REQUESTED:          0  ISSUED:          0  USEFUL:          0  USELESS:          0
LLC AVERAGE MISS LATENCY: 157.198 cycles
~~~~~~~~~~Reuse Distance Profiler output~~~~~~~~~~
0	96486944	9992768
1	31254544	17762976
2	33845360	25284576
3	26593632	10626704
4	9949888	7045024
5	10227408	5744384
6	10039424	5803312
7	11450528	5990304
8	8661328	7599296
9	7336400	6874608
10	5349168	4882720
11	4097616	3735584
12	4396144	3863888
13	4233648	3679872
14	3653072	3272432
15	2957712	2705040
16	2351200	2179296
17	2044192	1869536
18	2208848	2057040
19	1661216	1468240
20	2083456	1812080
21	2013680	1729376
22	1946672	1692000
23	1871888	1581392
24	1448496	1153632
25	1330640	1035136
26	1161040	929856
27	1040800	857744
28	909744	741616
29	1062544	881248
30	1168128	969472
31	1098048	921376
32	921760	712592
33	1036144	799984
34	1058512	832976
35	843968	649536
36	763200	595360
37	634272	473808
38	810688	645232
39	767120	624848
40	735136	604336
41	611744	445312
42	578240	359840
43	458800	293936
44	634720	500576
45	626464	520144
46	669936	573168
47	512096	433056
48	373008	308016
49	407904	331504
50	444976	348624
51	581904	500480
52	820704	733712
53	816624	734736
54	609440	535296
55	542976	467072
56	479008	405168
57	533280	457056
58	593184	517792
59	694512	588768
60	625632	517296
61	518160	415552
62	464048	381120
63	459120	380384
64	896096	671120
66	750336	493296
68	724544	503008
70	618816	374064
72	555184	279648
74	490656	233232
76	551504	321984
78	738784	541712
80	812512	637984
82	857648	684976
84	915504	763056
86	886176	746512
88	808832	647584
90	812512	613216
92	802720	606688
94	685024	516416
96	596384	460048
98	481872	351856
100	400832	289552
102	360496	255136
104	354080	247568
106	339456	228016
108	284320	186928
110	310048	200384
112	294592	195808
114	305856	212544
116	279344	187776
118	228896	153120
120	221264	154128
122	227568	176992
124	217728	166656
126	187776	133056
128	330496	200912
132	270672	154800
136	308848	171744
140	312928	163600
144	277248	120448
148	234640	97328
152	240192	105984
156	258720	119760
160	295648	174560
164	278880	177568
168	258384	187296
172	273504	223504
176	285760	241376
180	222752	184320
184	231040	187728
188	214528	175488
192	215536	178208
196	225680	194640
200	279392	248800
204	242000	212352
208	208944	188656
212	178624	161184
216	159264	143792
220	132256	107984
224	122032	97024
228	123456	104128
232	139104	109648
236	165568	136720
240	151936	129968
244	155632	142688
248	140784	124784
252	117456	100208
256	224464	191520
264	203344	161280
272	169392	133744
280	169408	130832
288	178800	136816
296	192832	141856
304	207232	142448
312	216192	158048
320	209024	155024
328	192272	144640
336	186752	141312
344	189264	134096
352	192992	122880
360	209904	136240
368	235360	164336
376	219040	151296
384	161408	130976
392	126320	102400
400	102640	93344
408	103552	95424
416	85824	79248
424	86576	80192
432	80544	74592
440	73280	68064
448	67424	62096
456	66880	62816
464	59136	55120
472	66448	61584
480	85312	79536
488	72576	65936
496	81728	73264
504	102176	85744
512	178000	142960
528	138768	114112
544	132912	106304
560	135328	110224
576	125360	105488
592	114816	95168
608	112736	90960
624	117856	90672
640	115872	87120
656	122896	94640
672	113072	86736
688	110256	87152
704	102960	80096
720	100640	76288
736	119280	80400
752	126064	85024
768	109920	83504
784	98976	84624
800	82624	76496
816	76400	72160
832	54976	50880
848	47232	43984
864	37536	34944
880	39376	36576
896	33664	31088
912	32784	30400
928	33200	30592
944	35808	33024
960	38144	34992
976	70720	65792
992	63056	57328
1008	59296	51024
1024	107120	89264
1056	81776	66272
1088	66656	55808
1120	64320	55184
1152	59968	51856
1184	66928	55264
1216	62176	51712
1248	60912	48992
1280	58560	47744
1312	61712	49872
1344	56416	45280
1376	57344	46496
1408	55824	45248
1440	54144	42768
1472	58288	46416
1504	59360	43824
1536	64736	50336
1568	78976	69664
1600	46272	39744
1632	42992	38912
1664	29632	26160
1696	24416	21376
1728	23360	20432
1760	20064	17440
1792	21312	18496
1824	20832	18032
1856	20496	17200
1888	19936	16832
1920	17968	15184
1952	18640	15840
1984	16784	14416
2016	19984	17504
2048	47728	41104
2112	38592	32448
2176	35744	29376
2240	34512	28928
2304	32416	27408
2368	30832	26128
2432	29008	24464
2496	32240	27056
2560	30544	25088
2624	30064	24192
2688	29040	23584
2752	28608	22704
2816	26976	22288
2880	27904	22656
2944	26832	21520
3008	27488	21424
3072	29680	22592
3136	31376	23808
3200	22640	18496
3264	22480	19008
3328	17728	15616
3392	18272	15600
3456	17040	15040
3520	16480	14272
3584	17024	14544
3648	16496	13872
3712	15008	12160
3776	15536	13328
3840	14592	12304
3904	14432	12304
3968	14208	12368
4032	14000	12240
4096	27616	22208
4224	25472	22208
4352	25248	22048
4480	23200	20512
4608	23056	20432
4736	22496	20048
4864	21376	19216
4992	21056	18832
5120	20688	18736
5248	20496	18160
5376	20192	18512
5504	20416	18400
5632	19504	17520
5760	19200	16928
5888	19216	16592
6016	17456	14608
6144	16928	13920
6272	15440	12832
6400	13408	11728
6528	11120	9616
6656	10480	9216
6784	11456	10160
6912	10528	9072
7040	10736	9632
7168	10640	9472
7296	10640	9488
7424	10528	9520
7552	10576	9568
7680	10016	8800
7808	9744	8752
7936	9776	8736
8064	10000	8880
8192	19056	16832
8448	18448	15856
8704	17200	14816
8960	14544	12544
9216	14848	13104
9472	15056	13296
9728	15024	13552
9984	16048	14336
10240	15760	14224
10496	15376	14032
10752	14128	13040
11008	15648	14208
11264	14080	12640
11520	13696	12576
11776	12944	11680
12032	11264	10288
12288	10960	10048
12544	9456	8272
12800	8704	8080
13056	8768	7840
13312	7744	6752
13568	6896	5968
13824	7392	6544
14080	7216	6368
14336	7280	6368
14592	7216	6224
14848	6976	5728
15104	6672	5664
15360	6112	5328
15616	6880	5920
15872	6704	5760
16128	6480	5360
16384	11520	9760
16896	11584	9744
17408	11584	9552
17920	11760	9744
18432	10752	8944
18944	10464	8576
19456	10768	8816
19968	10736	8880
20480	10496	8608
20992	9952	8160
21504	9648	7920
22016	9168	7664
22528	9696	7776
23040	9264	7376
23552	9232	7168
24064	9184	7232
24576	9312	7296
25088	9456	7360
25600	8880	6784
26112	8688	6864
26624	8256	6432
27136	9168	7168
27648	8336	6240
28160	8816	6608
28672	8960	6864
29184	8688	6560
29696	9168	7152
30208	8560	6448
30720	9312	7584
31232	8672	6720
31744	8384	6256
32256	8688	6496
32768	16752	12704
33792	16592	12128
34816	17712	13264
35840	17712	13392
36864	17152	12800
37888	16448	12272
38912	16560	12240
39936	16112	11440
40960	15360	11584
41984	14832	10960
43008	13712	10048
44032	14160	10128
45056	12208	8256
46080	10992	7616
47104	11008	6912
48128	10448	6560
49152	10048	6464
50176	9216	5616
51200	9856	6160
52224	9808	5264
53248	9312	5232
54272	8992	4880
55296	9200	5120
56320	9232	5072
57344	10160	5472
58368	7856	4176
59392	8832	4976
60416	7824	4000
61440	7552	4000
62464	7792	4032
63488	7984	4240
64512	7200	3744
65536	13904	7648
67584	13872	7280
69632	12224	6448
71680	12416	6272
73728	11968	6368
75776	11024	5808
77824	10864	6208
79872	10512	6256
81920	10064	6352
83968	9776	6416
86016	9728	6768
88064	10384	7632
90112	11264	8688
92160	20160	17168
94208	27984	25440
96256	29312	26864
98304	31584	28976
100352	26096	23584
102400	31200	28768
104448	41152	39376
106496	48560	46736
108544	41344	39600
110592	41264	39488
112640	45792	44272
114688	54624	53280
116736	78848	77728
118784	98336	97456
120832	103696	102608
122880	112656	111856
124928	139504	138944
126976	127888	127200
129024	122576	121920
131072	228144	227152
135168	251120	250240
139264	360704	359744
143360	356448	355584
147456	328528	328080
151552	290592	289952
155648	375264	374640
159744	367040	366400
163840	335600	335088
167936	387840	387296
172032	393408	392848
176128	447360	447056
180224	452768	452144
184320	380160	379680
188416	366688	366176
192512	386624	386352
196608	333568	333200
200704	330976	330704
204800	359968	359728
208896	345648	345232
212992	349744	349472
217088	320880	320576
221184	279680	279312
225280	179472	179328
229376	162928	162704
233472	134288	134160
237568	55488	55392
241664	32400	32368
245760	12624	12528
249856	2016	1888
253952	1088	1056
258048	2480	2448
262144	3216	3072
270336	3072	2960
278528	4768	4656
286720	3008	2928
294912	4016	3856
303104	3824	3744
311296	5392	5216
319488	5008	4928
327680	4784	4736
335872	4752	4640
344064	6272	6208
352256	6352	6304
360448	4928	4880
368640	4400	4352
376832	4672	4656
385024	5936	5904
393216	4800	4768
401408	3280	3248
409600	4352	4336
417792	4016	3984
425984	4720	4688
434176	4928	4896
442368	4272	4272
450560	3440	3440
458752	2048	2032
466944	2480	2464
475136	2624	2624
483328	1600	1568
491520	1472	1424
499712	1552	1472
507904	1344	1312
516096	1152	1136
524288	3808	3728
540672	3760	3664
557056	2736	2688
573440	4192	4064
589824	2704	2656
606208	3888	3808
622592	3024	3008
638976	2432	2416
655360	4096	4048
671744	1728	1696
688128	3456	3376
704512	1840	1744
720896	2160	2144
737280	2400	2384
753664	1408	1280
770048	2288	2224
786432	1552	1552
802816	2432	2400
819200	2096	2016
835584	2064	2064
851968	2816	2768
868352	2496	2480
884736	1808	1728
901120	1328	1328
917504	1344	1312
933888	1328	1248
950272	592	576
966656	1504	1504
983040	1408	1408
999424	864	864
1015808	1904	1872
1032192	1664	1648
1048576	3168	3104
1081344	1888	1888
1114112	2112	2096
1146880	1632	1568
1179648	1888	1840
1212416	1616	1600
1245184	1808	1744
1277952	1264	1232
1310720	2160	2080
1343488	1728	1712
1376256	1232	1216
1409024	1680	1648
1441792	1728	1680
1474560	1632	1616
1507328	784	752
1540096	2000	2000
1572864	1504	1488
1605632	704	672
1638400	992	992
1671168	1200	1168
1703936	400	352
1736704	1552	1488
1769472	1952	1952
1802240	1616	1616
1835008	1152	1152
1867776	1184	1136
1900544	816	800
1933312	704	704
1966080	752	752
1998848	496	480
2031616	544	496
2064384	1232	1200
2097152	1104	1056
2162688	592	560
2228224	1216	1168
2293760	1936	1920
2359296	1408	1360
2424832	1664	1664
2490368	1456	1376
2555904	944	928
2621440	416	416
2686976	880	880
2752512	656	656
2818048	1440	1424
2883584	1616	1584
2949120	1536	1536
3014656	1600	1568
3080192	1088	1088
3145728	464	464
3211264	736	736
3276800	448	448
3342336	256	256
3407872	1104	1056
3473408	736	736
3538944	560	528
3604480	624	608
3670016	464	464
3735552	560	544
3801088	224	208
3866624	528	528
3932160	416	416
3997696	1024	1024
4063232	384	368
4128768	352	352
4194304	864	832
4325376	960	960
4456448	928	832
4587520	416	416
4718592	448	416
4849664	1104	1040
4980736	1296	1280
5111808	1024	1008
5242880	896	896
5373952	1360	1344
5505024	512	496
5636096	464	464
5767168	1088	1088
5898240	336	304
6029312	752	720
6160384	368	336
6291456	704	704
6422528	720	720
6553600	1008	1008
6684672	624	608
6815744	784	752
6946816	448	448
7077888	368	368
7208960	736	720
7340032	720	720
7471104	384	384
7602176	304	288
7733248	224	224
7864320	688	672
7995392	464	464
8126464	272	272
8257536	496	480
8388608	656	656
8650752	736	720
8912896	1584	1584
9175040	752	704
9437184	576	544
9699328	464	464
9961472	80	80
10223616	624	624
10485760	256	256
10747904	304	288
11010048	288	240
11272192	192	192
11534336	160	160
11796480	272	256
12058624	112	112
12320768	224	224
12582912	304	304
12845056	256	256
13107200	112	112
13369344	368	368
13631488	336	336
13893632	0	0
14155776	48	48
14417920	96	96
14680064	240	240
14942208	64	64
15204352	128	128
15466496	64	64
15728640	288	288
15990784	256	256
16252928	272	272
16515072	64	64
16777216	160	144
17301504	176	176
17825792	304	288
18350080	192	192
18874368	352	352
19398656	512	512
19922944	624	624
20447232	288	272
20971520	320	320
21495808	256	256
22020096	240	240
22544384	144	144
23068672	80	80
23592960	144	144
24117248	272	272
24641536	608	608
25165824	192	192
25690112	464	432
26214400	208	208
26738688	128	128
27262976	112	96
27787264	32	32
28311552	96	96
28835840	144	128
29360128	80	80
29884416	192	192
30408704	48	48
30932992	64	48
31457280	48	48
31981568	256	256
32505856	112	112
33030144	0	0
33554432	192	192
34603008	80	80
35651584	144	144
36700160	128	128
37748736	144	144
38797312	448	448
39845888	352	352
40894464	256	256
41943040	96	96
42991616	32	32
44040192	32	32
45088768	0	0
46137344	16	16
47185920	176	176
48234496	112	96
49283072	384	384
50331648	64	64
51380224	64	64
52428800	64	64
53477376	128	128
54525952	96	96
55574528	16	16
56623104	176	176
57671680	112	112
58720256	208	208
59768832	160	160
60817408	144	144
61865984	160	160
62914560	624	624
63963136	240	240
65011712	64	48
66060288	208	208
67108864	160	160
69206016	176	160
71303168	64	64
73400320	112	112
75497472	48	32
77594624	64	64
79691776	144	144
81788928	48	48
83886080	64	64
85983232	64	64
88080384	144	144
90177536	0	0
92274688	80	64
94371840	32	32
96468992	48	48
98566144	64	64
100663296	0	0
102760448	128	112
104857600	0	0
106954752	0	0
109051904	32	32
111149056	48	48
113246208	48	48
115343360	128	112
117440512	80	80
119537664	32	32
121634816	16	16
123731968	48	48
125829120	16	16
127926272	0	0
130023424	16	16
132120576	0	0
134217728	16	16
138412032	64	64
142606336	80	80
146800640	16	16
150994944	112	112
155189248	0	0
159383552	32	32
163577856	64	64
167772160	48	48
171966464	16	16
176160768	32	32
180355072	32	32
184549376	64	64
188743680	0	0
192937984	0	0
197132288	0	0
201326592	272	272
205520896	16	16
209715200	32	32
213909504	80	80
218103808	80	80
222298112	0	0
226492416	0	0
230686720	0	0
234881024	0	0
239075328	0	0
243269632	0	0
247463936	0	0
251658240	0	0
255852544	16	0
260046848	128	128
264241152	0	0
268435456	16	16
276824064	0	0
285212672	0	0
293601280	0	0
301989888	0	0
310378496	0	0
318767104	0	0
327155712	0	0
335544320	0	0
343932928	0	0
352321536	0	0
360710144	0	0
369098752	0	0
377487360	0	0
385875968	0	0
394264576	0	0
402653184	0	0
411041792	0	0
419430400	0	0
427819008	0	0
436207616	0	0
444596224	0	0
452984832	0	0
461373440	0	0
469762048	0	0
478150656	0	0
486539264	0	0
494927872	0	0
503316480	0	0
511705088	0	0
520093696	0	0
528482304	0	0
536870912	0	0
553648128	0	0
570425344	0	0
587202560	0	0
603979776	0	0
620756992	0	0
637534208	0	0
654311424	0	0
671088640	0	0
687865856	0	0
704643072	0	0
721420288	0	0
738197504	0	0
754974720	0	0
771751936	0	0
788529152	0	0
805306368	0	0
822083584	0	0
838860800	0	0
855638016	0	0
872415232	0	0
889192448	0	0
905969664	0	0
922746880	0	0
939524096	0	0
956301312	0	0
973078528	0	0
989855744	0	0
1006632960	0	0
1023410176	0	0
1040187392	0	0
1056964608	0	0
1073741824	0	0
1107296256	0	0
1140850688	0	0
1174405120	0	0
1207959552	0	0
1241513984	0	0
1275068416	0	0
1308622848	0	0
1342177280	0	0
1375731712	0	0
1409286144	0	0
1442840576	0	0
1476395008	0	0
1509949440	0	0
1543503872	0	0
1577058304	0	0
1610612736	0	0
1644167168	0	0
1677721600	0	0
1711276032	0	0
1744830464	0	0
1778384896	0	0
1811939328	0	0
1845493760	0	0
1879048192	0	0
1912602624	0	0
1946157056	0	0
1979711488	0	0
2013265920	0	0
2046820352	0	0
2080374784	0	0
2113929216	0	0
2147483648	0	0
2214592512	0	0
2281701376	0	0
2348810240	0	0
2415919104	0	0
2483027968	0	0
2550136832	0	0
2617245696	0	0
2684354560	0	0
2751463424	0	0
2818572288	0	0
2885681152	0	0
2952790016	0	0
3019898880	0	0
3087007744	0	0
3154116608	0	0
3221225472	0	0
3288334336	0	0
3355443200	0	0
3422552064	0	0
3489660928	0	0
3556769792	0	0
3623878656	0	0
3690987520	0	0
3758096384	0	0
3825205248	0	0
3892314112	0	0
3959422976	0	0
4026531840	0	0
4093640704	0	0
4160749568	0	0
4227858432	0	0
~~~~~~~~~~Reuse Distance Profiler output end~~~~~~~~~~

Sampler size:14365

DRAM Statistics
 CHANNEL 0
 RQ ROW_BUFFER_HIT:     141684  ROW_BUFFER_MISS:      73056
 DBUS AVG_CONGESTED_CYCLE:    3.92265
 WQ ROW_BUFFER_HIT:      21270  ROW_BUFFER_MISS:      75923  FULL:          0


CPU 0 Branch Prediction Accuracy: 89.3348% MPKI: 14.7667 Average ROB Occupancy at Mispredict: 44.672
Branch type MPKI
BRANCH_DIRECT_JUMP: 1.33333e-06
BRANCH_INDIRECT: 0
BRANCH_CONDITIONAL: 14.7667
BRANCH_DIRECT_CALL: 0
BRANCH_INDIRECT_CALL: 0
BRANCH_RETURN: 0

