
*** ChampSim Multicore Out-of-Order Simulator ***

Warmup Instructions: 50000000
Simulation Instructions: 1500000000
Number of CPUs: 1
Off-chip DRAM Size: 4 GiB Channels: 1 Width: 64-bit Data Rate: 3200 MT/s

VirtualMemory physical capacity: 8588881920 num_ppages: 2096895
VirtualMemory page size: 4096 log2_page_size: 12

CPU 0 runs /s/traces/champsim_traces/649.fotonik3d_s-7084B.champsimtrace.xz
CPU 0 Bimodal branch predictor
Basic BTB sets: 1024 ways: 8 indirect buffer size: 4096 RAS size: 64
Initializing LRU.
Initializing LRU.
Initializing LRU.
Initializing LRU.
Initializing rdLRU.
Initializing LRU.
Heartbeat CPU 0 instructions: 2000000 cycles: 651456 heartbeat IPC: 3.07005 cumulative IPC: 3.07005 (Simulation time: 0 hr 1 min 28 sec) 
Heartbeat CPU 0 instructions: 4000003 cycles: 1302777 heartbeat IPC: 3.07069 cumulative IPC: 3.07037 (Simulation time: 0 hr 2 min 41 sec) 
Heartbeat CPU 0 instructions: 6000004 cycles: 1954100 heartbeat IPC: 3.07067 cumulative IPC: 3.07047 (Simulation time: 0 hr 4 min 10 sec) 
Heartbeat CPU 0 instructions: 8000000 cycles: 2605434 heartbeat IPC: 3.07062 cumulative IPC: 3.07051 (Simulation time: 0 hr 5 min 43 sec) 
Heartbeat CPU 0 instructions: 10000004 cycles: 3256752 heartbeat IPC: 3.0707 cumulative IPC: 3.07055 (Simulation time: 0 hr 7 min 4 sec) 
Heartbeat CPU 0 instructions: 12000001 cycles: 3908071 heartbeat IPC: 3.07069 cumulative IPC: 3.07057 (Simulation time: 0 hr 8 min 23 sec) 
Heartbeat CPU 0 instructions: 14000000 cycles: 4559391 heartbeat IPC: 3.07069 cumulative IPC: 3.07059 (Simulation time: 0 hr 9 min 57 sec) 
Heartbeat CPU 0 instructions: 16000000 cycles: 5210736 heartbeat IPC: 3.07057 cumulative IPC: 3.07058 (Simulation time: 0 hr 11 min 35 sec) 
Heartbeat CPU 0 instructions: 18000003 cycles: 5862059 heartbeat IPC: 3.07068 cumulative IPC: 3.07059 (Simulation time: 0 hr 13 min 11 sec) 
Heartbeat CPU 0 instructions: 20000003 cycles: 6513377 heartbeat IPC: 3.0707 cumulative IPC: 3.0706 (Simulation time: 0 hr 14 min 44 sec) 
Heartbeat CPU 0 instructions: 22000003 cycles: 7164698 heartbeat IPC: 3.07068 cumulative IPC: 3.07061 (Simulation time: 0 hr 16 min 18 sec) 
Heartbeat CPU 0 instructions: 24000000 cycles: 7816041 heartbeat IPC: 3.07057 cumulative IPC: 3.07061 (Simulation time: 0 hr 17 min 46 sec) 
Heartbeat CPU 0 instructions: 26000004 cycles: 8467356 heartbeat IPC: 3.07072 cumulative IPC: 3.07062 (Simulation time: 0 hr 19 min 12 sec) 
Heartbeat CPU 0 instructions: 28000002 cycles: 9118673 heartbeat IPC: 3.0707 cumulative IPC: 3.07062 (Simulation time: 0 hr 20 min 46 sec) 
Heartbeat CPU 0 instructions: 30000001 cycles: 9769996 heartbeat IPC: 3.07067 cumulative IPC: 3.07063 (Simulation time: 0 hr 22 min 20 sec) 
Heartbeat CPU 0 instructions: 32000001 cycles: 10421336 heartbeat IPC: 3.07059 cumulative IPC: 3.07062 (Simulation time: 0 hr 23 min 57 sec) 
Heartbeat CPU 0 instructions: 34000004 cycles: 11072655 heartbeat IPC: 3.0707 cumulative IPC: 3.07063 (Simulation time: 0 hr 25 min 22 sec) 
Heartbeat CPU 0 instructions: 36000001 cycles: 11723982 heartbeat IPC: 3.07065 cumulative IPC: 3.07063 (Simulation time: 0 hr 26 min 51 sec) 
Heartbeat CPU 0 instructions: 38000003 cycles: 12375308 heartbeat IPC: 3.07066 cumulative IPC: 3.07063 (Simulation time: 0 hr 28 min 21 sec) 
Heartbeat CPU 0 instructions: 40000000 cycles: 13026639 heartbeat IPC: 3.07063 cumulative IPC: 3.07063 (Simulation time: 0 hr 29 min 50 sec) 
Heartbeat CPU 0 instructions: 42000003 cycles: 13677964 heartbeat IPC: 3.07067 cumulative IPC: 3.07063 (Simulation time: 0 hr 31 min 19 sec) 
Heartbeat CPU 0 instructions: 44000003 cycles: 14329287 heartbeat IPC: 3.07067 cumulative IPC: 3.07063 (Simulation time: 0 hr 32 min 46 sec) 
Heartbeat CPU 0 instructions: 46000001 cycles: 14980624 heartbeat IPC: 3.0706 cumulative IPC: 3.07063 (Simulation time: 0 hr 34 min 15 sec) 
Heartbeat CPU 0 instructions: 48000002 cycles: 15631940 heartbeat IPC: 3.07071 cumulative IPC: 3.07064 (Simulation time: 0 hr 35 min 42 sec) 
Heartbeat CPU 0 instructions: 50000003 cycles: 16283259 heartbeat IPC: 3.07069 cumulative IPC: 3.07064 (Simulation time: 0 hr 37 min 9 sec) 

Warmup complete CPU 0 instructions: 50000003 cycles: 16283259 (Simulation time: 0 hr 37 min 9 sec) 

Heartbeat CPU 0 instructions: 52000004 cycles: 19327280 heartbeat IPC: 0.657026 cumulative IPC: 0.657026 (Simulation time: 0 hr 41 min 4 sec) 

Region of Interest Statistics
cpu0_DTLB TOTAL     ACCESS:     513143  HIT:     510100  MISS:       3043
cpu0_DTLB LOAD      ACCESS:     452769  HIT:     449821  MISS:       2948
cpu0_DTLB RFO       ACCESS:      60374  HIT:      60279  MISS:         95
cpu0_DTLB PREFETCH  ACCESS:          0  HIT:          0  MISS:          0
cpu0_DTLB WRITEBACK ACCESS:          0  HIT:          0  MISS:          0
cpu0_ITLB TOTAL     ACCESS:       5988  HIT:       5988  MISS:          0
cpu0_ITLB LOAD      ACCESS:       5988  HIT:       5988  MISS:          0
cpu0_ITLB RFO       ACCESS:          0  HIT:          0  MISS:          0
cpu0_ITLB PREFETCH  ACCESS:          0  HIT:          0  MISS:          0
cpu0_ITLB WRITEBACK ACCESS:          0  HIT:          0  MISS:          0
cpu0_STLB TOTAL     ACCESS:       3043  HIT:       2490  MISS:        553
cpu0_STLB LOAD      ACCESS:       2948  HIT:       2395  MISS:        553
cpu0_STLB RFO       ACCESS:         95  HIT:         95  MISS:          0
cpu0_STLB PREFETCH  ACCESS:          0  HIT:          0  MISS:          0
cpu0_STLB WRITEBACK ACCESS:          0  HIT:          0  MISS:          0
cpu0_L1D TOTAL     ACCESS:     506479  HIT:     473514  MISS:      32965
cpu0_L1D LOAD      ACCESS:     407550  HIT:     374743  MISS:      32807
cpu0_L1D RFO       ACCESS:      98377  HIT:      98377  MISS:          0
cpu0_L1D PREFETCH  ACCESS:          0  HIT:          0  MISS:          0
cpu0_L1D WRITEBACK ACCESS:          0  HIT:          0  MISS:          0
cpu0_L2C TOTAL     ACCESS:      43351  HIT:      10543  MISS:      32808
cpu0_L2C LOAD      ACCESS:      32807  HIT:          0  MISS:      32807
cpu0_L2C RFO       ACCESS:          0  HIT:          0  MISS:          0
cpu0_L2C PREFETCH  ACCESS:          0  HIT:          0  MISS:          0
cpu0_L2C WRITEBACK ACCESS:      10386  HIT:      10386  MISS:          0
LLC TOTAL     ACCESS:      43453  HIT:      10645  MISS:      32808
LLC LOAD      ACCESS:      32807  HIT:          0  MISS:      32807
LLC RFO       ACCESS:          0  HIT:          0  MISS:          0
LLC PREFETCH  ACCESS:          0  HIT:          0  MISS:          0
LLC WRITEBACK ACCESS:      10645  HIT:      10645  MISS:          0
Heartbeat CPU 0 instructions: 54000002 cycles: 22328131 heartbeat IPC: 0.666477 cumulative IPC: 0.661718 (Simulation time: 0 hr 45 min 4 sec) 

Region of Interest Statistics
cpu0_DTLB TOTAL     ACCESS:    1025260  HIT:    1015611  MISS:       9649
cpu0_DTLB LOAD      ACCESS:     904156  HIT:     895049  MISS:       9107
cpu0_DTLB RFO       ACCESS:     121104  HIT:     120562  MISS:        542
cpu0_DTLB PREFETCH  ACCESS:          0  HIT:          0  MISS:          0
cpu0_DTLB WRITEBACK ACCESS:          0  HIT:          0  MISS:          0
cpu0_ITLB TOTAL     ACCESS:      12045  HIT:      12045  MISS:          0
cpu0_ITLB LOAD      ACCESS:      12045  HIT:      12045  MISS:          0
cpu0_ITLB RFO       ACCESS:          0  HIT:          0  MISS:          0
cpu0_ITLB PREFETCH  ACCESS:          0  HIT:          0  MISS:          0
cpu0_ITLB WRITEBACK ACCESS:          0  HIT:          0  MISS:          0
cpu0_STLB TOTAL     ACCESS:       9649  HIT:       8553  MISS:       1096
cpu0_STLB LOAD      ACCESS:       9107  HIT:       8011  MISS:       1096
cpu0_STLB RFO       ACCESS:        542  HIT:        542  MISS:          0
cpu0_STLB PREFETCH  ACCESS:          0  HIT:          0  MISS:          0
cpu0_STLB WRITEBACK ACCESS:          0  HIT:          0  MISS:          0
cpu0_L1D TOTAL     ACCESS:    1013824  HIT:     947973  MISS:      65851
cpu0_L1D LOAD      ACCESS:     815988  HIT:     750441  MISS:      65547
cpu0_L1D RFO       ACCESS:     196741  HIT:     196741  MISS:          0
cpu0_L1D PREFETCH  ACCESS:          0  HIT:          0  MISS:          0
cpu0_L1D WRITEBACK ACCESS:          0  HIT:          0  MISS:          0
cpu0_L2C TOTAL     ACCESS:      86623  HIT:      21074  MISS:      65549
cpu0_L2C LOAD      ACCESS:      65547  HIT:          0  MISS:      65547
cpu0_L2C RFO       ACCESS:          0  HIT:          0  MISS:          0
cpu0_L2C PREFETCH  ACCESS:          0  HIT:          0  MISS:          0
cpu0_L2C WRITEBACK ACCESS:      20772  HIT:      20772  MISS:          0
LLC TOTAL     ACCESS:      86493  HIT:      20944  MISS:      65549
LLC LOAD      ACCESS:      65547  HIT:          0  MISS:      65547
LLC RFO       ACCESS:          0  HIT:          0  MISS:          0
LLC PREFETCH  ACCESS:          0  HIT:          0  MISS:          0
LLC WRITEBACK ACCESS:      20944  HIT:      20944  MISS:          0
Heartbeat CPU 0 instructions: 56000000 cycles: 25356019 heartbeat IPC: 0.660526 cumulative IPC: 0.66132 (Simulation time: 0 hr 48 min 55 sec) 

Region of Interest Statistics
cpu0_DTLB TOTAL     ACCESS:    1535987  HIT:    1515446  MISS:      20541
cpu0_DTLB LOAD      ACCESS:    1354631  HIT:    1335307  MISS:      19324
cpu0_DTLB RFO       ACCESS:     181356  HIT:     180139  MISS:       1217
cpu0_DTLB PREFETCH  ACCESS:          0  HIT:          0  MISS:          0
cpu0_DTLB WRITEBACK ACCESS:          0  HIT:          0  MISS:          0
cpu0_ITLB TOTAL     ACCESS:      18050  HIT:      18050  MISS:          0
cpu0_ITLB LOAD      ACCESS:      18050  HIT:      18050  MISS:          0
cpu0_ITLB RFO       ACCESS:          0  HIT:          0  MISS:          0
cpu0_ITLB PREFETCH  ACCESS:          0  HIT:          0  MISS:          0
cpu0_ITLB WRITEBACK ACCESS:          0  HIT:          0  MISS:          0
cpu0_STLB TOTAL     ACCESS:      20541  HIT:      18900  MISS:       1641
cpu0_STLB LOAD      ACCESS:      19324  HIT:      17683  MISS:       1641
cpu0_STLB RFO       ACCESS:       1217  HIT:       1217  MISS:          0
cpu0_STLB PREFETCH  ACCESS:          0  HIT:          0  MISS:          0
cpu0_STLB WRITEBACK ACCESS:          0  HIT:          0  MISS:          0
cpu0_L1D TOTAL     ACCESS:    1521557  HIT:    1422794  MISS:      98763
cpu0_L1D LOAD      ACCESS:    1224847  HIT:    1126548  MISS:      98299
cpu0_L1D RFO       ACCESS:     295070  HIT:     295070  MISS:          0
cpu0_L1D PREFETCH  ACCESS:          0  HIT:          0  MISS:          0
cpu0_L1D WRITEBACK ACCESS:          0  HIT:          0  MISS:          0
cpu0_L2C TOTAL     ACCESS:     129919  HIT:      31625  MISS:      98294
cpu0_L2C LOAD      ACCESS:      98299  HIT:          9  MISS:      98290
cpu0_L2C RFO       ACCESS:          0  HIT:          0  MISS:          0
cpu0_L2C PREFETCH  ACCESS:          0  HIT:          0  MISS:          0
cpu0_L2C WRITEBACK ACCESS:      31156  HIT:      31155  MISS:          1
LLC TOTAL     ACCESS:     129642  HIT:      31352  MISS:      98290
LLC LOAD      ACCESS:      98290  HIT:          4  MISS:      98286
LLC RFO       ACCESS:          0  HIT:          0  MISS:          0
LLC PREFETCH  ACCESS:          0  HIT:          0  MISS:          0
LLC WRITEBACK ACCESS:      31349  HIT:      31348  MISS:          1
Heartbeat CPU 0 instructions: 58000003 cycles: 28382780 heartbeat IPC: 0.660773 cumulative IPC: 0.661183 (Simulation time: 0 hr 52 min 53 sec) 

Region of Interest Statistics
cpu0_DTLB TOTAL     ACCESS:    2046763  HIT:    2016296  MISS:      30467
cpu0_DTLB LOAD      ACCESS:    1804849  HIT:    1776451  MISS:      28398
cpu0_DTLB RFO       ACCESS:     241914  HIT:     239845  MISS:       2069
cpu0_DTLB PREFETCH  ACCESS:          0  HIT:          0  MISS:          0
cpu0_DTLB WRITEBACK ACCESS:          0  HIT:          0  MISS:          0
cpu0_ITLB TOTAL     ACCESS:      24063  HIT:      24063  MISS:          0
cpu0_ITLB LOAD      ACCESS:      24063  HIT:      24063  MISS:          0
cpu0_ITLB RFO       ACCESS:          0  HIT:          0  MISS:          0
cpu0_ITLB PREFETCH  ACCESS:          0  HIT:          0  MISS:          0
cpu0_ITLB WRITEBACK ACCESS:          0  HIT:          0  MISS:          0
cpu0_STLB TOTAL     ACCESS:      30467  HIT:      28280  MISS:       2187
cpu0_STLB LOAD      ACCESS:      28398  HIT:      26211  MISS:       2187
cpu0_STLB RFO       ACCESS:       2069  HIT:       2069  MISS:          0
cpu0_STLB PREFETCH  ACCESS:          0  HIT:          0  MISS:          0
cpu0_STLB WRITEBACK ACCESS:          0  HIT:          0  MISS:          0
cpu0_L1D TOTAL     ACCESS:    2031902  HIT:    1900237  MISS:     131665
cpu0_L1D LOAD      ACCESS:    1636316  HIT:    1505268  MISS:     131048
cpu0_L1D RFO       ACCESS:     393400  HIT:     393400  MISS:          0
cpu0_L1D PREFETCH  ACCESS:          0  HIT:          0  MISS:          0
cpu0_L1D WRITEBACK ACCESS:          0  HIT:          0  MISS:          0
cpu0_L2C TOTAL     ACCESS:     173222  HIT:      42188  MISS:     131034
cpu0_L2C LOAD      ACCESS:     131048  HIT:         19  MISS:     131029
cpu0_L2C RFO       ACCESS:          0  HIT:          0  MISS:          0
cpu0_L2C PREFETCH  ACCESS:          0  HIT:          0  MISS:          0
cpu0_L2C WRITEBACK ACCESS:      41557  HIT:      41556  MISS:          1
LLC TOTAL     ACCESS:     172880  HIT:      41851  MISS:     131029
LLC LOAD      ACCESS:     131029  HIT:          5  MISS:     131024
LLC RFO       ACCESS:          0  HIT:          0  MISS:          0
LLC PREFETCH  ACCESS:          0  HIT:          0  MISS:          0
LLC WRITEBACK ACCESS:      41847  HIT:      41846  MISS:          1
Heartbeat CPU 0 instructions: 60000001 cycles: 31391312 heartbeat IPC: 0.664775 cumulative IPC: 0.661899 (Simulation time: 0 hr 56 min 47 sec) 

Region of Interest Statistics
cpu0_DTLB TOTAL     ACCESS:    2558570  HIT:    2523147  MISS:      35423
cpu0_DTLB LOAD      ACCESS:    2255750  HIT:    2222794  MISS:      32956
cpu0_DTLB RFO       ACCESS:     302820  HIT:     300353  MISS:       2467
cpu0_DTLB PREFETCH  ACCESS:          0  HIT:          0  MISS:          0
cpu0_DTLB WRITEBACK ACCESS:          0  HIT:          0  MISS:          0
cpu0_ITLB TOTAL     ACCESS:      30079  HIT:      30079  MISS:          0
cpu0_ITLB LOAD      ACCESS:      30079  HIT:      30079  MISS:          0
cpu0_ITLB RFO       ACCESS:          0  HIT:          0  MISS:          0
cpu0_ITLB PREFETCH  ACCESS:          0  HIT:          0  MISS:          0
cpu0_ITLB WRITEBACK ACCESS:          0  HIT:          0  MISS:          0
cpu0_STLB TOTAL     ACCESS:      35423  HIT:      32692  MISS:       2731
cpu0_STLB LOAD      ACCESS:      32956  HIT:      30225  MISS:       2731
cpu0_STLB RFO       ACCESS:       2467  HIT:       2467  MISS:          0
cpu0_STLB PREFETCH  ACCESS:          0  HIT:          0  MISS:          0
cpu0_STLB WRITEBACK ACCESS:          0  HIT:          0  MISS:          0
cpu0_L1D TOTAL     ACCESS:    2543182  HIT:    2378611  MISS:     164571
cpu0_L1D LOAD      ACCESS:    2048723  HIT:    1884937  MISS:     163786
cpu0_L1D RFO       ACCESS:     491729  HIT:     491729  MISS:          0
cpu0_L1D PREFETCH  ACCESS:          0  HIT:          0  MISS:          0
cpu0_L1D WRITEBACK ACCESS:          0  HIT:          0  MISS:          0
cpu0_L2C TOTAL     ACCESS:     216498  HIT:      52725  MISS:     163773
cpu0_L2C LOAD      ACCESS:     163786  HIT:         19  MISS:     163767
cpu0_L2C RFO       ACCESS:          0  HIT:          0  MISS:          0
cpu0_L2C PREFETCH  ACCESS:          0  HIT:          0  MISS:          0
cpu0_L2C WRITEBACK ACCESS:      51927  HIT:      51926  MISS:          1
LLC TOTAL     ACCESS:     216038  HIT:      52270  MISS:     163768
LLC LOAD      ACCESS:     163767  HIT:          5  MISS:     163762
LLC RFO       ACCESS:          0  HIT:          0  MISS:          0
LLC PREFETCH  ACCESS:          0  HIT:          0  MISS:          0
LLC WRITEBACK ACCESS:      52266  HIT:      52265  MISS:          1
Heartbeat CPU 0 instructions: 62000002 cycles: 34410888 heartbeat IPC: 0.662345 cumulative IPC: 0.661973 (Simulation time: 1 hr 0 min 42 sec) 

Region of Interest Statistics
cpu0_DTLB TOTAL     ACCESS:    3071055  HIT:    3034741  MISS:      36314
cpu0_DTLB LOAD      ACCESS:    2707178  HIT:    2673357  MISS:      33821
cpu0_DTLB RFO       ACCESS:     363877  HIT:     361384  MISS:       2493
cpu0_DTLB PREFETCH  ACCESS:          0  HIT:          0  MISS:          0
cpu0_DTLB WRITEBACK ACCESS:          0  HIT:          0  MISS:          0
cpu0_ITLB TOTAL     ACCESS:      36144  HIT:      36144  MISS:          0
cpu0_ITLB LOAD      ACCESS:      36144  HIT:      36144  MISS:          0
cpu0_ITLB RFO       ACCESS:          0  HIT:          0  MISS:          0
cpu0_ITLB PREFETCH  ACCESS:          0  HIT:          0  MISS:          0
cpu0_ITLB WRITEBACK ACCESS:          0  HIT:          0  MISS:          0
cpu0_STLB TOTAL     ACCESS:      36314  HIT:      33037  MISS:       3277
cpu0_STLB LOAD      ACCESS:      33821  HIT:      30544  MISS:       3277
cpu0_STLB RFO       ACCESS:       2493  HIT:       2493  MISS:          0
cpu0_STLB PREFETCH  ACCESS:          0  HIT:          0  MISS:          0
cpu0_STLB WRITEBACK ACCESS:          0  HIT:          0  MISS:          0
cpu0_L1D TOTAL     ACCESS:    3054789  HIT:    2857330  MISS:     197459
cpu0_L1D LOAD      ACCESS:    2461420  HIT:    2264893  MISS:     196527
cpu0_L1D RFO       ACCESS:     590093  HIT:     590093  MISS:          0
cpu0_L1D PREFETCH  ACCESS:          0  HIT:          0  MISS:          0
cpu0_L1D WRITEBACK ACCESS:          0  HIT:          0  MISS:          0
cpu0_L2C TOTAL     ACCESS:     259782  HIT:      63267  MISS:     196515
cpu0_L2C LOAD      ACCESS:     196527  HIT:         19  MISS:     196508
cpu0_L2C RFO       ACCESS:          0  HIT:          0  MISS:          0
cpu0_L2C PREFETCH  ACCESS:          0  HIT:          0  MISS:          0
cpu0_L2C WRITEBACK ACCESS:      62323  HIT:      62322  MISS:          1
LLC TOTAL     ACCESS:     259137  HIT:      62627  MISS:     196510
LLC LOAD      ACCESS:     196508  HIT:          5  MISS:     196503
LLC RFO       ACCESS:          0  HIT:          0  MISS:          0
LLC PREFETCH  ACCESS:          0  HIT:          0  MISS:          0
LLC WRITEBACK ACCESS:      62623  HIT:      62622  MISS:          1
Heartbeat CPU 0 instructions: 64000004 cycles: 37427190 heartbeat IPC: 0.663064 cumulative IPC: 0.662129 (Simulation time: 1 hr 4 min 32 sec) 

Region of Interest Statistics
cpu0_DTLB TOTAL     ACCESS:    3583326  HIT:    3546300  MISS:      37026
cpu0_DTLB LOAD      ACCESS:    3158433  HIT:    3123924  MISS:      34509
cpu0_DTLB RFO       ACCESS:     424893  HIT:     422376  MISS:       2517
cpu0_DTLB PREFETCH  ACCESS:          0  HIT:          0  MISS:          0
cpu0_DTLB WRITEBACK ACCESS:          0  HIT:          0  MISS:          0
cpu0_ITLB TOTAL     ACCESS:      42150  HIT:      42150  MISS:          0
cpu0_ITLB LOAD      ACCESS:      42150  HIT:      42150  MISS:          0
cpu0_ITLB RFO       ACCESS:          0  HIT:          0  MISS:          0
cpu0_ITLB PREFETCH  ACCESS:          0  HIT:          0  MISS:          0
cpu0_ITLB WRITEBACK ACCESS:          0  HIT:          0  MISS:          0
cpu0_STLB TOTAL     ACCESS:      37026  HIT:      33203  MISS:       3823
cpu0_STLB LOAD      ACCESS:      34509  HIT:      30686  MISS:       3823
cpu0_STLB RFO       ACCESS:       2517  HIT:       2517  MISS:          0
cpu0_STLB PREFETCH  ACCESS:          0  HIT:          0  MISS:          0
cpu0_STLB WRITEBACK ACCESS:          0  HIT:          0  MISS:          0
cpu0_L1D TOTAL     ACCESS:    3566228  HIT:    3335867  MISS:     230361
cpu0_L1D LOAD      ACCESS:    2873983  HIT:    2644714  MISS:     229269
cpu0_L1D RFO       ACCESS:     688423  HIT:     688423  MISS:          0
cpu0_L1D PREFETCH  ACCESS:          0  HIT:          0  MISS:          0
cpu0_L1D WRITEBACK ACCESS:          0  HIT:          0  MISS:          0
cpu0_L2C TOTAL     ACCESS:     303062  HIT:      73810  MISS:     229252
cpu0_L2C LOAD      ACCESS:     229269  HIT:         25  MISS:     229244
cpu0_L2C RFO       ACCESS:          0  HIT:          0  MISS:          0
cpu0_L2C PREFETCH  ACCESS:          0  HIT:          0  MISS:          0
cpu0_L2C WRITEBACK ACCESS:      72701  HIT:      72700  MISS:          1
LLC TOTAL     ACCESS:     302000  HIT:      72753  MISS:     229247
LLC LOAD      ACCESS:     229244  HIT:          5  MISS:     229239
LLC RFO       ACCESS:          0  HIT:          0  MISS:          0
LLC PREFETCH  ACCESS:          0  HIT:          0  MISS:          0
LLC WRITEBACK ACCESS:      72749  HIT:      72748  MISS:          1
Heartbeat CPU 0 instructions: 66000004 cycles: 40472700 heartbeat IPC: 0.656704 cumulative IPC: 0.661446 (Simulation time: 1 hr 8 min 36 sec) 

Region of Interest Statistics
cpu0_DTLB TOTAL     ACCESS:    4095693  HIT:    4058116  MISS:      37577
cpu0_DTLB LOAD      ACCESS:    3609728  HIT:    3574668  MISS:      35060
cpu0_DTLB RFO       ACCESS:     485965  HIT:     483448  MISS:       2517
cpu0_DTLB PREFETCH  ACCESS:          0  HIT:          0  MISS:          0
cpu0_DTLB WRITEBACK ACCESS:          0  HIT:          0  MISS:          0
cpu0_ITLB TOTAL     ACCESS:      48171  HIT:      48171  MISS:          0
cpu0_ITLB LOAD      ACCESS:      48171  HIT:      48171  MISS:          0
cpu0_ITLB RFO       ACCESS:          0  HIT:          0  MISS:          0
cpu0_ITLB PREFETCH  ACCESS:          0  HIT:          0  MISS:          0
cpu0_ITLB WRITEBACK ACCESS:          0  HIT:          0  MISS:          0
cpu0_STLB TOTAL     ACCESS:      37577  HIT:      33212  MISS:       4365
cpu0_STLB LOAD      ACCESS:      35060  HIT:      30695  MISS:       4365
cpu0_STLB RFO       ACCESS:       2517  HIT:       2517  MISS:          0
cpu0_STLB PREFETCH  ACCESS:          0  HIT:          0  MISS:          0
cpu0_STLB WRITEBACK ACCESS:          0  HIT:          0  MISS:          0
cpu0_L1D TOTAL     ACCESS:    4075319  HIT:    3812040  MISS:     263279
cpu0_L1D LOAD      ACCESS:    3284202  HIT:    3022182  MISS:     262020
cpu0_L1D RFO       ACCESS:     786753  HIT:     786753  MISS:          0
cpu0_L1D PREFETCH  ACCESS:          0  HIT:          0  MISS:          0
cpu0_L1D WRITEBACK ACCESS:          0  HIT:          0  MISS:          0
cpu0_L2C TOTAL     ACCESS:     346361  HIT:      84367  MISS:     261994
cpu0_L2C LOAD      ACCESS:     262020  HIT:         38  MISS:     261982
cpu0_L2C RFO       ACCESS:          0  HIT:          0  MISS:          0
cpu0_L2C PREFETCH  ACCESS:          0  HIT:          0  MISS:          0
cpu0_L2C WRITEBACK ACCESS:      83082  HIT:      83081  MISS:          1
LLC TOTAL     ACCESS:     345256  HIT:      83268  MISS:     261988
LLC LOAD      ACCESS:     261982  HIT:          6  MISS:     261976
LLC RFO       ACCESS:          0  HIT:          0  MISS:          0
LLC PREFETCH  ACCESS:          0  HIT:          0  MISS:          0
LLC WRITEBACK ACCESS:      83263  HIT:      83262  MISS:          1
Heartbeat CPU 0 instructions: 68000001 cycles: 43465882 heartbeat IPC: 0.668184 cumulative IPC: 0.662188 (Simulation time: 1 hr 12 min 21 sec) 

Region of Interest Statistics
cpu0_DTLB TOTAL     ACCESS:    4608248  HIT:    4569540  MISS:      38708
cpu0_DTLB LOAD      ACCESS:    4061231  HIT:    4025040  MISS:      36191
cpu0_DTLB RFO       ACCESS:     547017  HIT:     544500  MISS:       2517
cpu0_DTLB PREFETCH  ACCESS:          0  HIT:          0  MISS:          0
cpu0_DTLB WRITEBACK ACCESS:          0  HIT:          0  MISS:          0
cpu0_ITLB TOTAL     ACCESS:      54178  HIT:      54178  MISS:          0
cpu0_ITLB LOAD      ACCESS:      54178  HIT:      54178  MISS:          0
cpu0_ITLB RFO       ACCESS:          0  HIT:          0  MISS:          0
cpu0_ITLB PREFETCH  ACCESS:          0  HIT:          0  MISS:          0
cpu0_ITLB WRITEBACK ACCESS:          0  HIT:          0  MISS:          0
cpu0_STLB TOTAL     ACCESS:      38708  HIT:      33797  MISS:       4911
cpu0_STLB LOAD      ACCESS:      36191  HIT:      31280  MISS:       4911
cpu0_STLB RFO       ACCESS:       2517  HIT:       2517  MISS:          0
cpu0_STLB PREFETCH  ACCESS:          0  HIT:          0  MISS:          0
cpu0_STLB WRITEBACK ACCESS:          0  HIT:          0  MISS:          0
cpu0_L1D TOTAL     ACCESS:    4583410  HIT:    4287175  MISS:     296235
cpu0_L1D LOAD      ACCESS:    3693416  HIT:    3398658  MISS:     294758
cpu0_L1D RFO       ACCESS:     885084  HIT:     885084  MISS:          0
cpu0_L1D PREFETCH  ACCESS:          0  HIT:          0  MISS:          0
cpu0_L1D WRITEBACK ACCESS:          0  HIT:          0  MISS:          0
cpu0_L2C TOTAL     ACCESS:     389717  HIT:      94985  MISS:     294732
cpu0_L2C LOAD      ACCESS:     294758  HIT:         38  MISS:     294720
cpu0_L2C RFO       ACCESS:          0  HIT:          0  MISS:          0
cpu0_L2C PREFETCH  ACCESS:          0  HIT:          0  MISS:          0
cpu0_L2C WRITEBACK ACCESS:      93482  HIT:      93481  MISS:          1
LLC TOTAL     ACCESS:     388430  HIT:      93704  MISS:     294726
LLC LOAD      ACCESS:     294720  HIT:          6  MISS:     294714
LLC RFO       ACCESS:          0  HIT:          0  MISS:          0
LLC PREFETCH  ACCESS:          0  HIT:          0  MISS:          0
LLC WRITEBACK ACCESS:      93699  HIT:      93698  MISS:          1
Heartbeat CPU 0 instructions: 70000001 cycles: 46376439 heartbeat IPC: 0.687154 cumulative IPC: 0.664602 (Simulation time: 1 hr 16 min 7 sec) 

Region of Interest Statistics
cpu0_DTLB TOTAL     ACCESS:    5120604  HIT:    5081337  MISS:      39267
cpu0_DTLB LOAD      ACCESS:    4513136  HIT:    4476386  MISS:      36750
cpu0_DTLB RFO       ACCESS:     607468  HIT:     604951  MISS:       2517
cpu0_DTLB PREFETCH  ACCESS:          0  HIT:          0  MISS:          0
cpu0_DTLB WRITEBACK ACCESS:          0  HIT:          0  MISS:          0
cpu0_ITLB TOTAL     ACCESS:      60244  HIT:      60244  MISS:          0
cpu0_ITLB LOAD      ACCESS:      60244  HIT:      60244  MISS:          0
cpu0_ITLB RFO       ACCESS:          0  HIT:          0  MISS:          0
cpu0_ITLB PREFETCH  ACCESS:          0  HIT:          0  MISS:          0
cpu0_ITLB WRITEBACK ACCESS:          0  HIT:          0  MISS:          0
cpu0_STLB TOTAL     ACCESS:      39267  HIT:      33801  MISS:       5466
cpu0_STLB LOAD      ACCESS:      36750  HIT:      31284  MISS:       5466
cpu0_STLB RFO       ACCESS:       2517  HIT:       2517  MISS:          0
cpu0_STLB PREFETCH  ACCESS:          0  HIT:          0  MISS:          0
cpu0_STLB WRITEBACK ACCESS:          0  HIT:          0  MISS:          0
cpu0_L1D TOTAL     ACCESS:    5089235  HIT:    4759960  MISS:     329275
cpu0_L1D LOAD      ACCESS:    4100276  HIT:    3772709  MISS:     327567
cpu0_L1D RFO       ACCESS:     983494  HIT:     983494  MISS:          0
cpu0_L1D PREFETCH  ACCESS:          0  HIT:          0  MISS:          0
cpu0_L1D WRITEBACK ACCESS:          0  HIT:          0  MISS:          0
cpu0_L2C TOTAL     ACCESS:     433150  HIT:     105605  MISS:     327545
cpu0_L2C LOAD      ACCESS:     327567  HIT:         38  MISS:     327529
cpu0_L2C RFO       ACCESS:          0  HIT:          0  MISS:          0
cpu0_L2C PREFETCH  ACCESS:          0  HIT:          0  MISS:          0
cpu0_L2C WRITEBACK ACCESS:     103875  HIT:     103874  MISS:          1
LLC TOTAL     ACCESS:     431629  HIT:     104091  MISS:     327538
LLC LOAD      ACCESS:     327529  HIT:          6  MISS:     327523
LLC RFO       ACCESS:          0  HIT:          0  MISS:          0
LLC PREFETCH  ACCESS:          0  HIT:          0  MISS:          0
LLC WRITEBACK ACCESS:     104085  HIT:     104084  MISS:          1
Heartbeat CPU 0 instructions: 72000000 cycles: 49280817 heartbeat IPC: 0.688615 cumulative IPC: 0.666716 (Simulation time: 1 hr 19 min 35 sec) 

Region of Interest Statistics
cpu0_DTLB TOTAL     ACCESS:    5632603  HIT:    5592439  MISS:      40164
cpu0_DTLB LOAD      ACCESS:    4964647  HIT:    4927024  MISS:      37623
cpu0_DTLB RFO       ACCESS:     667956  HIT:     665415  MISS:       2541
cpu0_DTLB PREFETCH  ACCESS:          0  HIT:          0  MISS:          0
cpu0_DTLB WRITEBACK ACCESS:          0  HIT:          0  MISS:          0
cpu0_ITLB TOTAL     ACCESS:      66251  HIT:      66251  MISS:          0
cpu0_ITLB LOAD      ACCESS:      66251  HIT:      66251  MISS:          0
cpu0_ITLB RFO       ACCESS:          0  HIT:          0  MISS:          0
cpu0_ITLB PREFETCH  ACCESS:          0  HIT:          0  MISS:          0
cpu0_ITLB WRITEBACK ACCESS:          0  HIT:          0  MISS:          0
cpu0_STLB TOTAL     ACCESS:      40164  HIT:      34156  MISS:       6008
cpu0_STLB LOAD      ACCESS:      37623  HIT:      31615  MISS:       6008
cpu0_STLB RFO       ACCESS:       2541  HIT:       2541  MISS:          0
cpu0_STLB PREFETCH  ACCESS:          0  HIT:          0  MISS:          0
cpu0_STLB WRITEBACK ACCESS:          0  HIT:          0  MISS:          0
cpu0_L1D TOTAL     ACCESS:    5595044  HIT:    5232804  MISS:     362240
cpu0_L1D LOAD      ACCESS:    4507209  HIT:    4146904  MISS:     360305
cpu0_L1D RFO       ACCESS:    1081826  HIT:    1081826  MISS:          0
cpu0_L1D PREFETCH  ACCESS:          0  HIT:          0  MISS:          0
cpu0_L1D WRITEBACK ACCESS:          0  HIT:          0  MISS:          0
cpu0_L2C TOTAL     ACCESS:     476473  HIT:     116189  MISS:     360284
cpu0_L2C LOAD      ACCESS:     360305  HIT:         38  MISS:     360267
cpu0_L2C RFO       ACCESS:          0  HIT:          0  MISS:          0
cpu0_L2C PREFETCH  ACCESS:          0  HIT:          0  MISS:          0
cpu0_L2C WRITEBACK ACCESS:     114233  HIT:     114232  MISS:          1
LLC TOTAL     ACCESS:     474766  HIT:     114490  MISS:     360276
LLC LOAD      ACCESS:     360267  HIT:          6  MISS:     360261
LLC RFO       ACCESS:          0  HIT:          0  MISS:          0
LLC PREFETCH  ACCESS:          0  HIT:          0  MISS:          0
LLC WRITEBACK ACCESS:     114483  HIT:     114482  MISS:          1
Heartbeat CPU 0 instructions: 74000004 cycles: 52188066 heartbeat IPC: 0.687937 cumulative IPC: 0.668434 (Simulation time: 1 hr 23 min 19 sec) 

Region of Interest Statistics
cpu0_DTLB TOTAL     ACCESS:    6144826  HIT:    6103604  MISS:      41222
cpu0_DTLB LOAD      ACCESS:    5416378  HIT:    5377711  MISS:      38667
cpu0_DTLB RFO       ACCESS:     728448  HIT:     725893  MISS:       2555
cpu0_DTLB PREFETCH  ACCESS:          0  HIT:          0  MISS:          0
cpu0_DTLB WRITEBACK ACCESS:          0  HIT:          0  MISS:          0
cpu0_ITLB TOTAL     ACCESS:      72247  HIT:      72247  MISS:          0
cpu0_ITLB LOAD      ACCESS:      72247  HIT:      72247  MISS:          0
cpu0_ITLB RFO       ACCESS:          0  HIT:          0  MISS:          0
cpu0_ITLB PREFETCH  ACCESS:          0  HIT:          0  MISS:          0
cpu0_ITLB WRITEBACK ACCESS:          0  HIT:          0  MISS:          0
cpu0_STLB TOTAL     ACCESS:      41222  HIT:      34667  MISS:       6555
cpu0_STLB LOAD      ACCESS:      38667  HIT:      32112  MISS:       6555
cpu0_STLB RFO       ACCESS:       2555  HIT:       2555  MISS:          0
cpu0_STLB PREFETCH  ACCESS:          0  HIT:          0  MISS:          0
cpu0_STLB WRITEBACK ACCESS:          0  HIT:          0  MISS:          0
cpu0_L1D TOTAL     ACCESS:    6104080  HIT:    5708862  MISS:     395218
cpu0_L1D LOAD      ACCESS:    4917370  HIT:    4524325  MISS:     393045
cpu0_L1D RFO       ACCESS:    1180156  HIT:    1180156  MISS:          0
cpu0_L1D PREFETCH  ACCESS:          0  HIT:          0  MISS:          0
cpu0_L1D WRITEBACK ACCESS:          0  HIT:          0  MISS:          0
cpu0_L2C TOTAL     ACCESS:     519856  HIT:     126835  MISS:     393021
cpu0_L2C LOAD      ACCESS:     393045  HIT:         41  MISS:     393004
cpu0_L2C RFO       ACCESS:          0  HIT:          0  MISS:          0
cpu0_L2C PREFETCH  ACCESS:          0  HIT:          0  MISS:          0
cpu0_L2C WRITEBACK ACCESS:     124638  HIT:     124637  MISS:          1
LLC TOTAL     ACCESS:     517921  HIT:     124908  MISS:     393013
LLC LOAD      ACCESS:     393004  HIT:          6  MISS:     392998
LLC RFO       ACCESS:          0  HIT:          0  MISS:          0
LLC PREFETCH  ACCESS:          0  HIT:          0  MISS:          0
LLC WRITEBACK ACCESS:     124901  HIT:     124900  MISS:          1
Heartbeat CPU 0 instructions: 76000003 cycles: 55069335 heartbeat IPC: 0.694138 cumulative IPC: 0.670344 (Simulation time: 1 hr 27 min 3 sec) 

Region of Interest Statistics
cpu0_DTLB TOTAL     ACCESS:    6657079  HIT:    6614836  MISS:      42243
cpu0_DTLB LOAD      ACCESS:    5868209  HIT:    5828542  MISS:      39667
cpu0_DTLB RFO       ACCESS:     788870  HIT:     786294  MISS:       2576
cpu0_DTLB PREFETCH  ACCESS:          0  HIT:          0  MISS:          0
cpu0_DTLB WRITEBACK ACCESS:          0  HIT:          0  MISS:          0
cpu0_ITLB TOTAL     ACCESS:      78257  HIT:      78257  MISS:          0
cpu0_ITLB LOAD      ACCESS:      78257  HIT:      78257  MISS:          0
cpu0_ITLB RFO       ACCESS:          0  HIT:          0  MISS:          0
cpu0_ITLB PREFETCH  ACCESS:          0  HIT:          0  MISS:          0
cpu0_ITLB WRITEBACK ACCESS:          0  HIT:          0  MISS:          0
cpu0_STLB TOTAL     ACCESS:      42243  HIT:      35146  MISS:       7097
cpu0_STLB LOAD      ACCESS:      39667  HIT:      32570  MISS:       7097
cpu0_STLB RFO       ACCESS:       2576  HIT:       2576  MISS:          0
cpu0_STLB PREFETCH  ACCESS:          0  HIT:          0  MISS:          0
cpu0_STLB WRITEBACK ACCESS:          0  HIT:          0  MISS:          0
cpu0_L1D TOTAL     ACCESS:    6613248  HIT:    6185052  MISS:     428196
cpu0_L1D LOAD      ACCESS:    5327665  HIT:    4901884  MISS:     425781
cpu0_L1D RFO       ACCESS:    1278486  HIT:    1278486  MISS:          0
cpu0_L1D PREFETCH  ACCESS:          0  HIT:          0  MISS:          0
cpu0_L1D WRITEBACK ACCESS:          0  HIT:          0  MISS:          0
cpu0_L2C TOTAL     ACCESS:     563223  HIT:     137466  MISS:     425757
cpu0_L2C LOAD      ACCESS:     425781  HIT:         41  MISS:     425740
cpu0_L2C RFO       ACCESS:          0  HIT:          0  MISS:          0
cpu0_L2C PREFETCH  ACCESS:          0  HIT:          0  MISS:          0
cpu0_L2C WRITEBACK ACCESS:     135027  HIT:     135026  MISS:          1
LLC TOTAL     ACCESS:     560951  HIT:     135202  MISS:     425749
LLC LOAD      ACCESS:     425740  HIT:          6  MISS:     425734
LLC RFO       ACCESS:          0  HIT:          0  MISS:          0
LLC PREFETCH  ACCESS:          0  HIT:          0  MISS:          0
LLC WRITEBACK ACCESS:     135195  HIT:     135194  MISS:          1
Heartbeat CPU 0 instructions: 78000004 cycles: 57972563 heartbeat IPC: 0.688889 cumulative IPC: 0.671635 (Simulation time: 1 hr 30 min 38 sec) 

Region of Interest Statistics
cpu0_DTLB TOTAL     ACCESS:    7169283  HIT:    7126156  MISS:      43127
cpu0_DTLB LOAD      ACCESS:    6319888  HIT:    6279358  MISS:      40530
cpu0_DTLB RFO       ACCESS:     849395  HIT:     846798  MISS:       2597
cpu0_DTLB PREFETCH  ACCESS:          0  HIT:          0  MISS:          0
cpu0_DTLB WRITEBACK ACCESS:          0  HIT:          0  MISS:          0
cpu0_ITLB TOTAL     ACCESS:      84323  HIT:      84323  MISS:          0
cpu0_ITLB LOAD      ACCESS:      84323  HIT:      84323  MISS:          0
cpu0_ITLB RFO       ACCESS:          0  HIT:          0  MISS:          0
cpu0_ITLB PREFETCH  ACCESS:          0  HIT:          0  MISS:          0
cpu0_ITLB WRITEBACK ACCESS:          0  HIT:          0  MISS:          0
cpu0_STLB TOTAL     ACCESS:      43127  HIT:      35486  MISS:       7641
cpu0_STLB LOAD      ACCESS:      40530  HIT:      32889  MISS:       7641
cpu0_STLB RFO       ACCESS:       2597  HIT:       2597  MISS:          0
cpu0_STLB PREFETCH  ACCESS:          0  HIT:          0  MISS:          0
cpu0_STLB WRITEBACK ACCESS:          0  HIT:          0  MISS:          0
cpu0_L1D TOTAL     ACCESS:    7122577  HIT:    6661416  MISS:     461161
cpu0_L1D LOAD      ACCESS:    5738089  HIT:    5279568  MISS:     458521
cpu0_L1D RFO       ACCESS:    1376848  HIT:    1376848  MISS:          0
cpu0_L1D PREFETCH  ACCESS:          0  HIT:          0  MISS:          0
cpu0_L1D WRITEBACK ACCESS:          0  HIT:          0  MISS:          0
cpu0_L2C TOTAL     ACCESS:     606579  HIT:     148082  MISS:     458497
cpu0_L2C LOAD      ACCESS:     458521  HIT:         41  MISS:     458480
cpu0_L2C RFO       ACCESS:          0  HIT:          0  MISS:          0
cpu0_L2C PREFETCH  ACCESS:          0  HIT:          0  MISS:          0
cpu0_L2C WRITEBACK ACCESS:     145418  HIT:     145417  MISS:          1
LLC TOTAL     ACCESS:     604138  HIT:     145649  MISS:     458489
LLC LOAD      ACCESS:     458480  HIT:          6  MISS:     458474
LLC RFO       ACCESS:          0  HIT:          0  MISS:          0
LLC PREFETCH  ACCESS:          0  HIT:          0  MISS:          0
LLC WRITEBACK ACCESS:     145642  HIT:     145641  MISS:          1
Heartbeat CPU 0 instructions: 80000004 cycles: 60882305 heartbeat IPC: 0.687346 cumulative IPC: 0.67266 (Simulation time: 1 hr 34 min 15 sec) 

Region of Interest Statistics
cpu0_DTLB TOTAL     ACCESS:    7681639  HIT:    7637965  MISS:      43674
cpu0_DTLB LOAD      ACCESS:    6771769  HIT:    6730692  MISS:      41077
cpu0_DTLB RFO       ACCESS:     909870  HIT:     907273  MISS:       2597
cpu0_DTLB PREFETCH  ACCESS:          0  HIT:          0  MISS:          0
cpu0_DTLB WRITEBACK ACCESS:          0  HIT:          0  MISS:          0
cpu0_ITLB TOTAL     ACCESS:      90311  HIT:      90311  MISS:          0
cpu0_ITLB LOAD      ACCESS:      90311  HIT:      90311  MISS:          0
cpu0_ITLB RFO       ACCESS:          0  HIT:          0  MISS:          0
cpu0_ITLB PREFETCH  ACCESS:          0  HIT:          0  MISS:          0
cpu0_ITLB WRITEBACK ACCESS:          0  HIT:          0  MISS:          0
cpu0_STLB TOTAL     ACCESS:      43674  HIT:      35486  MISS:       8188
cpu0_STLB LOAD      ACCESS:      41077  HIT:      32889  MISS:       8188
cpu0_STLB RFO       ACCESS:       2597  HIT:       2597  MISS:          0
cpu0_STLB PREFETCH  ACCESS:          0  HIT:          0  MISS:          0
cpu0_STLB WRITEBACK ACCESS:          0  HIT:          0  MISS:          0
cpu0_L1D TOTAL     ACCESS:    7632078  HIT:    7137942  MISS:     494136
cpu0_L1D LOAD      ACCESS:    6148713  HIT:    5657455  MISS:     491258
cpu0_L1D RFO       ACCESS:    1475178  HIT:    1475178  MISS:          0
cpu0_L1D PREFETCH  ACCESS:          0  HIT:          0  MISS:          0
cpu0_L1D WRITEBACK ACCESS:          0  HIT:          0  MISS:          0
cpu0_L2C TOTAL     ACCESS:     649924  HIT:     158689  MISS:     491235
cpu0_L2C LOAD      ACCESS:     491258  HIT:         41  MISS:     491217
cpu0_L2C RFO       ACCESS:          0  HIT:          0  MISS:          0
cpu0_L2C PREFETCH  ACCESS:          0  HIT:          0  MISS:          0
cpu0_L2C WRITEBACK ACCESS:     155788  HIT:     155787  MISS:          1
LLC TOTAL     ACCESS:     647382  HIT:     156155  MISS:     491227
LLC LOAD      ACCESS:     491217  HIT:          6  MISS:     491211
LLC RFO       ACCESS:          0  HIT:          0  MISS:          0
LLC PREFETCH  ACCESS:          0  HIT:          0  MISS:          0
LLC WRITEBACK ACCESS:     156148  HIT:     156147  MISS:          1
Heartbeat CPU 0 instructions: 82000002 cycles: 63815714 heartbeat IPC: 0.6818 cumulative IPC: 0.673224 (Simulation time: 1 hr 38 min 5 sec) 

Region of Interest Statistics
cpu0_DTLB TOTAL     ACCESS:    8193727  HIT:    8149475  MISS:      44252
cpu0_DTLB LOAD      ACCESS:    7223401  HIT:    7181749  MISS:      41652
cpu0_DTLB RFO       ACCESS:     970326  HIT:     967726  MISS:       2600
cpu0_DTLB PREFETCH  ACCESS:          0  HIT:          0  MISS:          0
cpu0_DTLB WRITEBACK ACCESS:          0  HIT:          0  MISS:          0
cpu0_ITLB TOTAL     ACCESS:      96318  HIT:      96318  MISS:          0
cpu0_ITLB LOAD      ACCESS:      96318  HIT:      96318  MISS:          0
cpu0_ITLB RFO       ACCESS:          0  HIT:          0  MISS:          0
cpu0_ITLB PREFETCH  ACCESS:          0  HIT:          0  MISS:          0
cpu0_ITLB WRITEBACK ACCESS:          0  HIT:          0  MISS:          0
cpu0_STLB TOTAL     ACCESS:      44252  HIT:      35518  MISS:       8734
cpu0_STLB LOAD      ACCESS:      41652  HIT:      32918  MISS:       8734
cpu0_STLB RFO       ACCESS:       2600  HIT:       2600  MISS:          0
cpu0_STLB PREFETCH  ACCESS:          0  HIT:          0  MISS:          0
cpu0_STLB WRITEBACK ACCESS:          0  HIT:          0  MISS:          0
cpu0_L1D TOTAL     ACCESS:    8140333  HIT:    7613241  MISS:     527092
cpu0_L1D LOAD      ACCESS:    6558091  HIT:    6034096  MISS:     523995
cpu0_L1D RFO       ACCESS:    1573509  HIT:    1573509  MISS:          0
cpu0_L1D PREFETCH  ACCESS:          0  HIT:          0  MISS:          0
cpu0_L1D WRITEBACK ACCESS:          0  HIT:          0  MISS:          0
cpu0_L2C TOTAL     ACCESS:     693261  HIT:     169286  MISS:     523975
cpu0_L2C LOAD      ACCESS:     523995  HIT:         41  MISS:     523954
cpu0_L2C RFO       ACCESS:          0  HIT:          0  MISS:          0
cpu0_L2C PREFETCH  ACCESS:          0  HIT:          0  MISS:          0
cpu0_L2C WRITEBACK ACCESS:     166169  HIT:     166168  MISS:          1
LLC TOTAL     ACCESS:     690352  HIT:     166386  MISS:     523966
LLC LOAD      ACCESS:     523954  HIT:          6  MISS:     523948
LLC RFO       ACCESS:          0  HIT:          0  MISS:          0
LLC PREFETCH  ACCESS:          0  HIT:          0  MISS:          0
LLC WRITEBACK ACCESS:     166378  HIT:     166377  MISS:          1
Heartbeat CPU 0 instructions: 84000000 cycles: 66701347 heartbeat IPC: 0.693088 cumulative IPC: 0.674361 (Simulation time: 1 hr 41 min 59 sec) 

Region of Interest Statistics
cpu0_DTLB TOTAL     ACCESS:    8705848  HIT:    8661027  MISS:      44821
cpu0_DTLB LOAD      ACCESS:    7675084  HIT:    7632866  MISS:      42218
cpu0_DTLB RFO       ACCESS:    1030764  HIT:    1028161  MISS:       2603
cpu0_DTLB PREFETCH  ACCESS:          0  HIT:          0  MISS:          0
cpu0_DTLB WRITEBACK ACCESS:          0  HIT:          0  MISS:          0
cpu0_ITLB TOTAL     ACCESS:     102311  HIT:     102311  MISS:          0
cpu0_ITLB LOAD      ACCESS:     102311  HIT:     102311  MISS:          0
cpu0_ITLB RFO       ACCESS:          0  HIT:          0  MISS:          0
cpu0_ITLB PREFETCH  ACCESS:          0  HIT:          0  MISS:          0
cpu0_ITLB WRITEBACK ACCESS:          0  HIT:          0  MISS:          0
cpu0_STLB TOTAL     ACCESS:      44821  HIT:      35542  MISS:       9279
cpu0_STLB LOAD      ACCESS:      42218  HIT:      32939  MISS:       9279
cpu0_STLB RFO       ACCESS:       2603  HIT:       2603  MISS:          0
cpu0_STLB PREFETCH  ACCESS:          0  HIT:          0  MISS:          0
cpu0_STLB WRITEBACK ACCESS:          0  HIT:          0  MISS:          0
cpu0_L1D TOTAL     ACCESS:    8645665  HIT:    8085635  MISS:     560030
cpu0_L1D LOAD      ACCESS:    6964549  HIT:    6407813  MISS:     556736
cpu0_L1D RFO       ACCESS:    1671838  HIT:    1671838  MISS:          0
cpu0_L1D PREFETCH  ACCESS:          0  HIT:          0  MISS:          0
cpu0_L1D WRITEBACK ACCESS:          0  HIT:          0  MISS:          0
cpu0_L2C TOTAL     ACCESS:     736581  HIT:     179866  MISS:     556715
cpu0_L2C LOAD      ACCESS:     556736  HIT:         44  MISS:     556692
cpu0_L2C RFO       ACCESS:          0  HIT:          0  MISS:          0
cpu0_L2C PREFETCH  ACCESS:          0  HIT:          0  MISS:          0
cpu0_L2C WRITEBACK ACCESS:     176551  HIT:     176550  MISS:          1
LLC TOTAL     ACCESS:     733450  HIT:     176744  MISS:     556706
LLC LOAD      ACCESS:     556692  HIT:          6  MISS:     556686
LLC RFO       ACCESS:          0  HIT:          0  MISS:          0
LLC PREFETCH  ACCESS:          0  HIT:          0  MISS:          0
LLC WRITEBACK ACCESS:     176736  HIT:     176735  MISS:          1
Heartbeat CPU 0 instructions: 86000004 cycles: 69596089 heartbeat IPC: 0.690909 cumulative IPC: 0.67526 (Simulation time: 1 hr 45 min 41 sec) 

Region of Interest Statistics
cpu0_DTLB TOTAL     ACCESS:    9217840  HIT:    9171925  MISS:      45915
cpu0_DTLB LOAD      ACCESS:    8126306  HIT:    8083048  MISS:      43258
cpu0_DTLB RFO       ACCESS:    1091534  HIT:    1088877  MISS:       2657
cpu0_DTLB PREFETCH  ACCESS:          0  HIT:          0  MISS:          0
cpu0_DTLB WRITEBACK ACCESS:          0  HIT:          0  MISS:          0
cpu0_ITLB TOTAL     ACCESS:     108387  HIT:     108387  MISS:          0
cpu0_ITLB LOAD      ACCESS:     108387  HIT:     108387  MISS:          0
cpu0_ITLB RFO       ACCESS:          0  HIT:          0  MISS:          0
cpu0_ITLB PREFETCH  ACCESS:          0  HIT:          0  MISS:          0
cpu0_ITLB WRITEBACK ACCESS:          0  HIT:          0  MISS:          0
cpu0_STLB TOTAL     ACCESS:      45915  HIT:      36080  MISS:       9835
cpu0_STLB LOAD      ACCESS:      43258  HIT:      33423  MISS:       9835
cpu0_STLB RFO       ACCESS:       2657  HIT:       2657  MISS:          0
cpu0_STLB PREFETCH  ACCESS:          0  HIT:          0  MISS:          0
cpu0_STLB WRITEBACK ACCESS:          0  HIT:          0  MISS:          0
cpu0_L1D TOTAL     ACCESS:    9151691  HIT:    8558673  MISS:     593018
cpu0_L1D LOAD      ACCESS:    7371608  HIT:    6782067  MISS:     589541
cpu0_L1D RFO       ACCESS:    1770250  HIT:    1770250  MISS:          0
cpu0_L1D PREFETCH  ACCESS:          0  HIT:          0  MISS:          0
cpu0_L1D WRITEBACK ACCESS:          0  HIT:          0  MISS:          0
cpu0_L2C TOTAL     ACCESS:     779941  HIT:     190420  MISS:     589521
cpu0_L2C LOAD      ACCESS:     589541  HIT:         44  MISS:     589497
cpu0_L2C RFO       ACCESS:          0  HIT:          0  MISS:          0
cpu0_L2C PREFETCH  ACCESS:          0  HIT:          0  MISS:          0
cpu0_L2C WRITEBACK ACCESS:     186923  HIT:     186922  MISS:          1
LLC TOTAL     ACCESS:     776679  HIT:     187167  MISS:     589512
LLC LOAD      ACCESS:     589497  HIT:          6  MISS:     589491
LLC RFO       ACCESS:          0  HIT:          0  MISS:          0
LLC PREFETCH  ACCESS:          0  HIT:          0  MISS:          0
LLC WRITEBACK ACCESS:     187159  HIT:     187158  MISS:          1
Heartbeat CPU 0 instructions: 88000001 cycles: 72479281 heartbeat IPC: 0.693675 cumulative IPC: 0.676204 (Simulation time: 1 hr 49 min 28 sec) 

Region of Interest Statistics
cpu0_DTLB TOTAL     ACCESS:    9729427  HIT:    9682925  MISS:      46502
cpu0_DTLB LOAD      ACCESS:    8576779  HIT:    8532936  MISS:      43843
cpu0_DTLB RFO       ACCESS:    1152648  HIT:    1149989  MISS:       2659
cpu0_DTLB PREFETCH  ACCESS:          0  HIT:          0  MISS:          0
cpu0_DTLB WRITEBACK ACCESS:          0  HIT:          0  MISS:          0
cpu0_ITLB TOTAL     ACCESS:     114402  HIT:     114402  MISS:          0
cpu0_ITLB LOAD      ACCESS:     114402  HIT:     114402  MISS:          0
cpu0_ITLB RFO       ACCESS:          0  HIT:          0  MISS:          0
cpu0_ITLB PREFETCH  ACCESS:          0  HIT:          0  MISS:          0
cpu0_ITLB WRITEBACK ACCESS:          0  HIT:          0  MISS:          0
cpu0_STLB TOTAL     ACCESS:      46502  HIT:      36122  MISS:      10380
cpu0_STLB LOAD      ACCESS:      43843  HIT:      33463  MISS:      10380
cpu0_STLB RFO       ACCESS:       2659  HIT:       2659  MISS:          0
cpu0_STLB PREFETCH  ACCESS:          0  HIT:          0  MISS:          0
cpu0_STLB WRITEBACK ACCESS:          0  HIT:          0  MISS:          0
cpu0_L1D TOTAL     ACCESS:    9657566  HIT:    9031654  MISS:     625912
cpu0_L1D LOAD      ACCESS:    7778609  HIT:    7156333  MISS:     622276
cpu0_L1D RFO       ACCESS:    1868579  HIT:    1868579  MISS:          0
cpu0_L1D PREFETCH  ACCESS:          0  HIT:          0  MISS:          0
cpu0_L1D WRITEBACK ACCESS:          0  HIT:          0  MISS:          0
cpu0_L2C TOTAL     ACCESS:     823231  HIT:     200973  MISS:     622258
cpu0_L2C LOAD      ACCESS:     622276  HIT:         44  MISS:     622232
cpu0_L2C RFO       ACCESS:          0  HIT:          0  MISS:          0
cpu0_L2C PREFETCH  ACCESS:          0  HIT:          0  MISS:          0
cpu0_L2C WRITEBACK ACCESS:     197319  HIT:     197318  MISS:          1
LLC TOTAL     ACCESS:     819772  HIT:     197523  MISS:     622249
LLC LOAD      ACCESS:     622232  HIT:          6  MISS:     622226
LLC RFO       ACCESS:          0  HIT:          0  MISS:          0
LLC PREFETCH  ACCESS:          0  HIT:          0  MISS:          0
LLC WRITEBACK ACCESS:     197515  HIT:     197514  MISS:          1
Heartbeat CPU 0 instructions: 90000004 cycles: 75400655 heartbeat IPC: 0.68461 cumulative IPC: 0.67662 (Simulation time: 1 hr 53 min 10 sec) 

Region of Interest Statistics
cpu0_DTLB TOTAL     ACCESS:   10241713  HIT:   10194575  MISS:      47138
cpu0_DTLB LOAD      ACCESS:    9027837  HIT:    8983362  MISS:      44475
cpu0_DTLB RFO       ACCESS:    1213876  HIT:    1211213  MISS:       2663
cpu0_DTLB PREFETCH  ACCESS:          0  HIT:          0  MISS:          0
cpu0_DTLB WRITEBACK ACCESS:          0  HIT:          0  MISS:          0
cpu0_ITLB TOTAL     ACCESS:     120409  HIT:     120409  MISS:          0
cpu0_ITLB LOAD      ACCESS:     120409  HIT:     120409  MISS:          0
cpu0_ITLB RFO       ACCESS:          0  HIT:          0  MISS:          0
cpu0_ITLB PREFETCH  ACCESS:          0  HIT:          0  MISS:          0
cpu0_ITLB WRITEBACK ACCESS:          0  HIT:          0  MISS:          0
cpu0_STLB TOTAL     ACCESS:      47138  HIT:      36210  MISS:      10928
cpu0_STLB LOAD      ACCESS:      44475  HIT:      33547  MISS:      10928
cpu0_STLB RFO       ACCESS:       2663  HIT:       2663  MISS:          0
cpu0_STLB PREFETCH  ACCESS:          0  HIT:          0  MISS:          0
cpu0_STLB WRITEBACK ACCESS:          0  HIT:          0  MISS:          0
cpu0_L1D TOTAL     ACCESS:   10165753  HIT:    9506918  MISS:     658835
cpu0_L1D LOAD      ACCESS:    8187918  HIT:    7532897  MISS:     655021
cpu0_L1D RFO       ACCESS:    1966909  HIT:    1966909  MISS:          0
cpu0_L1D PREFETCH  ACCESS:          0  HIT:          0  MISS:          0
cpu0_L1D WRITEBACK ACCESS:          0  HIT:          0  MISS:          0
cpu0_L2C TOTAL     ACCESS:     866529  HIT:     211527  MISS:     655002
cpu0_L2C LOAD      ACCESS:     655021  HIT:         47  MISS:     654974
cpu0_L2C RFO       ACCESS:          0  HIT:          0  MISS:          0
cpu0_L2C PREFETCH  ACCESS:          0  HIT:          0  MISS:          0
cpu0_L2C WRITEBACK ACCESS:     207694  HIT:     207692  MISS:          2
LLC TOTAL     ACCESS:     862837  HIT:     207846  MISS:     654991
LLC LOAD      ACCESS:     654974  HIT:          7  MISS:     654967
LLC RFO       ACCESS:          0  HIT:          0  MISS:          0
LLC PREFETCH  ACCESS:          0  HIT:          0  MISS:          0
LLC WRITEBACK ACCESS:     207837  HIT:     207836  MISS:          1
Heartbeat CPU 0 instructions: 92000001 cycles: 78274392 heartbeat IPC: 0.695957 cumulative IPC: 0.677516 (Simulation time: 1 hr 56 min 54 sec) 

Region of Interest Statistics
cpu0_DTLB TOTAL     ACCESS:   10754050  HIT:   10706273  MISS:      47777
cpu0_DTLB LOAD      ACCESS:    9479094  HIT:    9433984  MISS:      45110
cpu0_DTLB RFO       ACCESS:    1274956  HIT:    1272289  MISS:       2667
cpu0_DTLB PREFETCH  ACCESS:          0  HIT:          0  MISS:          0
cpu0_DTLB WRITEBACK ACCESS:          0  HIT:          0  MISS:          0
cpu0_ITLB TOTAL     ACCESS:     126426  HIT:     126426  MISS:          0
cpu0_ITLB LOAD      ACCESS:     126426  HIT:     126426  MISS:          0
cpu0_ITLB RFO       ACCESS:          0  HIT:          0  MISS:          0
cpu0_ITLB PREFETCH  ACCESS:          0  HIT:          0  MISS:          0
cpu0_ITLB WRITEBACK ACCESS:          0  HIT:          0  MISS:          0
cpu0_STLB TOTAL     ACCESS:      47777  HIT:      36306  MISS:      11471
cpu0_STLB LOAD      ACCESS:      45110  HIT:      33639  MISS:      11471
cpu0_STLB RFO       ACCESS:       2667  HIT:       2667  MISS:          0
cpu0_STLB PREFETCH  ACCESS:          0  HIT:          0  MISS:          0
cpu0_STLB WRITEBACK ACCESS:          0  HIT:          0  MISS:          0
cpu0_L1D TOTAL     ACCESS:   10675469  HIT:    9983707  MISS:     691762
cpu0_L1D LOAD      ACCESS:    8598762  HIT:    7910985  MISS:     687777
cpu0_L1D RFO       ACCESS:    2065238  HIT:    2065238  MISS:          0
cpu0_L1D PREFETCH  ACCESS:          0  HIT:          0  MISS:          0
cpu0_L1D WRITEBACK ACCESS:          0  HIT:          0  MISS:          0
cpu0_L2C TOTAL     ACCESS:     909854  HIT:     222115  MISS:     687739
cpu0_L2C LOAD      ACCESS:     687777  HIT:         66  MISS:     687711
cpu0_L2C RFO       ACCESS:          0  HIT:          0  MISS:          0
cpu0_L2C PREFETCH  ACCESS:          0  HIT:          0  MISS:          0
cpu0_L2C WRITEBACK ACCESS:     218092  HIT:     218090  MISS:          2
LLC TOTAL     ACCESS:     906114  HIT:     218387  MISS:     687727
LLC LOAD      ACCESS:     687711  HIT:          9  MISS:     687702
LLC RFO       ACCESS:          0  HIT:          0  MISS:          0
LLC PREFETCH  ACCESS:          0  HIT:          0  MISS:          0
LLC WRITEBACK ACCESS:     218377  HIT:     218375  MISS:          2
Heartbeat CPU 0 instructions: 94000000 cycles: 81159026 heartbeat IPC: 0.693328 cumulative IPC: 0.678219 (Simulation time: 2 hr 0 min 24 sec) 

Region of Interest Statistics
cpu0_DTLB TOTAL     ACCESS:   11266068  HIT:   11217655  MISS:      48413
cpu0_DTLB LOAD      ACCESS:    9929914  HIT:    9884174  MISS:      45740
cpu0_DTLB RFO       ACCESS:    1336154  HIT:    1333481  MISS:       2673
cpu0_DTLB PREFETCH  ACCESS:          0  HIT:          0  MISS:          0
cpu0_DTLB WRITEBACK ACCESS:          0  HIT:          0  MISS:          0
cpu0_ITLB TOTAL     ACCESS:     132490  HIT:     132490  MISS:          0
cpu0_ITLB LOAD      ACCESS:     132490  HIT:     132490  MISS:          0
cpu0_ITLB RFO       ACCESS:          0  HIT:          0  MISS:          0
cpu0_ITLB PREFETCH  ACCESS:          0  HIT:          0  MISS:          0
cpu0_ITLB WRITEBACK ACCESS:          0  HIT:          0  MISS:          0
cpu0_STLB TOTAL     ACCESS:      48413  HIT:      36396  MISS:      12017
cpu0_STLB LOAD      ACCESS:      45740  HIT:      33723  MISS:      12017
cpu0_STLB RFO       ACCESS:       2673  HIT:       2673  MISS:          0
cpu0_STLB PREFETCH  ACCESS:          0  HIT:          0  MISS:          0
cpu0_STLB WRITEBACK ACCESS:          0  HIT:          0  MISS:          0
cpu0_L1D TOTAL     ACCESS:   11185478  HIT:   10460791  MISS:     724687
cpu0_L1D LOAD      ACCESS:    9009860  HIT:    8289334  MISS:     720526
cpu0_L1D RFO       ACCESS:    2163603  HIT:    2163603  MISS:          0
cpu0_L1D PREFETCH  ACCESS:          0  HIT:          0  MISS:          0
cpu0_L1D WRITEBACK ACCESS:          0  HIT:          0  MISS:          0
cpu0_L2C TOTAL     ACCESS:     953152  HIT:     232667  MISS:     720485
cpu0_L2C LOAD      ACCESS:     720526  HIT:         70  MISS:     720456
cpu0_L2C RFO       ACCESS:          0  HIT:          0  MISS:          0
cpu0_L2C PREFETCH  ACCESS:          0  HIT:          0  MISS:          0
cpu0_L2C WRITEBACK ACCESS:     228465  HIT:     228463  MISS:          2
LLC TOTAL     ACCESS:     949107  HIT:     228636  MISS:     720471
LLC LOAD      ACCESS:     720456  HIT:         11  MISS:     720445
LLC RFO       ACCESS:          0  HIT:          0  MISS:          0
LLC PREFETCH  ACCESS:          0  HIT:          0  MISS:          0
LLC WRITEBACK ACCESS:     228624  HIT:     228622  MISS:          2
Heartbeat CPU 0 instructions: 96000002 cycles: 84030911 heartbeat IPC: 0.696407 cumulative IPC: 0.67899 (Simulation time: 2 hr 3 min 51 sec) 

Region of Interest Statistics
cpu0_DTLB TOTAL     ACCESS:   11777707  HIT:   11728692  MISS:      49015
cpu0_DTLB LOAD      ACCESS:   10380445  HIT:   10334106  MISS:      46339
cpu0_DTLB RFO       ACCESS:    1397262  HIT:    1394586  MISS:       2676
cpu0_DTLB PREFETCH  ACCESS:          0  HIT:          0  MISS:          0
cpu0_DTLB WRITEBACK ACCESS:          0  HIT:          0  MISS:          0
cpu0_ITLB TOTAL     ACCESS:     138487  HIT:     138487  MISS:          0
cpu0_ITLB LOAD      ACCESS:     138487  HIT:     138487  MISS:          0
cpu0_ITLB RFO       ACCESS:          0  HIT:          0  MISS:          0
cpu0_ITLB PREFETCH  ACCESS:          0  HIT:          0  MISS:          0
cpu0_ITLB WRITEBACK ACCESS:          0  HIT:          0  MISS:          0
cpu0_STLB TOTAL     ACCESS:      49015  HIT:      36455  MISS:      12560
cpu0_STLB LOAD      ACCESS:      46339  HIT:      33779  MISS:      12560
cpu0_STLB RFO       ACCESS:       2676  HIT:       2676  MISS:          0
cpu0_STLB PREFETCH  ACCESS:          0  HIT:          0  MISS:          0
cpu0_STLB WRITEBACK ACCESS:          0  HIT:          0  MISS:          0
cpu0_L1D TOTAL     ACCESS:   11694980  HIT:   10937380  MISS:     757600
cpu0_L1D LOAD      ACCESS:    9420490  HIT:    8667228  MISS:     753262
cpu0_L1D RFO       ACCESS:    2261932  HIT:    2261932  MISS:          0
cpu0_L1D PREFETCH  ACCESS:          0  HIT:          0  MISS:          0
cpu0_L1D WRITEBACK ACCESS:          0  HIT:          0  MISS:          0
cpu0_L2C TOTAL     ACCESS:     996440  HIT:     243217  MISS:     753223
cpu0_L2C LOAD      ACCESS:     753263  HIT:         70  MISS:     753193
cpu0_L2C RFO       ACCESS:          0  HIT:          0  MISS:          0
cpu0_L2C PREFETCH  ACCESS:          0  HIT:          0  MISS:          0
cpu0_L2C WRITEBACK ACCESS:     238839  HIT:     238837  MISS:          2
LLC TOTAL     ACCESS:     992226  HIT:     239017  MISS:     753209
LLC LOAD      ACCESS:     753193  HIT:         11  MISS:     753182
LLC RFO       ACCESS:          0  HIT:          0  MISS:          0
LLC PREFETCH  ACCESS:          0  HIT:          0  MISS:          0
LLC WRITEBACK ACCESS:     239005  HIT:     239003  MISS:          2
Heartbeat CPU 0 instructions: 98000001 cycles: 86936927 heartbeat IPC: 0.688227 cumulative IPC: 0.67937 (Simulation time: 2 hr 7 min 35 sec) 

Region of Interest Statistics
cpu0_DTLB TOTAL     ACCESS:   12289969  HIT:   12240326  MISS:      49643
cpu0_DTLB LOAD      ACCESS:   10831472  HIT:   10784510  MISS:      46962
cpu0_DTLB RFO       ACCESS:    1458497  HIT:    1455816  MISS:       2681
cpu0_DTLB PREFETCH  ACCESS:          0  HIT:          0  MISS:          0
cpu0_DTLB WRITEBACK ACCESS:          0  HIT:          0  MISS:          0
cpu0_ITLB TOTAL     ACCESS:     144499  HIT:     144499  MISS:          0
cpu0_ITLB LOAD      ACCESS:     144499  HIT:     144499  MISS:          0
cpu0_ITLB RFO       ACCESS:          0  HIT:          0  MISS:          0
cpu0_ITLB PREFETCH  ACCESS:          0  HIT:          0  MISS:          0
cpu0_ITLB WRITEBACK ACCESS:          0  HIT:          0  MISS:          0
cpu0_STLB TOTAL     ACCESS:      49643  HIT:      36537  MISS:      13106
cpu0_STLB LOAD      ACCESS:      46962  HIT:      33856  MISS:      13106
cpu0_STLB RFO       ACCESS:       2681  HIT:       2681  MISS:          0
cpu0_STLB PREFETCH  ACCESS:          0  HIT:          0  MISS:          0
cpu0_STLB WRITEBACK ACCESS:          0  HIT:          0  MISS:          0
cpu0_L1D TOTAL     ACCESS:   12204384  HIT:   11413891  MISS:     790493
cpu0_L1D LOAD      ACCESS:    9831019  HIT:    9045023  MISS:     785996
cpu0_L1D RFO       ACCESS:    2360261  HIT:    2360261  MISS:          0
cpu0_L1D PREFETCH  ACCESS:          0  HIT:          0  MISS:          0
cpu0_L1D WRITEBACK ACCESS:          0  HIT:          0  MISS:          0
cpu0_L2C TOTAL     ACCESS:    1039734  HIT:     253777  MISS:     785957
cpu0_L2C LOAD      ACCESS:     785996  HIT:         70  MISS:     785926
cpu0_L2C RFO       ACCESS:          0  HIT:          0  MISS:          0
cpu0_L2C PREFETCH  ACCESS:          0  HIT:          0  MISS:          0
cpu0_L2C WRITEBACK ACCESS:     249241  HIT:     249239  MISS:          2
LLC TOTAL     ACCESS:    1035363  HIT:     249420  MISS:     785943
LLC LOAD      ACCESS:     785926  HIT:         11  MISS:     785915
LLC RFO       ACCESS:          0  HIT:          0  MISS:          0
LLC PREFETCH  ACCESS:          0  HIT:          0  MISS:          0
LLC WRITEBACK ACCESS:     249408  HIT:     249406  MISS:          2
Heartbeat CPU 0 instructions: 100000002 cycles: 89815635 heartbeat IPC: 0.694756 cumulative IPC: 0.679973 (Simulation time: 2 hr 11 min 14 sec) 

Region of Interest Statistics
cpu0_DTLB TOTAL     ACCESS:   12801897  HIT:   12751566  MISS:      50331
cpu0_DTLB LOAD      ACCESS:   11282347  HIT:   11234704  MISS:      47643
cpu0_DTLB RFO       ACCESS:    1519550  HIT:    1516862  MISS:       2688
cpu0_DTLB PREFETCH  ACCESS:          0  HIT:          0  MISS:          0
cpu0_DTLB WRITEBACK ACCESS:          0  HIT:          0  MISS:          0
cpu0_ITLB TOTAL     ACCESS:     150518  HIT:     150518  MISS:          0
cpu0_ITLB LOAD      ACCESS:     150518  HIT:     150518  MISS:          0
cpu0_ITLB RFO       ACCESS:          0  HIT:          0  MISS:          0
cpu0_ITLB PREFETCH  ACCESS:          0  HIT:          0  MISS:          0
cpu0_ITLB WRITEBACK ACCESS:          0  HIT:          0  MISS:          0
cpu0_STLB TOTAL     ACCESS:      50331  HIT:      36682  MISS:      13649
cpu0_STLB LOAD      ACCESS:      47643  HIT:      33994  MISS:      13649
cpu0_STLB RFO       ACCESS:       2688  HIT:       2688  MISS:          0
cpu0_STLB PREFETCH  ACCESS:          0  HIT:          0  MISS:          0
cpu0_STLB WRITEBACK ACCESS:          0  HIT:          0  MISS:          0
cpu0_L1D TOTAL     ACCESS:   12710863  HIT:   11887440  MISS:     823423
cpu0_L1D LOAD      ACCESS:   10238623  HIT:    9419876  MISS:     818747
cpu0_L1D RFO       ACCESS:    2458593  HIT:    2458593  MISS:          0
cpu0_L1D PREFETCH  ACCESS:          0  HIT:          0  MISS:          0
cpu0_L1D WRITEBACK ACCESS:          0  HIT:          0  MISS:          0
cpu0_L2C TOTAL     ACCESS:    1083047  HIT:     264349  MISS:     818698
cpu0_L2C LOAD      ACCESS:     818747  HIT:         81  MISS:     818666
cpu0_L2C RFO       ACCESS:          0  HIT:          0  MISS:          0
cpu0_L2C PREFETCH  ACCESS:          0  HIT:          0  MISS:          0
cpu0_L2C WRITEBACK ACCESS:     259624  HIT:     259622  MISS:          2
LLC TOTAL     ACCESS:    1078434  HIT:     259750  MISS:     818684
LLC LOAD      ACCESS:     818666  HIT:         11  MISS:     818655
LLC RFO       ACCESS:          0  HIT:          0  MISS:          0
LLC PREFETCH  ACCESS:          0  HIT:          0  MISS:          0
LLC WRITEBACK ACCESS:     259738  HIT:     259736  MISS:          2
Heartbeat CPU 0 instructions: 102000001 cycles: 92708760 heartbeat IPC: 0.691294 cumulative IPC: 0.680401 (Simulation time: 2 hr 14 min 47 sec) 

Region of Interest Statistics
cpu0_DTLB TOTAL     ACCESS:   13313741  HIT:   13262849  MISS:      50892
cpu0_DTLB LOAD      ACCESS:   11733086  HIT:   11684882  MISS:      48204
cpu0_DTLB RFO       ACCESS:    1580655  HIT:    1577967  MISS:       2688
cpu0_DTLB PREFETCH  ACCESS:          0  HIT:          0  MISS:          0
cpu0_DTLB WRITEBACK ACCESS:          0  HIT:          0  MISS:          0
cpu0_ITLB TOTAL     ACCESS:     156601  HIT:     156601  MISS:          0
cpu0_ITLB LOAD      ACCESS:     156601  HIT:     156601  MISS:          0
cpu0_ITLB RFO       ACCESS:          0  HIT:          0  MISS:          0
cpu0_ITLB PREFETCH  ACCESS:          0  HIT:          0  MISS:          0
cpu0_ITLB WRITEBACK ACCESS:          0  HIT:          0  MISS:          0
cpu0_STLB TOTAL     ACCESS:      50892  HIT:      36682  MISS:      14210
cpu0_STLB LOAD      ACCESS:      48204  HIT:      33994  MISS:      14210
cpu0_STLB RFO       ACCESS:       2688  HIT:       2688  MISS:          0
cpu0_STLB PREFETCH  ACCESS:          0  HIT:          0  MISS:          0
cpu0_STLB WRITEBACK ACCESS:          0  HIT:          0  MISS:          0
cpu0_L1D TOTAL     ACCESS:   13217264  HIT:   12360837  MISS:     856427
cpu0_L1D LOAD      ACCESS:   10646054  HIT:    9794472  MISS:     851582
cpu0_L1D RFO       ACCESS:    2557003  HIT:    2557003  MISS:          0
cpu0_L1D PREFETCH  ACCESS:          0  HIT:          0  MISS:          0
cpu0_L1D WRITEBACK ACCESS:          0  HIT:          0  MISS:          0
cpu0_L2C TOTAL     ACCESS:    1126451  HIT:     274934  MISS:     851517
cpu0_L2C LOAD      ACCESS:     851582  HIT:         99  MISS:     851483
cpu0_L2C RFO       ACCESS:          0  HIT:          0  MISS:          0
cpu0_L2C PREFETCH  ACCESS:          0  HIT:          0  MISS:          0
cpu0_L2C WRITEBACK ACCESS:     270024  HIT:     270022  MISS:          2
LLC TOTAL     ACCESS:    1121569  HIT:     270066  MISS:     851503
LLC LOAD      ACCESS:     851483  HIT:         11  MISS:     851472
LLC RFO       ACCESS:          0  HIT:          0  MISS:          0
LLC PREFETCH  ACCESS:          0  HIT:          0  MISS:          0
LLC WRITEBACK ACCESS:     270054  HIT:     270052  MISS:          2
Heartbeat CPU 0 instructions: 104000001 cycles: 95572228 heartbeat IPC: 0.698454 cumulative IPC: 0.681053 (Simulation time: 2 hr 18 min 26 sec) 

Region of Interest Statistics
cpu0_DTLB TOTAL     ACCESS:   13828222  HIT:   13776786  MISS:      51436
cpu0_DTLB LOAD      ACCESS:   12187207  HIT:   12138459  MISS:      48748
cpu0_DTLB RFO       ACCESS:    1641015  HIT:    1638327  MISS:       2688
cpu0_DTLB PREFETCH  ACCESS:          0  HIT:          0  MISS:          0
cpu0_DTLB WRITEBACK ACCESS:          0  HIT:          0  MISS:          0
cpu0_ITLB TOTAL     ACCESS:     162609  HIT:     162609  MISS:          0
cpu0_ITLB LOAD      ACCESS:     162609  HIT:     162609  MISS:          0
cpu0_ITLB RFO       ACCESS:          0  HIT:          0  MISS:          0
cpu0_ITLB PREFETCH  ACCESS:          0  HIT:          0  MISS:          0
cpu0_ITLB WRITEBACK ACCESS:          0  HIT:          0  MISS:          0
cpu0_STLB TOTAL     ACCESS:      51436  HIT:      36682  MISS:      14754
cpu0_STLB LOAD      ACCESS:      48748  HIT:      33994  MISS:      14754
cpu0_STLB RFO       ACCESS:       2688  HIT:       2688  MISS:          0
cpu0_STLB PREFETCH  ACCESS:          0  HIT:          0  MISS:          0
cpu0_STLB WRITEBACK ACCESS:          0  HIT:          0  MISS:          0
cpu0_L1D TOTAL     ACCESS:   13724200  HIT:   12834869  MISS:     889331
cpu0_L1D LOAD      ACCESS:   11054115  HIT:   10169796  MISS:     884319
cpu0_L1D RFO       ACCESS:    2655334  HIT:    2655334  MISS:          0
cpu0_L1D PREFETCH  ACCESS:          0  HIT:          0  MISS:          0
cpu0_L1D WRITEBACK ACCESS:          0  HIT:          0  MISS:          0
cpu0_L2C TOTAL     ACCESS:    1169735  HIT:     285481  MISS:     884254
cpu0_L2C LOAD      ACCESS:     884319  HIT:         99  MISS:     884220
cpu0_L2C RFO       ACCESS:          0  HIT:          0  MISS:          0
cpu0_L2C PREFETCH  ACCESS:          0  HIT:          0  MISS:          0
cpu0_L2C WRITEBACK ACCESS:     280404  HIT:     280402  MISS:          2
LLC TOTAL     ACCESS:    1164745  HIT:     280505  MISS:     884240
LLC LOAD      ACCESS:     884220  HIT:         11  MISS:     884209
LLC RFO       ACCESS:          0  HIT:          0  MISS:          0
LLC PREFETCH  ACCESS:          0  HIT:          0  MISS:          0
LLC WRITEBACK ACCESS:     280493  HIT:     280491  MISS:          2
Heartbeat CPU 0 instructions: 106000004 cycles: 98468631 heartbeat IPC: 0.690513 cumulative IPC: 0.681386 (Simulation time: 2 hr 21 min 59 sec) 

Region of Interest Statistics
cpu0_DTLB TOTAL     ACCESS:   14342627  HIT:   14290648  MISS:      51979
cpu0_DTLB LOAD      ACCESS:   12641293  HIT:   12592002  MISS:      49291
cpu0_DTLB RFO       ACCESS:    1701334  HIT:    1698646  MISS:       2688
cpu0_DTLB PREFETCH  ACCESS:          0  HIT:          0  MISS:          0
cpu0_DTLB WRITEBACK ACCESS:          0  HIT:          0  MISS:          0
cpu0_ITLB TOTAL     ACCESS:     168634  HIT:     168634  MISS:          0
cpu0_ITLB LOAD      ACCESS:     168634  HIT:     168634  MISS:          0
cpu0_ITLB RFO       ACCESS:          0  HIT:          0  MISS:          0
cpu0_ITLB PREFETCH  ACCESS:          0  HIT:          0  MISS:          0
cpu0_ITLB WRITEBACK ACCESS:          0  HIT:          0  MISS:          0
cpu0_STLB TOTAL     ACCESS:      51979  HIT:      36682  MISS:      15297
cpu0_STLB LOAD      ACCESS:      49291  HIT:      33994  MISS:      15297
cpu0_STLB RFO       ACCESS:       2688  HIT:       2688  MISS:          0
cpu0_STLB PREFETCH  ACCESS:          0  HIT:          0  MISS:          0
cpu0_STLB WRITEBACK ACCESS:          0  HIT:          0  MISS:          0
cpu0_L1D TOTAL     ACCESS:   14232751  HIT:   13310521  MISS:     922230
cpu0_L1D LOAD      ACCESS:   11463793  HIT:   10546736  MISS:     917057
cpu0_L1D RFO       ACCESS:    2753664  HIT:    2753664  MISS:          0
cpu0_L1D PREFETCH  ACCESS:          0  HIT:          0  MISS:          0
cpu0_L1D WRITEBACK ACCESS:          0  HIT:          0  MISS:          0
cpu0_L2C TOTAL     ACCESS:    1212997  HIT:     296001  MISS:     916996
cpu0_L2C LOAD      ACCESS:     917057  HIT:         99  MISS:     916958
cpu0_L2C RFO       ACCESS:          0  HIT:          0  MISS:          0
cpu0_L2C PREFETCH  ACCESS:          0  HIT:          0  MISS:          0
cpu0_L2C WRITEBACK ACCESS:     290767  HIT:     290765  MISS:          2
LLC TOTAL     ACCESS:    1208077  HIT:     291095  MISS:     916982
LLC LOAD      ACCESS:     916958  HIT:         11  MISS:     916947
LLC RFO       ACCESS:          0  HIT:          0  MISS:          0
LLC PREFETCH  ACCESS:          0  HIT:          0  MISS:          0
LLC WRITEBACK ACCESS:     291083  HIT:     291081  MISS:          2
Heartbeat CPU 0 instructions: 108000002 cycles: 101377819 heartbeat IPC: 0.687476 cumulative IPC: 0.681595 (Simulation time: 2 hr 25 min 34 sec) 

Region of Interest Statistics
cpu0_DTLB TOTAL     ACCESS:   14857069  HIT:   14804544  MISS:      52525
cpu0_DTLB LOAD      ACCESS:   13095393  HIT:   13045556  MISS:      49837
cpu0_DTLB RFO       ACCESS:    1761676  HIT:    1758988  MISS:       2688
cpu0_DTLB PREFETCH  ACCESS:          0  HIT:          0  MISS:          0
cpu0_DTLB WRITEBACK ACCESS:          0  HIT:          0  MISS:          0
cpu0_ITLB TOTAL     ACCESS:     174706  HIT:     174706  MISS:          0
cpu0_ITLB LOAD      ACCESS:     174706  HIT:     174706  MISS:          0
cpu0_ITLB RFO       ACCESS:          0  HIT:          0  MISS:          0
cpu0_ITLB PREFETCH  ACCESS:          0  HIT:          0  MISS:          0
cpu0_ITLB WRITEBACK ACCESS:          0  HIT:          0  MISS:          0
cpu0_STLB TOTAL     ACCESS:      52525  HIT:      36682  MISS:      15843
cpu0_STLB LOAD      ACCESS:      49837  HIT:      33994  MISS:      15843
cpu0_STLB RFO       ACCESS:       2688  HIT:       2688  MISS:          0
cpu0_STLB PREFETCH  ACCESS:          0  HIT:          0  MISS:          0
cpu0_STLB WRITEBACK ACCESS:          0  HIT:          0  MISS:          0
cpu0_L1D TOTAL     ACCESS:   14743508  HIT:   13788394  MISS:     955114
cpu0_L1D LOAD      ACCESS:   11875640  HIT:   10925845  MISS:     949795
cpu0_L1D RFO       ACCESS:    2852028  HIT:    2852028  MISS:          0
cpu0_L1D PREFETCH  ACCESS:          0  HIT:          0  MISS:          0
cpu0_L1D WRITEBACK ACCESS:          0  HIT:          0  MISS:          0
cpu0_L2C TOTAL     ACCESS:    1256275  HIT:     306540  MISS:     949735
cpu0_L2C LOAD      ACCESS:     949795  HIT:         99  MISS:     949696
cpu0_L2C RFO       ACCESS:          0  HIT:          0  MISS:          0
cpu0_L2C PREFETCH  ACCESS:          0  HIT:          0  MISS:          0
cpu0_L2C WRITEBACK ACCESS:     301161  HIT:     301159  MISS:          2
LLC TOTAL     ACCESS:    1251144  HIT:     301423  MISS:     949721
LLC LOAD      ACCESS:     949696  HIT:         11  MISS:     949685
LLC RFO       ACCESS:          0  HIT:          0  MISS:          0
LLC PREFETCH  ACCESS:          0  HIT:          0  MISS:          0
LLC WRITEBACK ACCESS:     301411  HIT:     301409  MISS:          2
Heartbeat CPU 0 instructions: 110000004 cycles: 104271769 heartbeat IPC: 0.691098 cumulative IPC: 0.681907 (Simulation time: 2 hr 29 min 19 sec) 

Region of Interest Statistics
cpu0_DTLB TOTAL     ACCESS:   15371198  HIT:   15318129  MISS:      53069
cpu0_DTLB LOAD      ACCESS:   13549177  HIT:   13498796  MISS:      50381
cpu0_DTLB RFO       ACCESS:    1822021  HIT:    1819333  MISS:       2688
cpu0_DTLB PREFETCH  ACCESS:          0  HIT:          0  MISS:          0
cpu0_DTLB WRITEBACK ACCESS:          0  HIT:          0  MISS:          0
cpu0_ITLB TOTAL     ACCESS:     180726  HIT:     180726  MISS:          0
cpu0_ITLB LOAD      ACCESS:     180726  HIT:     180726  MISS:          0
cpu0_ITLB RFO       ACCESS:          0  HIT:          0  MISS:          0
cpu0_ITLB PREFETCH  ACCESS:          0  HIT:          0  MISS:          0
cpu0_ITLB WRITEBACK ACCESS:          0  HIT:          0  MISS:          0
cpu0_STLB TOTAL     ACCESS:      53069  HIT:      36682  MISS:      16387
cpu0_STLB LOAD      ACCESS:      50381  HIT:      33994  MISS:      16387
cpu0_STLB RFO       ACCESS:       2688  HIT:       2688  MISS:          0
cpu0_STLB PREFETCH  ACCESS:          0  HIT:          0  MISS:          0
cpu0_STLB WRITEBACK ACCESS:          0  HIT:          0  MISS:          0
cpu0_L1D TOTAL     ACCESS:   15254703  HIT:   14266690  MISS:     988013
cpu0_L1D LOAD      ACCESS:   12287961  HIT:   11305430  MISS:     982531
cpu0_L1D RFO       ACCESS:    2950358  HIT:    2950358  MISS:          0
cpu0_L1D PREFETCH  ACCESS:          0  HIT:          0  MISS:          0
cpu0_L1D WRITEBACK ACCESS:          0  HIT:          0  MISS:          0
cpu0_L2C TOTAL     ACCESS:    1299571  HIT:     317099  MISS:     982472
cpu0_L2C LOAD      ACCESS:     982531  HIT:         99  MISS:     982432
cpu0_L2C RFO       ACCESS:          0  HIT:          0  MISS:          0
cpu0_L2C PREFETCH  ACCESS:          0  HIT:          0  MISS:          0
cpu0_L2C WRITEBACK ACCESS:     311558  HIT:     311556  MISS:          2
LLC TOTAL     ACCESS:    1294155  HIT:     311697  MISS:     982458
LLC LOAD      ACCESS:     982432  HIT:         11  MISS:     982421
LLC RFO       ACCESS:          0  HIT:          0  MISS:          0
LLC PREFETCH  ACCESS:          0  HIT:          0  MISS:          0
LLC WRITEBACK ACCESS:     311685  HIT:     311683  MISS:          2
Heartbeat CPU 0 instructions: 112000000 cycles: 107155323 heartbeat IPC: 0.693587 cumulative IPC: 0.682278 (Simulation time: 2 hr 33 min 0 sec) 

Region of Interest Statistics
cpu0_DTLB TOTAL     ACCESS:   15885503  HIT:   15831891  MISS:      53612
cpu0_DTLB LOAD      ACCESS:   14003127  HIT:   13952203  MISS:      50924
cpu0_DTLB RFO       ACCESS:    1882376  HIT:    1879688  MISS:       2688
cpu0_DTLB PREFETCH  ACCESS:          0  HIT:          0  MISS:          0
cpu0_DTLB WRITEBACK ACCESS:          0  HIT:          0  MISS:          0
cpu0_ITLB TOTAL     ACCESS:     186745  HIT:     186745  MISS:          0
cpu0_ITLB LOAD      ACCESS:     186745  HIT:     186745  MISS:          0
cpu0_ITLB RFO       ACCESS:          0  HIT:          0  MISS:          0
cpu0_ITLB PREFETCH  ACCESS:          0  HIT:          0  MISS:          0
cpu0_ITLB WRITEBACK ACCESS:          0  HIT:          0  MISS:          0
cpu0_STLB TOTAL     ACCESS:      53612  HIT:      36682  MISS:      16930
cpu0_STLB LOAD      ACCESS:      50924  HIT:      33994  MISS:      16930
cpu0_STLB RFO       ACCESS:       2688  HIT:       2688  MISS:          0
cpu0_STLB PREFETCH  ACCESS:          0  HIT:          0  MISS:          0
cpu0_STLB WRITEBACK ACCESS:          0  HIT:          0  MISS:          0
cpu0_L1D TOTAL     ACCESS:   15765472  HIT:   14744569  MISS:    1020903
cpu0_L1D LOAD      ACCESS:   12699858  HIT:   11684590  MISS:    1015268
cpu0_L1D RFO       ACCESS:    3048687  HIT:    3048687  MISS:          0
cpu0_L1D PREFETCH  ACCESS:          0  HIT:          0  MISS:          0
cpu0_L1D WRITEBACK ACCESS:          0  HIT:          0  MISS:          0
cpu0_L2C TOTAL     ACCESS:    1342851  HIT:     327642  MISS:    1015209
cpu0_L2C LOAD      ACCESS:    1015268  HIT:         99  MISS:    1015169
cpu0_L2C RFO       ACCESS:          0  HIT:          0  MISS:          0
cpu0_L2C PREFETCH  ACCESS:          0  HIT:          0  MISS:          0
cpu0_L2C WRITEBACK ACCESS:     321948  HIT:     321946  MISS:          2
LLC TOTAL     ACCESS:    1337407  HIT:     322212  MISS:    1015195
LLC LOAD      ACCESS:    1015169  HIT:         11  MISS:    1015158
LLC RFO       ACCESS:          0  HIT:          0  MISS:          0
LLC PREFETCH  ACCESS:          0  HIT:          0  MISS:          0
LLC WRITEBACK ACCESS:     322200  HIT:     322198  MISS:          2
Heartbeat CPU 0 instructions: 114000003 cycles: 110030643 heartbeat IPC: 0.695576 cumulative IPC: 0.682686 (Simulation time: 2 hr 36 min 46 sec) 

Region of Interest Statistics
cpu0_DTLB TOTAL     ACCESS:   16399994  HIT:   16345837  MISS:      54157
cpu0_DTLB LOAD      ACCESS:   14457270  HIT:   14405801  MISS:      51469
cpu0_DTLB RFO       ACCESS:    1942724  HIT:    1940036  MISS:       2688
cpu0_DTLB PREFETCH  ACCESS:          0  HIT:          0  MISS:          0
cpu0_DTLB WRITEBACK ACCESS:          0  HIT:          0  MISS:          0
cpu0_ITLB TOTAL     ACCESS:     192763  HIT:     192763  MISS:          0
cpu0_ITLB LOAD      ACCESS:     192763  HIT:     192763  MISS:          0
cpu0_ITLB RFO       ACCESS:          0  HIT:          0  MISS:          0
cpu0_ITLB PREFETCH  ACCESS:          0  HIT:          0  MISS:          0
cpu0_ITLB WRITEBACK ACCESS:          0  HIT:          0  MISS:          0
cpu0_STLB TOTAL     ACCESS:      54157  HIT:      36682  MISS:      17475
cpu0_STLB LOAD      ACCESS:      51469  HIT:      33994  MISS:      17475
cpu0_STLB RFO       ACCESS:       2688  HIT:       2688  MISS:          0
cpu0_STLB PREFETCH  ACCESS:          0  HIT:          0  MISS:          0
cpu0_STLB WRITEBACK ACCESS:          0  HIT:          0  MISS:          0
cpu0_L1D TOTAL     ACCESS:   16276628  HIT:   15222808  MISS:    1053820
cpu0_L1D LOAD      ACCESS:   13112138  HIT:   12064132  MISS:    1048006
cpu0_L1D RFO       ACCESS:    3147018  HIT:    3147018  MISS:          0
cpu0_L1D PREFETCH  ACCESS:          0  HIT:          0  MISS:          0
cpu0_L1D WRITEBACK ACCESS:          0  HIT:          0  MISS:          0
cpu0_L2C TOTAL     ACCESS:    1386116  HIT:     338165  MISS:    1047951
cpu0_L2C LOAD      ACCESS:    1048006  HIT:         99  MISS:    1047907
cpu0_L2C RFO       ACCESS:          0  HIT:          0  MISS:          0
cpu0_L2C PREFETCH  ACCESS:          0  HIT:          0  MISS:          0
cpu0_L2C WRITEBACK ACCESS:     332296  HIT:     332294  MISS:          2
LLC TOTAL     ACCESS:    1380493  HIT:     332557  MISS:    1047936
LLC LOAD      ACCESS:    1047907  HIT:         11  MISS:    1047896
LLC RFO       ACCESS:          0  HIT:          0  MISS:          0
LLC PREFETCH  ACCESS:          0  HIT:          0  MISS:          0
LLC WRITEBACK ACCESS:     332544  HIT:     332542  MISS:          2
Heartbeat CPU 0 instructions: 116000001 cycles: 112953272 heartbeat IPC: 0.684315 cumulative IPC: 0.682735 (Simulation time: 2 hr 40 min 38 sec) 

Region of Interest Statistics
cpu0_DTLB TOTAL     ACCESS:   16914325  HIT:   16859622  MISS:      54703
cpu0_DTLB LOAD      ACCESS:   14911299  HIT:   14859284  MISS:      52015
cpu0_DTLB RFO       ACCESS:    2003026  HIT:    2000338  MISS:       2688
[...]
LLC PREFETCH  ACCESS:          0  HIT:          0  MISS:          0
LLC WRITEBACK ACCESS:    8180820  HIT:    8143745  MISS:      37075
Heartbeat CPU 0 instructions: 1550000004 cycles: 2287127418 heartbeat IPC: 0.562548 cumulative IPC: 0.660547 (Simulation time: 25 hr 58 min 1 sec) 

Region of Interest Statistics
cpu0_DTLB TOTAL     ACCESS:  411808956  HIT:  410063766  MISS:    1745190
cpu0_DTLB LOAD      ACCESS:  362387169  HIT:  360746953  MISS:    1640216
cpu0_DTLB RFO       ACCESS:   49421787  HIT:   49316813  MISS:     104974
cpu0_DTLB PREFETCH  ACCESS:          0  HIT:          0  MISS:          0
cpu0_DTLB WRITEBACK ACCESS:          0  HIT:          0  MISS:          0
cpu0_ITLB TOTAL     ACCESS:    7453353  HIT:    7453343  MISS:         10
cpu0_ITLB LOAD      ACCESS:    7453353  HIT:    7453343  MISS:         10
cpu0_ITLB RFO       ACCESS:          0  HIT:          0  MISS:          0
cpu0_ITLB PREFETCH  ACCESS:          0  HIT:          0  MISS:          0
cpu0_ITLB WRITEBACK ACCESS:          0  HIT:          0  MISS:          0
cpu0_L1I TOTAL     ACCESS:   19169940  HIT:   19169819  MISS:        121
cpu0_L1I LOAD      ACCESS:   19169940  HIT:   19169819  MISS:        121
cpu0_L1I RFO       ACCESS:          0  HIT:          0  MISS:          0
cpu0_L1I PREFETCH  ACCESS:          0  HIT:          0  MISS:          0
cpu0_L1I WRITEBACK ACCESS:          0  HIT:          0  MISS:          0
cpu0_STLB TOTAL     ACCESS:    1745200  HIT:     890668  MISS:     854532
cpu0_STLB LOAD      ACCESS:    1640226  HIT:     785714  MISS:     854512
cpu0_STLB RFO       ACCESS:     104974  HIT:     104954  MISS:         20
cpu0_STLB PREFETCH  ACCESS:          0  HIT:          0  MISS:          0
cpu0_STLB WRITEBACK ACCESS:          0  HIT:          0  MISS:          0
cpu0_L1D TOTAL     ACCESS:  417729896  HIT:  393151169  MISS:   24578727
cpu0_L1D LOAD      ACCESS:  339521838  HIT:  315069509  MISS:   24452329
cpu0_L1D RFO       ACCESS:   77386248  HIT:   77386230  MISS:         18
cpu0_L1D PREFETCH  ACCESS:          0  HIT:          0  MISS:          0
cpu0_L1D WRITEBACK ACCESS:          0  HIT:          0  MISS:          0
cpu0_L2C TOTAL     ACCESS:   32775544  HIT:    8323739  MISS:   24451805
cpu0_L2C LOAD      ACCESS:   24452450  HIT:       2269  MISS:   24450181
cpu0_L2C RFO       ACCESS:         18  HIT:          0  MISS:         18
cpu0_L2C PREFETCH  ACCESS:          0  HIT:          0  MISS:          0
cpu0_L2C WRITEBACK ACCESS:    8196696  HIT:    8196628  MISS:         68
LLC TOTAL     ACCESS:   32647460  HIT:    8236530  MISS:   24410930
LLC LOAD      ACCESS:   24450181  HIT:      78044  MISS:   24372137
LLC RFO       ACCESS:         18  HIT:         14  MISS:          4
LLC PREFETCH  ACCESS:          0  HIT:          0  MISS:          0
LLC WRITEBACK ACCESS:    8195723  HIT:    8158106  MISS:      37617
Finished CPU 0 instructions: 1500000001 cycles: 2270844159 cumulative IPC: 0.660547 (Simulation time: 25 hr 58 min 1 sec) 

ChampSim completed all CPUs

Region of Interest Statistics

CPU 0 cumulative IPC: 0.660547 instructions: 1500000001 cycles: 2270844159
cpu0_DTLB TOTAL     ACCESS:  411808956  HIT:  410063766  MISS:    1745190
cpu0_DTLB LOAD      ACCESS:  362387169  HIT:  360746953  MISS:    1640216
cpu0_DTLB RFO       ACCESS:   49421787  HIT:   49316813  MISS:     104974
cpu0_DTLB PREFETCH  ACCESS:          0  HIT:          0  MISS:          0
cpu0_DTLB WRITEBACK ACCESS:          0  HIT:          0  MISS:          0
cpu0_DTLB TRANSLATION ACCESS:          0  HIT:          0  MISS:          0
cpu0_DTLB PREFETCH  REQUESTED:          0  ISSUED:          0  USEFUL:          0  USELESS:          0
cpu0_DTLB AVERAGE MISS LATENCY: 89.4466 cycles
cpu0_ITLB TOTAL     ACCESS:    7453353  HIT:    7453343  MISS:         10
cpu0_ITLB LOAD      ACCESS:    7453353  HIT:    7453343  MISS:         10
cpu0_ITLB RFO       ACCESS:          0  HIT:          0  MISS:          0
cpu0_ITLB PREFETCH  ACCESS:          0  HIT:          0  MISS:          0
cpu0_ITLB WRITEBACK ACCESS:          0  HIT:          0  MISS:          0
cpu0_ITLB TRANSLATION ACCESS:          0  HIT:          0  MISS:          0
cpu0_ITLB PREFETCH  REQUESTED:          0  ISSUED:          0  USEFUL:          0  USELESS:          0
cpu0_ITLB AVERAGE MISS LATENCY: 286 cycles
cpu0_L1I TOTAL     ACCESS:   19169940  HIT:   19169819  MISS:        121
cpu0_L1I LOAD      ACCESS:   19169940  HIT:   19169819  MISS:        121
cpu0_L1I RFO       ACCESS:          0  HIT:          0  MISS:          0
cpu0_L1I PREFETCH  ACCESS:          0  HIT:          0  MISS:          0
cpu0_L1I WRITEBACK ACCESS:          0  HIT:          0  MISS:          0
cpu0_L1I TRANSLATION ACCESS:          0  HIT:          0  MISS:          0
cpu0_L1I PREFETCH  REQUESTED:          0  ISSUED:          0  USEFUL:          0  USELESS:          0
cpu0_L1I AVERAGE MISS LATENCY: 375.669 cycles
cpu0_STLB TOTAL     ACCESS:    1745200  HIT:     890668  MISS:     854532
cpu0_STLB LOAD      ACCESS:    1640226  HIT:     785714  MISS:     854512
cpu0_STLB RFO       ACCESS:     104974  HIT:     104954  MISS:         20
cpu0_STLB PREFETCH  ACCESS:          0  HIT:          0  MISS:          0
cpu0_STLB WRITEBACK ACCESS:          0  HIT:          0  MISS:          0
cpu0_STLB TRANSLATION ACCESS:          0  HIT:          0  MISS:          0
cpu0_STLB PREFETCH  REQUESTED:          0  ISSUED:          0  USEFUL:          0  USELESS:          0
cpu0_STLB AVERAGE MISS LATENCY: 164.192 cycles
cpu0_L1D TOTAL     ACCESS:  417729896  HIT:  393151169  MISS:   24578727
cpu0_L1D LOAD      ACCESS:  339521838  HIT:  315069509  MISS:   24452329
cpu0_L1D RFO       ACCESS:   77386248  HIT:   77386230  MISS:         18
cpu0_L1D PREFETCH  ACCESS:          0  HIT:          0  MISS:          0
cpu0_L1D WRITEBACK ACCESS:          0  HIT:          0  MISS:          0
cpu0_L1D TRANSLATION ACCESS:     821810  HIT:     695430  MISS:     126380
cpu0_L1D PREFETCH  REQUESTED:          0  ISSUED:          0  USEFUL:          0  USELESS:          0
cpu0_L1D AVERAGE MISS LATENCY: 449.179 cycles
cpu0_L2C TOTAL     ACCESS:   32775544  HIT:    8323739  MISS:   24451805
cpu0_L2C LOAD      ACCESS:   24452450  HIT:       2269  MISS:   24450181
cpu0_L2C RFO       ACCESS:         18  HIT:          0  MISS:         18
cpu0_L2C PREFETCH  ACCESS:          0  HIT:          0  MISS:          0
cpu0_L2C WRITEBACK ACCESS:    8196696  HIT:    8196628  MISS:         68
cpu0_L2C TRANSLATION ACCESS:     126380  HIT:     124842  MISS:       1538
cpu0_L2C PREFETCH  REQUESTED:          0  ISSUED:          0  USEFUL:          0  USELESS:          0
cpu0_L2C AVERAGE MISS LATENCY: 440.427 cycles
LLC TOTAL     ACCESS:   32647460  HIT:    8236530  MISS:   24410930
LLC LOAD      ACCESS:   24450181  HIT:      78044  MISS:   24372137
LLC RFO       ACCESS:         18  HIT:         14  MISS:          4
LLC PREFETCH  ACCESS:          0  HIT:          0  MISS:          0
LLC WRITEBACK ACCESS:    8195723  HIT:    8158106  MISS:      37617
LLC TRANSLATION ACCESS:       1538  HIT:        366  MISS:       1172
LLC PREFETCH  REQUESTED:          0  ISSUED:          0  USEFUL:          0  USELESS:          0
LLC AVERAGE MISS LATENCY: 420.129 cycles
~~~~~~~~~~Reuse Distance Profiler output~~~~~~~~~~
0	26075104	5931376
1	13421680	7034944
2	14150576	9717584
3	16999984	13152208
4	16998016	14119920
5	16920352	14581056
6	15845168	14368256
7	14396992	12896224
8	12162576	10965936
9	11988576	10774848
10	11504528	10147120
11	11281280	9802992
12	10849488	9294464
13	10667472	9153888
14	9171872	7941728
15	8456720	7221904
16	8134672	7032704
17	7230496	6226672
18	7549728	6559600
19	7078992	5816640
20	7051520	5505088
21	6628640	5223360
22	6182064	4854528
23	5994128	4811424
24	5900800	4789760
25	5556912	4521328
26	5450752	4693344
27	5074416	4495184
28	4687424	4133392
29	4684576	4179744
30	4368176	3843536
31	4113760	3550608
32	3828768	3267552
33	3918928	3314672
34	3736400	3163568
35	3602944	3067904
36	3564176	3033088
37	3486240	2991184
38	3312320	2855360
39	3298592	2858608
40	3176672	2760352
41	3119264	2724304
42	2940240	2541856
43	2689616	2349568
44	2486672	2181920
45	2199680	1882496
46	2013312	1704496
47	1857792	1543152
48	1681424	1393376
49	1573568	1297856
50	1423280	1177216
51	1306016	1094160
52	1191456	1003136
53	1126128	953472
54	1075760	941056
55	970944	835968
56	914640	798912
57	877440	751616
58	780400	682864
59	748192	662224
60	741408	654816
61	674528	592464
62	633920	556320
63	603264	523168
64	1118304	965744
66	974496	864784
68	893584	799360
70	894688	809792
72	818880	749152
74	764272	697856
76	675760	608192
78	635072	579344
80	601616	556176
82	536992	480816
84	513616	465776
86	448704	406048
88	387584	349536
90	347104	310704
92	313744	282864
94	282192	251408
96	243296	219008
98	239056	215520
100	212176	190720
102	231680	214352
104	247888	232032
106	221200	213312
108	210928	198640
110	203904	196896
112	197424	190192
114	187152	179296
116	191328	184592
118	182432	175584
120	187264	177840
122	171824	167584
124	175232	171808
126	174128	171040
128	325808	320976
132	260192	257968
136	227584	226848
140	199376	198096
144	187904	187680
148	151456	151440
152	134896	134896
156	135312	135312
160	146160	146160
164	143728	143728
168	147648	147648
172	123744	123744
176	119424	119424
180	114064	114064
184	101248	101248
188	85984	85984
192	63424	63424
196	53616	53616
200	59264	59264
204	48864	48864
208	42048	42048
212	38192	38192
216	33888	33888
220	32976	32976
224	28368	28368
228	28480	28480
232	29216	29216
236	28128	28128
240	26560	26560
244	27520	27520
248	28656	28656
252	31072	31072
256	74832	74832
264	78208	78208
272	79104	79104
280	82656	82656
288	68560	68560
296	61536	61536
304	50448	50448
312	38016	38016
320	32384	32384
328	25264	25264
336	33264	33264
344	43488	43488
352	40288	40288
360	35488	35488
368	33728	33728
376	32192	32192
384	30464	30464
392	29888	29888
400	26720	26720
408	20544	20544
416	14288	14288
424	15600	15600
432	17664	17664
440	19760	19760
448	18944	18944
456	21792	21792
464	24880	24880
472	30688	30688
480	36000	36000
488	31984	31984
496	25248	25248
504	22192	22192
512	41360	41360
528	31792	31792
544	39056	39056
560	39744	39744
576	66800	66800
592	140144	140144
608	139392	139392
624	121856	121856
640	87424	87424
656	108016	108016
672	131904	131904
688	118560	118560
704	87712	87712
720	48528	48528
736	29792	29792
752	11344	11344
768	5600	5600
784	4192	4192
800	7152	7152
816	12384	12384
832	22240	22240
848	26320	26320
864	28512	28512
880	22544	22544
896	16192	16192
912	11664	11664
928	9360	9360
944	10400	10400
960	8208	8208
976	5872	5872
992	3408	3408
1008	2432	2432
1024	3600	3600
1056	3680	3680
1088	2736	2736
1120	3056	3056
1152	3824	3824
1184	2176	2176
1216	640	640
1248	224	224
1280	2128	2128
1312	8032	8032
1344	6736	6736
1376	4816	4816
1408	8720	8720
1440	12304	12304
1472	7104	7104
1504	1488	1488
1536	256	256
1568	144	144
1600	144	144
1632	608	608
1664	336	336
1696	128	128
1728	848	848
1760	544	544
1792	48	48
1824	48	48
1856	32	32
1888	0	0
1920	16	16
1952	0	0
1984	0	0
2016	0	0
2048	0	0
2112	0	0
2176	0	0
2240	0	0
2304	0	0
2368	0	0
2432	0	0
2496	0	0
2560	0	0
2624	0	0
2688	0	0
2752	0	0
2816	0	0
2880	0	0
2944	0	0
3008	0	0
3072	0	0
3136	0	0
3200	0	0
3264	0	0
3328	0	0
3392	16	16
3456	3136	3136
3520	26688	26688
3584	35024	35024
3648	10720	10720
3712	688	688
3776	0	0
3840	0	0
3904	0	0
3968	0	0
4032	0	0
4096	29008	29008
4224	1520480	1520480
4352	2989088	2989088
4480	470288	470288
4608	7216	7216
4736	16	16
4864	16	16
4992	0	0
5120	65664	65664
5248	114448	114448
5376	5280	5280
5504	0	0
5632	0	0
5760	0	0
5888	0	0
6016	0	0
6144	0	0
6272	0	0
6400	0	0
6528	0	0
6656	0	0
6784	0	0
6912	0	0
7040	0	0
7168	0	0
7296	0	0
7424	0	0
7552	0	0
7680	0	0
7808	0	0
7936	0	0
8064	0	0
8192	0	0
8448	0	0
8704	0	0
8960	0	0
9216	128	128
9472	288	288
9728	0	0
9984	0	0
10240	0	0
10496	0	0
10752	0	0
11008	0	0
11264	0	0
11520	0	0
11776	0	0
12032	0	0
12288	0	0
12544	0	0
12800	0	0
13056	0	0
13312	0	0
13568	0	0
13824	32	32
14080	0	0
14336	0	0
14592	0	0
14848	0	0
15104	0	0
15360	0	0
15616	0	0
15872	0	0
16128	0	0
16384	0	0
16896	0	0
17408	0	0
17920	0	0
18432	16	16
18944	0	0
19456	0	0
19968	0	0
20480	0	0
20992	0	0
21504	0	0
22016	0	0
22528	0	0
23040	0	0
23552	0	0
24064	0	0
24576	0	0
25088	0	0
25600	0	0
26112	0	0
26624	0	0
27136	0	0
27648	0	0
28160	0	0
28672	0	0
29184	0	0
29696	0	0
30208	0	0
30720	0	0
31232	0	0
31744	0	0
32256	0	0
32768	0	0
33792	0	0
34816	0	0
35840	0	0
36864	0	0
37888	0	0
38912	0	0
39936	0	0
40960	0	0
41984	0	0
43008	0	0
44032	0	0
45056	0	0
46080	0	0
47104	0	0
48128	0	0
49152	0	0
50176	0	0
51200	0	0
52224	0	0
53248	0	0
54272	0	0
55296	0	0
56320	0	0
57344	0	0
58368	0	0
59392	0	0
60416	0	0
61440	0	0
62464	0	0
63488	0	0
64512	0	0
65536	0	0
67584	0	0
69632	0	0
71680	0	0
73728	0	0
75776	0	0
77824	0	0
79872	0	0
81920	0	0
83968	0	0
86016	0	0
88064	0	0
90112	0	0
92160	0	0
94208	0	0
96256	0	0
98304	0	0
100352	0	0
102400	0	0
104448	0	0
106496	0	0
108544	0	0
110592	0	0
112640	0	0
114688	0	0
116736	0	0
118784	0	0
120832	0	0
122880	0	0
124928	0	0
126976	0	0
129024	0	0
131072	0	0
135168	0	0
139264	0	0
143360	0	0
147456	0	0
151552	0	0
155648	0	0
159744	0	0
163840	0	0
167936	0	0
172032	0	0
176128	0	0
180224	0	0
184320	0	0
188416	0	0
192512	0	0
196608	0	0
200704	0	0
204800	0	0
208896	0	0
212992	0	0
217088	0	0
221184	0	0
225280	0	0
229376	0	0
233472	0	0
237568	0	0
241664	0	0
245760	0	0
249856	0	0
253952	0	0
258048	0	0
262144	0	0
270336	0	0
278528	0	0
286720	0	0
294912	0	0
303104	0	0
311296	0	0
319488	0	0
327680	0	0
335872	0	0
344064	0	0
352256	0	0
360448	0	0
368640	0	0
376832	0	0
385024	0	0
393216	0	0
401408	0	0
409600	0	0
417792	0	0
425984	0	0
434176	0	0
442368	0	0
450560	0	0
458752	0	0
466944	0	0
475136	0	0
483328	0	0
491520	0	0
499712	0	0
507904	0	0
516096	0	0
524288	0	0
540672	0	0
557056	0	0
573440	0	0
589824	0	0
606208	0	0
622592	0	0
638976	0	0
655360	106080	106080
671744	467792	467792
688128	0	0
704512	0	0
720896	0	0
737280	0	0
753664	0	0
770048	0	0
786432	0	0
802816	0	0
819200	0	0
835584	0	0
851968	0	0
868352	0	0
884736	0	0
901120	0	0
917504	0	0
933888	0	0
950272	0	0
966656	0	0
983040	0	0
999424	0	0
1015808	0	0
1032192	0	0
1048576	0	0
1081344	0	0
1114112	0	0
1146880	0	0
1179648	0	0
1212416	0	0
1245184	0	0
1277952	0	0
1310720	0	0
1343488	0	0
1376256	0	0
1409024	0	0
1441792	0	0
1474560	0	0
1507328	0	0
1540096	0	0
1572864	0	0
1605632	0	0
1638400	0	0
1671168	0	0
1703936	0	0
1736704	0	0
1769472	0	0
1802240	0	0
1835008	0	0
1867776	0	0
1900544	0	0
1933312	0	0
1966080	0	0
1998848	0	0
2031616	0	0
2064384	0	0
2097152	0	0
2162688	0	0
2228224	0	0
2293760	0	0
2359296	0	0
2424832	0	0
2490368	0	0
2555904	0	0
2621440	0	0
2686976	0	0
2752512	0	0
2818048	0	0
2883584	0	0
2949120	0	0
3014656	0	0
3080192	0	0
3145728	0	0
3211264	0	0
3276800	0	0
3342336	0	0
3407872	0	0
3473408	0	0
3538944	0	0
3604480	0	0
3670016	0	0
3735552	0	0
3801088	0	0
3866624	0	0
3932160	0	0
3997696	0	0
4063232	0	0
4128768	24784	24784
4194304	4497008	4497008
4325376	8864	8864
4456448	8864	8864
4587520	9200	9200
4718592	9824	9824
4849664	9024	9024
4980736	122352	122352
5111808	0	0
5242880	0	0
5373952	0	0
5505024	0	0
5636096	0	0
5767168	0	0
5898240	0	0
6029312	0	0
6160384	0	0
6291456	0	0
6422528	0	0
6553600	0	0
6684672	0	0
6815744	0	0
6946816	0	0
7077888	0	0
7208960	0	0
7340032	0	0
7471104	0	0
7602176	0	0
7733248	0	0
7864320	0	0
7995392	0	0
8126464	0	0
8257536	0	0
8388608	16	16
8650752	0	0
8912896	0	0
9175040	0	0
9437184	0	0
9699328	0	0
9961472	0	0
10223616	0	0
10485760	0	0
10747904	0	0
11010048	0	0
11272192	0	0
11534336	0	0
11796480	0	0
12058624	0	0
12320768	0	0
12582912	64	64
12845056	0	0
13107200	0	0
13369344	16	16
13631488	0	0
13893632	0	0
14155776	0	0
14417920	0	0
14680064	0	0
14942208	0	0
15204352	0	0
15466496	0	0
15728640	0	0
15990784	0	0
16252928	0	0
16515072	0	0
16777216	16	16
17301504	0	0
17825792	0	0
18350080	0	0
18874368	0	0
19398656	0	0
19922944	0	0
20447232	0	0
20971520	48	48
21495808	0	0
22020096	0	0
22544384	0	0
23068672	0	0
23592960	0	0
24117248	0	0
24641536	0	0
25165824	32	32
25690112	0	0
26214400	0	0
26738688	16	16
27262976	0	0
27787264	0	0
28311552	0	0
28835840	0	0
29360128	16	16
29884416	0	0
30408704	0	0
30932992	0	0
31457280	0	0
31981568	0	0
32505856	0	0
33030144	0	0
33554432	64	64
34603008	0	0
35651584	0	0
36700160	0	0
37748736	0	0
38797312	0	0
39845888	0	0
40894464	0	0
41943040	48	48
42991616	0	0
44040192	0	0
45088768	0	0
46137344	32	32
47185920	0	0
48234496	0	0
49283072	0	0
50331648	32	32
51380224	0	0
52428800	0	0
53477376	0	0
54525952	32	32
55574528	0	0
56623104	0	0
57671680	16	16
58720256	32	32
59768832	0	0
60817408	0	0
61865984	0	0
62914560	32	32
63963136	32	32
65011712	0	0
66060288	0	0
67108864	16	16
69206016	0	0
71303168	32	32
73400320	0	0
75497472	0	0
77594624	16	16
79691776	16	16
81788928	0	0
83886080	48	48
85983232	0	0
88080384	48	48
90177536	0	0
92274688	64	64
94371840	0	0
96468992	32	32
98566144	0	0
100663296	32	32
102760448	0	0
104857600	16	16
106954752	0	0
109051904	64	64
111149056	0	0
113246208	0	0
115343360	0	0
117440512	16	16
119537664	0	0
121634816	32	32
123731968	0	0
125829120	32	32
127926272	0	0
130023424	16	16
132120576	0	0
134217728	16	16
138412032	0	0
142606336	32	32
146800640	16	16
150994944	0	0
155189248	32	32
159383552	64	64
163577856	80	80
167772160	80	80
171966464	16	16
176160768	16	16
180355072	64	64
184549376	0	0
188743680	64	64
192937984	16	16
197132288	16	16
201326592	32	32
205520896	48	48
209715200	16	16
213909504	48	48
218103808	0	0
222298112	16	16
226492416	0	0
230686720	32	32
234881024	16	16
239075328	16	16
243269632	32	32
247463936	32	32
251658240	16	16
255852544	0	0
260046848	16	16
264241152	16	16
268435456	32	32
276824064	48	48
285212672	16	16
293601280	80	80
301989888	112	112
310378496	64	64
318767104	64	64
327155712	80	80
335544320	0	0
343932928	0	0
352321536	0	0
360710144	0	0
369098752	0	0
377487360	0	0
385875968	0	0
394264576	0	0
402653184	0	0
411041792	0	0
419430400	0	0
427819008	0	0
436207616	0	0
444596224	0	0
452984832	0	0
461373440	0	0
469762048	0	0
478150656	0	0
486539264	0	0
494927872	0	0
503316480	0	0
511705088	0	0
520093696	0	0
528482304	0	0
536870912	0	0
553648128	0	0
570425344	0	0
587202560	0	0
603979776	0	0
620756992	0	0
637534208	0	0
654311424	0	0
671088640	0	0
687865856	0	0
704643072	0	0
721420288	0	0
738197504	0	0
754974720	0	0
771751936	0	0
788529152	0	0
805306368	0	0
822083584	0	0
838860800	0	0
855638016	0	0
872415232	0	0
889192448	0	0
905969664	0	0
922746880	0	0
939524096	0	0
956301312	0	0
973078528	0	0
989855744	0	0
1006632960	0	0
1023410176	0	0
1040187392	0	0
1056964608	0	0
1073741824	0	0
1107296256	0	0
1140850688	0	0
1174405120	0	0
1207959552	0	0
1241513984	0	0
1275068416	0	0
1308622848	0	0
1342177280	0	0
1375731712	0	0
1409286144	0	0
1442840576	0	0
1476395008	0	0
1509949440	0	0
1543503872	0	0
1577058304	0	0
1610612736	0	0
1644167168	0	0
1677721600	0	0
1711276032	0	0
1744830464	0	0
1778384896	0	0
1811939328	0	0
1845493760	0	0
1879048192	0	0
1912602624	0	0
1946157056	0	0
1979711488	0	0
2013265920	0	0
2046820352	0	0
2080374784	0	0
2113929216	0	0
2147483648	0	0
2214592512	0	0
2281701376	0	0
2348810240	0	0
2415919104	0	0
2483027968	0	0
2550136832	0	0
2617245696	0	0
2684354560	0	0
2751463424	0	0
2818572288	0	0
2885681152	0	0
2952790016	0	0
3019898880	0	0
3087007744	0	0
3154116608	0	0
3221225472	0	0
3288334336	0	0
3355443200	0	0
3422552064	0	0
3489660928	0	0
3556769792	0	0
3623878656	0	0
3690987520	0	0
3758096384	0	0
3825205248	0	0
3892314112	0	0
3959422976	0	0
4026531840	0	0
4093640704	0	0
4160749568	0	0
4227858432	0	0
~~~~~~~~~~Reuse Distance Profiler output end~~~~~~~~~~

Sampler size:1251404

DRAM Statistics
 CHANNEL 0
 RQ ROW_BUFFER_HIT:     108779  ROW_BUFFER_MISS:   24264533
 DBUS AVG_CONGESTED_CYCLE:    3.97868
 WQ ROW_BUFFER_HIT:     202602  ROW_BUFFER_MISS:    7991277  FULL:          0


CPU 0 Branch Prediction Accuracy: 96.4224% MPKI: 0.254203 Average ROB Occupancy at Mispredict: 335.592
Branch type MPKI
BRANCH_DIRECT_JUMP: 3.33333e-06
BRANCH_INDIRECT: 0
BRANCH_CONDITIONAL: 0.254193
BRANCH_DIRECT_CALL: 3.33333e-06
BRANCH_INDIRECT_CALL: 0
BRANCH_RETURN: 3.33333e-06

