
*** ChampSim Multicore Out-of-Order Simulator ***

Warmup Instructions: 50000000
Simulation Instructions: 1500000000
Number of CPUs: 1
Off-chip DRAM Size: 4 GiB Channels: 1 Width: 64-bit Data Rate: 3200 MT/s

VirtualMemory physical capacity: 8588881920 num_ppages: 2096895
VirtualMemory page size: 4096 log2_page_size: 12

CPU 0 runs /s/traces/champsim_traces/657.xz_s-3167B.champsimtrace.xz
CPU 0 Bimodal branch predictor
Basic BTB sets: 1024 ways: 8 indirect buffer size: 4096 RAS size: 64
Initializing LRU.
Initializing LRU.
Initializing LRU.
Initializing LRU.
Initializing rdLRU.
Initializing LRU.
Heartbeat CPU 0 instructions: 2000003 cycles: 500149 heartbeat IPC: 3.99881 cumulative IPC: 3.99881 (Simulation time: 0 hr 0 min 58 sec) 
Heartbeat CPU 0 instructions: 4000002 cycles: 1003141 heartbeat IPC: 3.9762 cumulative IPC: 3.98748 (Simulation time: 0 hr 1 min 55 sec) 
Heartbeat CPU 0 instructions: 6000001 cycles: 1504639 heartbeat IPC: 3.98805 cumulative IPC: 3.98767 (Simulation time: 0 hr 2 min 53 sec) 
Heartbeat CPU 0 instructions: 8000003 cycles: 2009544 heartbeat IPC: 3.96115 cumulative IPC: 3.981 (Simulation time: 0 hr 3 min 49 sec) 
Heartbeat CPU 0 instructions: 10000000 cycles: 2511765 heartbeat IPC: 3.9823 cumulative IPC: 3.98126 (Simulation time: 0 hr 4 min 46 sec) 
Heartbeat CPU 0 instructions: 12000001 cycles: 3016797 heartbeat IPC: 3.96015 cumulative IPC: 3.97773 (Simulation time: 0 hr 5 min 43 sec) 
Heartbeat CPU 0 instructions: 14000002 cycles: 3517747 heartbeat IPC: 3.99242 cumulative IPC: 3.97982 (Simulation time: 0 hr 6 min 36 sec) 
Heartbeat CPU 0 instructions: 16000000 cycles: 4020730 heartbeat IPC: 3.97627 cumulative IPC: 3.97938 (Simulation time: 0 hr 7 min 33 sec) 
Heartbeat CPU 0 instructions: 18000000 cycles: 4520730 heartbeat IPC: 4 cumulative IPC: 3.98166 (Simulation time: 0 hr 8 min 30 sec) 
Heartbeat CPU 0 instructions: 20000003 cycles: 5023719 heartbeat IPC: 3.97624 cumulative IPC: 3.98112 (Simulation time: 0 hr 9 min 26 sec) 
Heartbeat CPU 0 instructions: 22000003 cycles: 5523719 heartbeat IPC: 4 cumulative IPC: 3.98282 (Simulation time: 0 hr 10 min 19 sec) 
Heartbeat CPU 0 instructions: 24000000 cycles: 6026712 heartbeat IPC: 3.97619 cumulative IPC: 3.98227 (Simulation time: 0 hr 11 min 12 sec) 
Heartbeat CPU 0 instructions: 26000000 cycles: 6526712 heartbeat IPC: 4 cumulative IPC: 3.98363 (Simulation time: 0 hr 12 min 7 sec) 
Heartbeat CPU 0 instructions: 28000001 cycles: 7029691 heartbeat IPC: 3.97631 cumulative IPC: 3.98311 (Simulation time: 0 hr 13 min 3 sec) 
Heartbeat CPU 0 instructions: 30000001 cycles: 7529691 heartbeat IPC: 4 cumulative IPC: 3.98423 (Simulation time: 0 hr 13 min 56 sec) 
Heartbeat CPU 0 instructions: 32000001 cycles: 8029691 heartbeat IPC: 4 cumulative IPC: 3.98521 (Simulation time: 0 hr 14 min 47 sec) 
Heartbeat CPU 0 instructions: 34000000 cycles: 8532675 heartbeat IPC: 3.97627 cumulative IPC: 3.98468 (Simulation time: 0 hr 15 min 39 sec) 
Heartbeat CPU 0 instructions: 36000000 cycles: 9032675 heartbeat IPC: 4 cumulative IPC: 3.98553 (Simulation time: 0 hr 16 min 35 sec) 
Heartbeat CPU 0 instructions: 38000002 cycles: 9535666 heartbeat IPC: 3.97622 cumulative IPC: 3.98504 (Simulation time: 0 hr 17 min 30 sec) 
Heartbeat CPU 0 instructions: 40000002 cycles: 10035666 heartbeat IPC: 4 cumulative IPC: 3.98578 (Simulation time: 0 hr 18 min 23 sec) 
Heartbeat CPU 0 instructions: 42000002 cycles: 10538649 heartbeat IPC: 3.97628 cumulative IPC: 3.98533 (Simulation time: 0 hr 19 min 17 sec) 
Heartbeat CPU 0 instructions: 44000002 cycles: 11038649 heartbeat IPC: 4 cumulative IPC: 3.986 (Simulation time: 0 hr 20 min 12 sec) 
Heartbeat CPU 0 instructions: 46000000 cycles: 11541665 heartbeat IPC: 3.97601 cumulative IPC: 3.98556 (Simulation time: 0 hr 21 min 6 sec) 
Heartbeat CPU 0 instructions: 48000002 cycles: 12041670 heartbeat IPC: 3.99996 cumulative IPC: 3.98616 (Simulation time: 0 hr 21 min 59 sec) 
Heartbeat CPU 0 instructions: 50000002 cycles: 12541670 heartbeat IPC: 4 cumulative IPC: 3.98671 (Simulation time: 0 hr 22 min 52 sec) 

Warmup complete CPU 0 instructions: 50000002 cycles: 12541670 (Simulation time: 0 hr 22 min 52 sec) 

Heartbeat CPU 0 instructions: 52000004 cycles: 14063884 heartbeat IPC: 1.31388 cumulative IPC: 1.31388 (Simulation time: 0 hr 23 min 47 sec) 

Region of Interest Statistics
cpu0_DTLB TOTAL     ACCESS:     358550  HIT:     348249  MISS:      10301
cpu0_DTLB LOAD      ACCESS:     283090  HIT:     276434  MISS:       6656
cpu0_DTLB RFO       ACCESS:      75460  HIT:      71815  MISS:       3645
cpu0_DTLB PREFETCH  ACCESS:          0  HIT:          0  MISS:          0
cpu0_DTLB WRITEBACK ACCESS:          0  HIT:          0  MISS:          0
cpu0_ITLB TOTAL     ACCESS:     173454  HIT:     173454  MISS:          0
cpu0_ITLB LOAD      ACCESS:     173454  HIT:     173454  MISS:          0
cpu0_ITLB RFO       ACCESS:          0  HIT:          0  MISS:          0
cpu0_ITLB PREFETCH  ACCESS:          0  HIT:          0  MISS:          0
cpu0_ITLB WRITEBACK ACCESS:          0  HIT:          0  MISS:          0
cpu0_L1I TOTAL     ACCESS:      34936  HIT:      34932  MISS:          4
cpu0_L1I LOAD      ACCESS:      34936  HIT:      34932  MISS:          4
cpu0_L1I RFO       ACCESS:          0  HIT:          0  MISS:          0
cpu0_L1I PREFETCH  ACCESS:          0  HIT:          0  MISS:          0
cpu0_L1I WRITEBACK ACCESS:          0  HIT:          0  MISS:          0
cpu0_STLB TOTAL     ACCESS:      10301  HIT:       9110  MISS:       1191
cpu0_STLB LOAD      ACCESS:       6656  HIT:       5510  MISS:       1146
cpu0_STLB RFO       ACCESS:       3645  HIT:       3600  MISS:         45
cpu0_STLB PREFETCH  ACCESS:          0  HIT:          0  MISS:          0
cpu0_STLB WRITEBACK ACCESS:          0  HIT:          0  MISS:          0
cpu0_L1D TOTAL     ACCESS:     390948  HIT:     379430  MISS:      11518
cpu0_L1D LOAD      ACCESS:     259972  HIT:     251206  MISS:       8766
cpu0_L1D RFO       ACCESS:     129789  HIT:     127061  MISS:       2728
cpu0_L1D PREFETCH  ACCESS:          0  HIT:          0  MISS:          0
cpu0_L1D WRITEBACK ACCESS:          0  HIT:          0  MISS:          0
cpu0_L2C TOTAL     ACCESS:      19718  HIT:      15365  MISS:       4353
cpu0_L2C LOAD      ACCESS:       8770  HIT:       5182  MISS:       3588
cpu0_L2C RFO       ACCESS:       2728  HIT:       1989  MISS:        739
cpu0_L2C PREFETCH  ACCESS:          0  HIT:          0  MISS:          0
cpu0_L2C WRITEBACK ACCESS:       8196  HIT:       8176  MISS:         20
LLC TOTAL     ACCESS:       7278  HIT:       5709  MISS:       1569
LLC LOAD      ACCESS:       3588  HIT:       2635  MISS:        953
LLC RFO       ACCESS:        739  HIT:        132  MISS:        607
LLC PREFETCH  ACCESS:          0  HIT:          0  MISS:          0
LLC WRITEBACK ACCESS:       2945  HIT:       2937  MISS:          8
Heartbeat CPU 0 instructions: 54000002 cycles: 15394258 heartbeat IPC: 1.50334 cumulative IPC: 1.40224 (Simulation time: 0 hr 24 min 37 sec) 

Region of Interest Statistics
cpu0_DTLB TOTAL     ACCESS:     705678  HIT:     685244  MISS:      20434
cpu0_DTLB LOAD      ACCESS:     556057  HIT:     543025  MISS:      13032
cpu0_DTLB RFO       ACCESS:     149621  HIT:     142219  MISS:       7402
cpu0_DTLB PREFETCH  ACCESS:          0  HIT:          0  MISS:          0
cpu0_DTLB WRITEBACK ACCESS:          0  HIT:          0  MISS:          0
cpu0_ITLB TOTAL     ACCESS:     349968  HIT:     349968  MISS:          0
cpu0_ITLB LOAD      ACCESS:     349968  HIT:     349968  MISS:          0
cpu0_ITLB RFO       ACCESS:          0  HIT:          0  MISS:          0
cpu0_ITLB PREFETCH  ACCESS:          0  HIT:          0  MISS:          0
cpu0_ITLB WRITEBACK ACCESS:          0  HIT:          0  MISS:          0
cpu0_L1I TOTAL     ACCESS:      69741  HIT:      69737  MISS:          4
cpu0_L1I LOAD      ACCESS:      69741  HIT:      69737  MISS:          4
cpu0_L1I RFO       ACCESS:          0  HIT:          0  MISS:          0
cpu0_L1I PREFETCH  ACCESS:          0  HIT:          0  MISS:          0
cpu0_L1I WRITEBACK ACCESS:          0  HIT:          0  MISS:          0
cpu0_STLB TOTAL     ACCESS:      20434  HIT:      18203  MISS:       2231
cpu0_STLB LOAD      ACCESS:      13032  HIT:      10874  MISS:       2158
cpu0_STLB RFO       ACCESS:       7402  HIT:       7329  MISS:         73
cpu0_STLB PREFETCH  ACCESS:          0  HIT:          0  MISS:          0
cpu0_STLB WRITEBACK ACCESS:          0  HIT:          0  MISS:          0
cpu0_L1D TOTAL     ACCESS:     759774  HIT:     736913  MISS:      22861
cpu0_L1D LOAD      ACCESS:     502601  HIT:     485182  MISS:      17419
cpu0_L1D RFO       ACCESS:     254946  HIT:     249557  MISS:       5389
cpu0_L1D PREFETCH  ACCESS:          0  HIT:          0  MISS:          0
cpu0_L1D WRITEBACK ACCESS:          0  HIT:          0  MISS:          0
cpu0_L2C TOTAL     ACCESS:      39456  HIT:      31917  MISS:       7539
cpu0_L2C LOAD      ACCESS:      17422  HIT:      11245  MISS:       6177
cpu0_L2C RFO       ACCESS:       5389  HIT:       4059  MISS:       1330
cpu0_L2C PREFETCH  ACCESS:          0  HIT:          0  MISS:          0
cpu0_L2C WRITEBACK ACCESS:      16592  HIT:      16566  MISS:         26
LLC TOTAL     ACCESS:      12606  HIT:       9864  MISS:       2742
LLC LOAD      ACCESS:       6177  HIT:       4534  MISS:       1643
LLC RFO       ACCESS:       1330  HIT:        242  MISS:       1088
LLC PREFETCH  ACCESS:          0  HIT:          0  MISS:          0
LLC WRITEBACK ACCESS:       5093  HIT:       5083  MISS:         10
Heartbeat CPU 0 instructions: 56000000 cycles: 16889821 heartbeat IPC: 1.33729 cumulative IPC: 1.3799 (Simulation time: 0 hr 25 min 31 sec) 

Region of Interest Statistics
cpu0_DTLB TOTAL     ACCESS:    1071251  HIT:    1041098  MISS:      30153
cpu0_DTLB LOAD      ACCESS:     844151  HIT:     824577  MISS:      19574
cpu0_DTLB RFO       ACCESS:     227100  HIT:     216521  MISS:      10579
cpu0_DTLB PREFETCH  ACCESS:          0  HIT:          0  MISS:          0
cpu0_DTLB WRITEBACK ACCESS:          0  HIT:          0  MISS:          0
cpu0_ITLB TOTAL     ACCESS:     528961  HIT:     528961  MISS:          0
cpu0_ITLB LOAD      ACCESS:     528961  HIT:     528961  MISS:          0
cpu0_ITLB RFO       ACCESS:          0  HIT:          0  MISS:          0
cpu0_ITLB PREFETCH  ACCESS:          0  HIT:          0  MISS:          0
cpu0_ITLB WRITEBACK ACCESS:          0  HIT:          0  MISS:          0
cpu0_L1I TOTAL     ACCESS:     102600  HIT:     102590  MISS:         10
cpu0_L1I LOAD      ACCESS:     102600  HIT:     102590  MISS:         10
cpu0_L1I RFO       ACCESS:          0  HIT:          0  MISS:          0
cpu0_L1I PREFETCH  ACCESS:          0  HIT:          0  MISS:          0
cpu0_L1I WRITEBACK ACCESS:          0  HIT:          0  MISS:          0
cpu0_STLB TOTAL     ACCESS:      30153  HIT:      26725  MISS:       3428
cpu0_STLB LOAD      ACCESS:      19574  HIT:      16257  MISS:       3317
cpu0_STLB RFO       ACCESS:      10579  HIT:      10468  MISS:        111
cpu0_STLB PREFETCH  ACCESS:          0  HIT:          0  MISS:          0
cpu0_STLB WRITEBACK ACCESS:          0  HIT:          0  MISS:          0
cpu0_L1D TOTAL     ACCESS:    1150743  HIT:    1115416  MISS:      35327
cpu0_L1D LOAD      ACCESS:     763112  HIT:     735834  MISS:      27278
cpu0_L1D RFO       ACCESS:     384207  HIT:     376239  MISS:       7968
cpu0_L1D PREFETCH  ACCESS:          0  HIT:          0  MISS:          0
cpu0_L1D WRITEBACK ACCESS:          0  HIT:          0  MISS:          0
cpu0_L2C TOTAL     ACCESS:      60833  HIT:      49169  MISS:      11664
cpu0_L2C LOAD      ACCESS:      27287  HIT:      17680  MISS:       9607
cpu0_L2C RFO       ACCESS:       7968  HIT:       5957  MISS:       2011
cpu0_L2C PREFETCH  ACCESS:          0  HIT:          0  MISS:          0
cpu0_L2C WRITEBACK ACCESS:      25497  HIT:      25458  MISS:         39
LLC TOTAL     ACCESS:      19548  HIT:      15382  MISS:       4166
LLC LOAD      ACCESS:       9607  HIT:       7109  MISS:       2498
LLC RFO       ACCESS:       2011  HIT:        358  MISS:       1653
LLC PREFETCH  ACCESS:          0  HIT:          0  MISS:          0
LLC WRITEBACK ACCESS:       7923  HIT:       7909  MISS:         14
Heartbeat CPU 0 instructions: 58000004 cycles: 18213271 heartbeat IPC: 1.5112 cumulative IPC: 1.41054 (Simulation time: 0 hr 26 min 21 sec) 

Region of Interest Statistics
cpu0_DTLB TOTAL     ACCESS:    1419113  HIT:    1378867  MISS:      40246
cpu0_DTLB LOAD      ACCESS:    1117223  HIT:    1091409  MISS:      25814
cpu0_DTLB RFO       ACCESS:     301890  HIT:     287458  MISS:      14432
cpu0_DTLB PREFETCH  ACCESS:          0  HIT:          0  MISS:          0
cpu0_DTLB WRITEBACK ACCESS:          0  HIT:          0  MISS:          0
cpu0_ITLB TOTAL     ACCESS:     703714  HIT:     703714  MISS:          0
cpu0_ITLB LOAD      ACCESS:     703714  HIT:     703714  MISS:          0
cpu0_ITLB RFO       ACCESS:          0  HIT:          0  MISS:          0
cpu0_ITLB PREFETCH  ACCESS:          0  HIT:          0  MISS:          0
cpu0_ITLB WRITEBACK ACCESS:          0  HIT:          0  MISS:          0
cpu0_L1I TOTAL     ACCESS:     139342  HIT:     139332  MISS:         10
cpu0_L1I LOAD      ACCESS:     139342  HIT:     139332  MISS:         10
cpu0_L1I RFO       ACCESS:          0  HIT:          0  MISS:          0
cpu0_L1I PREFETCH  ACCESS:          0  HIT:          0  MISS:          0
cpu0_L1I WRITEBACK ACCESS:          0  HIT:          0  MISS:          0
cpu0_STLB TOTAL     ACCESS:      40246  HIT:      35805  MISS:       4441
cpu0_STLB LOAD      ACCESS:      25814  HIT:      21518  MISS:       4296
cpu0_STLB RFO       ACCESS:      14432  HIT:      14287  MISS:        145
cpu0_STLB PREFETCH  ACCESS:          0  HIT:          0  MISS:          0
cpu0_STLB WRITEBACK ACCESS:          0  HIT:          0  MISS:          0
cpu0_L1D TOTAL     ACCESS:    1519279  HIT:    1472584  MISS:      46695
cpu0_L1D LOAD      ACCESS:    1004618  HIT:     968670  MISS:      35948
cpu0_L1D RFO       ACCESS:     510225  HIT:     499590  MISS:      10635
cpu0_L1D PREFETCH  ACCESS:          0  HIT:          0  MISS:          0
cpu0_L1D WRITEBACK ACCESS:          0  HIT:          0  MISS:          0
cpu0_L2C TOTAL     ACCESS:      80533  HIT:      65693  MISS:      14840
cpu0_L2C LOAD      ACCESS:      35957  HIT:      23799  MISS:      12158
cpu0_L2C RFO       ACCESS:      10634  HIT:       8002  MISS:       2632
cpu0_L2C PREFETCH  ACCESS:          0  HIT:          0  MISS:          0
cpu0_L2C WRITEBACK ACCESS:      33830  HIT:      33787  MISS:         43
LLC TOTAL     ACCESS:      24950  HIT:      19584  MISS:       5366
LLC LOAD      ACCESS:      12158  HIT:       8993  MISS:       3165
LLC RFO       ACCESS:       2632  HIT:        454  MISS:       2178
LLC PREFETCH  ACCESS:          0  HIT:          0  MISS:          0
LLC WRITEBACK ACCESS:      10153  HIT:      10131  MISS:         22
Heartbeat CPU 0 instructions: 60000001 cycles: 19714779 heartbeat IPC: 1.33199 cumulative IPC: 1.3941 (Simulation time: 0 hr 27 min 16 sec) 

Region of Interest Statistics
cpu0_DTLB TOTAL     ACCESS:    1778146  HIT:    1726905  MISS:      51241
cpu0_DTLB LOAD      ACCESS:    1400634  HIT:    1367613  MISS:      33021
cpu0_DTLB RFO       ACCESS:     377512  HIT:     359292  MISS:      18220
cpu0_DTLB PREFETCH  ACCESS:          0  HIT:          0  MISS:          0
cpu0_DTLB WRITEBACK ACCESS:          0  HIT:          0  MISS:          0
cpu0_ITLB TOTAL     ACCESS:     876413  HIT:     876413  MISS:          0
cpu0_ITLB LOAD      ACCESS:     876413  HIT:     876413  MISS:          0
cpu0_ITLB RFO       ACCESS:          0  HIT:          0  MISS:          0
cpu0_ITLB PREFETCH  ACCESS:          0  HIT:          0  MISS:          0
cpu0_ITLB WRITEBACK ACCESS:          0  HIT:          0  MISS:          0
cpu0_L1I TOTAL     ACCESS:     174181  HIT:     174168  MISS:         13
cpu0_L1I LOAD      ACCESS:     174181  HIT:     174168  MISS:         13
cpu0_L1I RFO       ACCESS:          0  HIT:          0  MISS:          0
cpu0_L1I PREFETCH  ACCESS:          0  HIT:          0  MISS:          0
cpu0_L1I WRITEBACK ACCESS:          0  HIT:          0  MISS:          0
cpu0_STLB TOTAL     ACCESS:      51241  HIT:      45536  MISS:       5705
cpu0_STLB LOAD      ACCESS:      33021  HIT:      27499  MISS:       5522
cpu0_STLB RFO       ACCESS:      18220  HIT:      18037  MISS:        183
cpu0_STLB PREFETCH  ACCESS:          0  HIT:          0  MISS:          0
cpu0_STLB WRITEBACK ACCESS:          0  HIT:          0  MISS:          0
cpu0_L1D TOTAL     ACCESS:    1905032  HIT:    1845582  MISS:      59450
cpu0_L1D LOAD      ACCESS:    1261446  HIT:    1215565  MISS:      45881
cpu0_L1D RFO       ACCESS:     637886  HIT:     624457  MISS:      13429
cpu0_L1D PREFETCH  ACCESS:          0  HIT:          0  MISS:          0
cpu0_L1D WRITEBACK ACCESS:          0  HIT:          0  MISS:          0
cpu0_L2C TOTAL     ACCESS:     102458  HIT:      83322  MISS:      19136
cpu0_L2C LOAD      ACCESS:      45893  HIT:      30183  MISS:      15710
cpu0_L2C RFO       ACCESS:      13428  HIT:      10069  MISS:       3359
cpu0_L2C PREFETCH  ACCESS:          0  HIT:          0  MISS:          0
cpu0_L2C WRITEBACK ACCESS:      42997  HIT:      42938  MISS:         59
LLC TOTAL     ACCESS:      32188  HIT:      25275  MISS:       6913
LLC LOAD      ACCESS:      15710  HIT:      11616  MISS:       4094
LLC RFO       ACCESS:       3359  HIT:        568  MISS:       2791
LLC PREFETCH  ACCESS:          0  HIT:          0  MISS:          0
LLC WRITEBACK ACCESS:      13111  HIT:      13084  MISS:         27
Heartbeat CPU 0 instructions: 62000002 cycles: 21022873 heartbeat IPC: 1.52894 cumulative IPC: 1.41489 (Simulation time: 0 hr 28 min 3 sec) 

Region of Interest Statistics
cpu0_DTLB TOTAL     ACCESS:    2123505  HIT:    2062214  MISS:      61291
cpu0_DTLB LOAD      ACCESS:    1671471  HIT:    1632206  MISS:      39265
cpu0_DTLB RFO       ACCESS:     452034  HIT:     430008  MISS:      22026
cpu0_DTLB PREFETCH  ACCESS:          0  HIT:          0  MISS:          0
cpu0_DTLB WRITEBACK ACCESS:          0  HIT:          0  MISS:          0
cpu0_ITLB TOTAL     ACCESS:    1051195  HIT:    1051195  MISS:          0
cpu0_ITLB LOAD      ACCESS:    1051195  HIT:    1051195  MISS:          0
cpu0_ITLB RFO       ACCESS:          0  HIT:          0  MISS:          0
cpu0_ITLB PREFETCH  ACCESS:          0  HIT:          0  MISS:          0
cpu0_ITLB WRITEBACK ACCESS:          0  HIT:          0  MISS:          0
cpu0_L1I TOTAL     ACCESS:     210325  HIT:     210312  MISS:         13
cpu0_L1I LOAD      ACCESS:     210325  HIT:     210312  MISS:         13
cpu0_L1I RFO       ACCESS:          0  HIT:          0  MISS:          0
cpu0_L1I PREFETCH  ACCESS:          0  HIT:          0  MISS:          0
cpu0_L1I WRITEBACK ACCESS:          0  HIT:          0  MISS:          0
cpu0_STLB TOTAL     ACCESS:      61291  HIT:      54683  MISS:       6608
cpu0_STLB LOAD      ACCESS:      39265  HIT:      32861  MISS:       6404
cpu0_STLB RFO       ACCESS:      22026  HIT:      21822  MISS:        204
cpu0_STLB PREFETCH  ACCESS:          0  HIT:          0  MISS:          0
cpu0_STLB WRITEBACK ACCESS:          0  HIT:          0  MISS:          0
cpu0_L1D TOTAL     ACCESS:    2278476  HIT:    2208098  MISS:      70378
cpu0_L1D LOAD      ACCESS:    1505809  HIT:    1451587  MISS:      54222
cpu0_L1D RFO       ACCESS:     766065  HIT:     750078  MISS:      15987
cpu0_L1D PREFETCH  ACCESS:          0  HIT:          0  MISS:          0
cpu0_L1D WRITEBACK ACCESS:          0  HIT:          0  MISS:          0
cpu0_L2C TOTAL     ACCESS:     121496  HIT:      99484  MISS:      22012
cpu0_L2C LOAD      ACCESS:      54234  HIT:      36270  MISS:      17964
cpu0_L2C RFO       ACCESS:      15986  HIT:      12009  MISS:       3977
cpu0_L2C PREFETCH  ACCESS:          0  HIT:          0  MISS:          0
cpu0_L2C WRITEBACK ACCESS:      51107  HIT:      51044  MISS:         63
LLC TOTAL     ACCESS:      37022  HIT:      29045  MISS:       7977
LLC LOAD      ACCESS:      17964  HIT:      13317  MISS:       4647
LLC RFO       ACCESS:       3977  HIT:        676  MISS:       3301
LLC PREFETCH  ACCESS:          0  HIT:          0  MISS:          0
LLC WRITEBACK ACCESS:      15073  HIT:      15045  MISS:         28
Heartbeat CPU 0 instructions: 64000002 cycles: 22528899 heartbeat IPC: 1.328 cumulative IPC: 1.40179 (Simulation time: 0 hr 28 min 57 sec) 

Region of Interest Statistics
cpu0_DTLB TOTAL     ACCESS:    2487085  HIT:    2415421  MISS:      71664
cpu0_DTLB LOAD      ACCESS:    1957708  HIT:    1911415  MISS:      46293
cpu0_DTLB RFO       ACCESS:     529377  HIT:     504006  MISS:      25371
cpu0_DTLB PREFETCH  ACCESS:          0  HIT:          0  MISS:          0
cpu0_DTLB WRITEBACK ACCESS:          0  HIT:          0  MISS:          0
cpu0_ITLB TOTAL     ACCESS:    1228578  HIT:    1228578  MISS:          0
cpu0_ITLB LOAD      ACCESS:    1228578  HIT:    1228578  MISS:          0
cpu0_ITLB RFO       ACCESS:          0  HIT:          0  MISS:          0
cpu0_ITLB PREFETCH  ACCESS:          0  HIT:          0  MISS:          0
cpu0_ITLB WRITEBACK ACCESS:          0  HIT:          0  MISS:          0
cpu0_L1I TOTAL     ACCESS:     244167  HIT:     244154  MISS:         13
cpu0_L1I LOAD      ACCESS:     244167  HIT:     244154  MISS:         13
cpu0_L1I RFO       ACCESS:          0  HIT:          0  MISS:          0
cpu0_L1I PREFETCH  ACCESS:          0  HIT:          0  MISS:          0
cpu0_L1I WRITEBACK ACCESS:          0  HIT:          0  MISS:          0
cpu0_STLB TOTAL     ACCESS:      71664  HIT:      63761  MISS:       7903
cpu0_STLB LOAD      ACCESS:      46293  HIT:      38640  MISS:       7653
cpu0_STLB RFO       ACCESS:      25371  HIT:      25121  MISS:        250
cpu0_STLB PREFETCH  ACCESS:          0  HIT:          0  MISS:          0
cpu0_STLB WRITEBACK ACCESS:          0  HIT:          0  MISS:          0
cpu0_L1D TOTAL     ACCESS:    2668520  HIT:    2585772  MISS:      82748
cpu0_L1D LOAD      ACCESS:    1764744  HIT:    1700843  MISS:      63901
cpu0_L1D RFO       ACCESS:     895881  HIT:     877229  MISS:      18652
cpu0_L1D PREFETCH  ACCESS:          0  HIT:          0  MISS:          0
cpu0_L1D WRITEBACK ACCESS:          0  HIT:          0  MISS:          0
cpu0_L2C TOTAL     ACCESS:     142638  HIT:     116564  MISS:      26074
cpu0_L2C LOAD      ACCESS:      63913  HIT:      42564  MISS:      21349
cpu0_L2C RFO       ACCESS:      18650  HIT:      14017  MISS:       4633
cpu0_L2C PREFETCH  ACCESS:          0  HIT:          0  MISS:          0
cpu0_L2C WRITEBACK ACCESS:      59880  HIT:      59798  MISS:         82
LLC TOTAL     ACCESS:      43836  HIT:      34282  MISS:       9554
LLC LOAD      ACCESS:      21349  HIT:      15711  MISS:       5638
LLC RFO       ACCESS:       4633  HIT:        756  MISS:       3877
LLC PREFETCH  ACCESS:          0  HIT:          0  MISS:          0
LLC WRITEBACK ACCESS:      17844  HIT:      17806  MISS:         38
Heartbeat CPU 0 instructions: 66000001 cycles: 23908783 heartbeat IPC: 1.4494 cumulative IPC: 1.40757 (Simulation time: 0 hr 29 min 46 sec) 

Region of Interest Statistics
cpu0_DTLB TOTAL     ACCESS:    2837505  HIT:    2755619  MISS:      81886
cpu0_DTLB LOAD      ACCESS:    2231482  HIT:    2178377  MISS:      53105
cpu0_DTLB RFO       ACCESS:     606023  HIT:     577242  MISS:      28781
cpu0_DTLB PREFETCH  ACCESS:          0  HIT:          0  MISS:          0
cpu0_DTLB WRITEBACK ACCESS:          0  HIT:          0  MISS:          0
cpu0_ITLB TOTAL     ACCESS:    1408029  HIT:    1408029  MISS:          0
cpu0_ITLB LOAD      ACCESS:    1408029  HIT:    1408029  MISS:          0
cpu0_ITLB RFO       ACCESS:          0  HIT:          0  MISS:          0
cpu0_ITLB PREFETCH  ACCESS:          0  HIT:          0  MISS:          0
cpu0_ITLB WRITEBACK ACCESS:          0  HIT:          0  MISS:          0
cpu0_L1I TOTAL     ACCESS:     279289  HIT:     279276  MISS:         13
cpu0_L1I LOAD      ACCESS:     279289  HIT:     279276  MISS:         13
cpu0_L1I RFO       ACCESS:          0  HIT:          0  MISS:          0
cpu0_L1I PREFETCH  ACCESS:          0  HIT:          0  MISS:          0
cpu0_L1I WRITEBACK ACCESS:          0  HIT:          0  MISS:          0
cpu0_STLB TOTAL     ACCESS:      81886  HIT:      72919  MISS:       8967
cpu0_STLB LOAD      ACCESS:      53105  HIT:      44412  MISS:       8693
cpu0_STLB RFO       ACCESS:      28781  HIT:      28507  MISS:        274
cpu0_STLB PREFETCH  ACCESS:          0  HIT:          0  MISS:          0
cpu0_STLB WRITEBACK ACCESS:          0  HIT:          0  MISS:          0
cpu0_L1D TOTAL     ACCESS:    3044423  HIT:    2949771  MISS:      94652
cpu0_L1D LOAD      ACCESS:    2010704  HIT:    1937465  MISS:      73239
cpu0_L1D RFO       ACCESS:    1024760  HIT:    1003576  MISS:      21184
cpu0_L1D PREFETCH  ACCESS:          0  HIT:          0  MISS:          0
cpu0_L1D WRITEBACK ACCESS:          0  HIT:          0  MISS:          0
cpu0_L2C TOTAL     ACCESS:     163205  HIT:     133650  MISS:      29555
cpu0_L2C LOAD      ACCESS:      73251  HIT:      48975  MISS:      24276
cpu0_L2C RFO       ACCESS:      21181  HIT:      16002  MISS:       5179
cpu0_L2C PREFETCH  ACCESS:          0  HIT:          0  MISS:          0
cpu0_L2C WRITEBACK ACCESS:      68544  HIT:      68454  MISS:         90
LLC TOTAL     ACCESS:      49744  HIT:      38912  MISS:      10832
LLC LOAD      ACCESS:      24276  HIT:      17835  MISS:       6441
LLC RFO       ACCESS:       5179  HIT:        828  MISS:       4351
LLC PREFETCH  ACCESS:          0  HIT:          0  MISS:          0
LLC WRITEBACK ACCESS:      20279  HIT:      20240  MISS:         39
Heartbeat CPU 0 instructions: 68000003 cycles: 25238715 heartbeat IPC: 1.50384 cumulative IPC: 1.41765 (Simulation time: 0 hr 30 min 38 sec) 

Region of Interest Statistics
cpu0_DTLB TOTAL     ACCESS:    3185511  HIT:    3094770  MISS:      90741
cpu0_DTLB LOAD      ACCESS:    2503986  HIT:    2445787  MISS:      58199
cpu0_DTLB RFO       ACCESS:     681525  HIT:     648983  MISS:      32542
cpu0_DTLB PREFETCH  ACCESS:          0  HIT:          0  MISS:          0
cpu0_DTLB WRITEBACK ACCESS:          0  HIT:          0  MISS:          0
cpu0_ITLB TOTAL     ACCESS:    1579654  HIT:    1579654  MISS:          0
cpu0_ITLB LOAD      ACCESS:    1579654  HIT:    1579654  MISS:          0
cpu0_ITLB RFO       ACCESS:          0  HIT:          0  MISS:          0
cpu0_ITLB PREFETCH  ACCESS:          0  HIT:          0  MISS:          0
cpu0_ITLB WRITEBACK ACCESS:          0  HIT:          0  MISS:          0
cpu0_L1I TOTAL     ACCESS:     314697  HIT:     314683  MISS:         14
cpu0_L1I LOAD      ACCESS:     314697  HIT:     314683  MISS:         14
cpu0_L1I RFO       ACCESS:          0  HIT:          0  MISS:          0
cpu0_L1I PREFETCH  ACCESS:          0  HIT:          0  MISS:          0
cpu0_L1I WRITEBACK ACCESS:          0  HIT:          0  MISS:          0
cpu0_STLB TOTAL     ACCESS:      90741  HIT:      81086  MISS:       9655
cpu0_STLB LOAD      ACCESS:      58199  HIT:      48839  MISS:       9360
cpu0_STLB RFO       ACCESS:      32542  HIT:      32247  MISS:        295
cpu0_STLB PREFETCH  ACCESS:          0  HIT:          0  MISS:          0
cpu0_STLB WRITEBACK ACCESS:          0  HIT:          0  MISS:          0
cpu0_L1D TOTAL     ACCESS:    3415600  HIT:    3310288  MISS:     105312
cpu0_L1D LOAD      ACCESS:    2257156  HIT:    2176029  MISS:      81127
cpu0_L1D RFO       ACCESS:    1148797  HIT:    1124872  MISS:      23925
cpu0_L1D PREFETCH  ACCESS:          0  HIT:          0  MISS:          0
cpu0_L1D WRITEBACK ACCESS:          0  HIT:          0  MISS:          0
cpu0_L2C TOTAL     ACCESS:     181939  HIT:     149860  MISS:      32079
cpu0_L2C LOAD      ACCESS:      81140  HIT:      55053  MISS:      26087
cpu0_L2C RFO       ACCESS:      23922  HIT:      18050  MISS:       5872
cpu0_L2C PREFETCH  ACCESS:          0  HIT:          0  MISS:          0
cpu0_L2C WRITEBACK ACCESS:      76617  HIT:      76508  MISS:        109
LLC TOTAL     ACCESS:      53962  HIT:      41915  MISS:      12047
LLC LOAD      ACCESS:      26087  HIT:      19080  MISS:       7007
LLC RFO       ACCESS:       5872  HIT:        875  MISS:       4997
LLC PREFETCH  ACCESS:          0  HIT:          0  MISS:          0
LLC WRITEBACK ACCESS:      21992  HIT:      21950  MISS:         42
Heartbeat CPU 0 instructions: 70000000 cycles: 26444735 heartbeat IPC: 1.65834 cumulative IPC: 1.43853 (Simulation time: 0 hr 31 min 26 sec) 

Region of Interest Statistics
cpu0_DTLB TOTAL     ACCESS:    3528386  HIT:    3427920  MISS:     100466
cpu0_DTLB LOAD      ACCESS:    2772521  HIT:    2708588  MISS:      63933
cpu0_DTLB RFO       ACCESS:     755865  HIT:     719332  MISS:      36533
cpu0_DTLB PREFETCH  ACCESS:          0  HIT:          0  MISS:          0
cpu0_DTLB WRITEBACK ACCESS:          0  HIT:          0  MISS:          0
cpu0_ITLB TOTAL     ACCESS:    1752080  HIT:    1752080  MISS:          0
cpu0_ITLB LOAD      ACCESS:    1752080  HIT:    1752080  MISS:          0
cpu0_ITLB RFO       ACCESS:          0  HIT:          0  MISS:          0
cpu0_ITLB PREFETCH  ACCESS:          0  HIT:          0  MISS:          0
cpu0_ITLB WRITEBACK ACCESS:          0  HIT:          0  MISS:          0
cpu0_L1I TOTAL     ACCESS:     351838  HIT:     351824  MISS:         14
cpu0_L1I LOAD      ACCESS:     351838  HIT:     351824  MISS:         14
cpu0_L1I RFO       ACCESS:          0  HIT:          0  MISS:          0
cpu0_L1I PREFETCH  ACCESS:          0  HIT:          0  MISS:          0
cpu0_L1I WRITEBACK ACCESS:          0  HIT:          0  MISS:          0
cpu0_STLB TOTAL     ACCESS:     100466  HIT:      90109  MISS:      10357
cpu0_STLB LOAD      ACCESS:      63933  HIT:      53910  MISS:      10023
cpu0_STLB RFO       ACCESS:      36533  HIT:      36199  MISS:        334
cpu0_STLB PREFETCH  ACCESS:          0  HIT:          0  MISS:          0
cpu0_STLB WRITEBACK ACCESS:          0  HIT:          0  MISS:          0
cpu0_L1D TOTAL     ACCESS:    3769005  HIT:    3652710  MISS:     116295
cpu0_L1D LOAD      ACCESS:    2489322  HIT:    2400091  MISS:      89231
cpu0_L1D RFO       ACCESS:    1269335  HIT:    1242562  MISS:      26773
cpu0_L1D PREFETCH  ACCESS:          0  HIT:          0  MISS:          0
cpu0_L1D WRITEBACK ACCESS:          0  HIT:          0  MISS:          0
cpu0_L2C TOTAL     ACCESS:     201438  HIT:     166986  MISS:      34452
cpu0_L2C LOAD      ACCESS:      89244  HIT:      61421  MISS:      27823
cpu0_L2C RFO       ACCESS:      26770  HIT:      20263  MISS:       6507
cpu0_L2C PREFETCH  ACCESS:          0  HIT:          0  MISS:          0
cpu0_L2C WRITEBACK ACCESS:      85133  HIT:      85022  MISS:        111
LLC TOTAL     ACCESS:      57967  HIT:      45016  MISS:      12951
LLC LOAD      ACCESS:      27823  HIT:      20470  MISS:       7353
LLC RFO       ACCESS:       6507  HIT:        953  MISS:       5554
LLC PREFETCH  ACCESS:          0  HIT:          0  MISS:          0
LLC WRITEBACK ACCESS:      23626  HIT:      23583  MISS:         43
Heartbeat CPU 0 instructions: 72000004 cycles: 27839519 heartbeat IPC: 1.43392 cumulative IPC: 1.43811 (Simulation time: 0 hr 32 min 19 sec) 

Region of Interest Statistics
cpu0_DTLB TOTAL     ACCESS:    3883693  HIT:    3773654  MISS:     110039
cpu0_DTLB LOAD      ACCESS:    3052169  HIT:    2982276  MISS:      69893
cpu0_DTLB RFO       ACCESS:     831524  HIT:     791378  MISS:      40146
cpu0_DTLB PREFETCH  ACCESS:          0  HIT:          0  MISS:          0
cpu0_DTLB WRITEBACK ACCESS:          0  HIT:          0  MISS:          0
cpu0_ITLB TOTAL     ACCESS:    1925360  HIT:    1925360  MISS:          0
cpu0_ITLB LOAD      ACCESS:    1925360  HIT:    1925360  MISS:          0
cpu0_ITLB RFO       ACCESS:          0  HIT:          0  MISS:          0
cpu0_ITLB PREFETCH  ACCESS:          0  HIT:          0  MISS:          0
cpu0_ITLB WRITEBACK ACCESS:          0  HIT:          0  MISS:          0
cpu0_L1I TOTAL     ACCESS:     386982  HIT:     386965  MISS:         17
cpu0_L1I LOAD      ACCESS:     386982  HIT:     386965  MISS:         17
cpu0_L1I RFO       ACCESS:          0  HIT:          0  MISS:          0
cpu0_L1I PREFETCH  ACCESS:          0  HIT:          0  MISS:          0
cpu0_L1I WRITEBACK ACCESS:          0  HIT:          0  MISS:          0
cpu0_STLB TOTAL     ACCESS:     110039  HIT:      98846  MISS:      11193
cpu0_STLB LOAD      ACCESS:      69893  HIT:      59061  MISS:      10832
cpu0_STLB RFO       ACCESS:      40146  HIT:      39785  MISS:        361
cpu0_STLB PREFETCH  ACCESS:          0  HIT:          0  MISS:          0
cpu0_STLB WRITEBACK ACCESS:          0  HIT:          0  MISS:          0
cpu0_L1D TOTAL     ACCESS:    4146772  HIT:    4019248  MISS:     127524
cpu0_L1D LOAD      ACCESS:    2740510  HIT:    2642834  MISS:      97676
cpu0_L1D RFO       ACCESS:    1395080  HIT:    1365556  MISS:      29524
cpu0_L1D PREFETCH  ACCESS:          0  HIT:          0  MISS:          0
cpu0_L1D WRITEBACK ACCESS:          0  HIT:          0  MISS:          0
cpu0_L2C TOTAL     ACCESS:     220969  HIT:     183491  MISS:      37478
cpu0_L2C LOAD      ACCESS:      97692  HIT:      67577  MISS:      30115
cpu0_L2C RFO       ACCESS:      29519  HIT:      22298  MISS:       7221
cpu0_L2C PREFETCH  ACCESS:          0  HIT:          0  MISS:          0
cpu0_L2C WRITEBACK ACCESS:      93434  HIT:      93304  MISS:        130
LLC TOTAL     ACCESS:      63054  HIT:      48828  MISS:      14226
LLC LOAD      ACCESS:      30115  HIT:      22110  MISS:       8005
LLC RFO       ACCESS:       7221  HIT:       1048  MISS:       6173
LLC PREFETCH  ACCESS:          0  HIT:          0  MISS:          0
LLC WRITEBACK ACCESS:      25706  HIT:      25659  MISS:         47
Heartbeat CPU 0 instructions: 74000003 cycles: 29109962 heartbeat IPC: 1.57425 cumulative IPC: 1.44855 (Simulation time: 0 hr 33 min 9 sec) 

Region of Interest Statistics
cpu0_DTLB TOTAL     ACCESS:    4229948  HIT:    4109990  MISS:     119958
cpu0_DTLB LOAD      ACCESS:    3325388  HIT:    3249481  MISS:      75907
cpu0_DTLB RFO       ACCESS:     904560  HIT:     860509  MISS:      44051
cpu0_DTLB PREFETCH  ACCESS:          0  HIT:          0  MISS:          0
cpu0_DTLB WRITEBACK ACCESS:          0  HIT:          0  MISS:          0
cpu0_ITLB TOTAL     ACCESS:    2097450  HIT:    2097450  MISS:          0
cpu0_ITLB LOAD      ACCESS:    2097450  HIT:    2097450  MISS:          0
cpu0_ITLB RFO       ACCESS:          0  HIT:          0  MISS:          0
cpu0_ITLB PREFETCH  ACCESS:          0  HIT:          0  MISS:          0
cpu0_ITLB WRITEBACK ACCESS:          0  HIT:          0  MISS:          0
cpu0_L1I TOTAL     ACCESS:     423879  HIT:     423861  MISS:         18
cpu0_L1I LOAD      ACCESS:     423879  HIT:     423861  MISS:         18
cpu0_L1I RFO       ACCESS:          0  HIT:          0  MISS:          0
cpu0_L1I PREFETCH  ACCESS:          0  HIT:          0  MISS:          0
cpu0_L1I WRITEBACK ACCESS:          0  HIT:          0  MISS:          0
cpu0_STLB TOTAL     ACCESS:     119958  HIT:     107786  MISS:      12172
cpu0_STLB LOAD      ACCESS:      75907  HIT:      64152  MISS:      11755
cpu0_STLB RFO       ACCESS:      44051  HIT:      43634  MISS:        417
cpu0_STLB PREFETCH  ACCESS:          0  HIT:          0  MISS:          0
cpu0_STLB WRITEBACK ACCESS:          0  HIT:          0  MISS:          0
cpu0_L1D TOTAL     ACCESS:    4509338  HIT:    4371010  MISS:     138328
cpu0_L1D LOAD      ACCESS:    2978683  HIT:    2872866  MISS:     105817
cpu0_L1D RFO       ACCESS:    1518494  HIT:    1486334  MISS:      32160
cpu0_L1D PREFETCH  ACCESS:          0  HIT:          0  MISS:          0
cpu0_L1D WRITEBACK ACCESS:          0  HIT:          0  MISS:          0
cpu0_L2C TOTAL     ACCESS:     239918  HIT:     199352  MISS:      40566
cpu0_L2C LOAD      ACCESS:     105834  HIT:      73321  MISS:      32513
cpu0_L2C RFO       ACCESS:      32152  HIT:      24251  MISS:       7901
cpu0_L2C PREFETCH  ACCESS:          0  HIT:          0  MISS:          0
cpu0_L2C WRITEBACK ACCESS:     101581  HIT:     101442  MISS:        139
LLC TOTAL     ACCESS:      68359  HIT:      53169  MISS:      15190
LLC LOAD      ACCESS:      32513  HIT:      24078  MISS:       8435
LLC RFO       ACCESS:       7901  HIT:       1212  MISS:       6689
LLC PREFETCH  ACCESS:          0  HIT:          0  MISS:          0
LLC WRITEBACK ACCESS:      27932  HIT:      27867  MISS:         65
Heartbeat CPU 0 instructions: 76000003 cycles: 30565684 heartbeat IPC: 1.37389 cumulative IPC: 1.44252 (Simulation time: 0 hr 34 min 4 sec) 

Region of Interest Statistics
cpu0_DTLB TOTAL     ACCESS:    4586739  HIT:    4456827  MISS:     129912
cpu0_DTLB LOAD      ACCESS:    3605859  HIT:    3523518  MISS:      82341
cpu0_DTLB RFO       ACCESS:     980880  HIT:     933309  MISS:      47571
cpu0_DTLB PREFETCH  ACCESS:          0  HIT:          0  MISS:          0
cpu0_DTLB WRITEBACK ACCESS:          0  HIT:          0  MISS:          0
cpu0_ITLB TOTAL     ACCESS:    2271914  HIT:    2271914  MISS:          0
cpu0_ITLB LOAD      ACCESS:    2271914  HIT:    2271914  MISS:          0
cpu0_ITLB RFO       ACCESS:          0  HIT:          0  MISS:          0
cpu0_ITLB PREFETCH  ACCESS:          0  HIT:          0  MISS:          0
cpu0_ITLB WRITEBACK ACCESS:          0  HIT:          0  MISS:          0
cpu0_L1I TOTAL     ACCESS:     458288  HIT:     458267  MISS:         21
cpu0_L1I LOAD      ACCESS:     458288  HIT:     458267  MISS:         21
cpu0_L1I RFO       ACCESS:          0  HIT:          0  MISS:          0
cpu0_L1I PREFETCH  ACCESS:          0  HIT:          0  MISS:          0
cpu0_L1I WRITEBACK ACCESS:          0  HIT:          0  MISS:          0
cpu0_STLB TOTAL     ACCESS:     129912  HIT:     116727  MISS:      13185
cpu0_STLB LOAD      ACCESS:      82341  HIT:      69600  MISS:      12741
cpu0_STLB RFO       ACCESS:      47571  HIT:      47127  MISS:        444
cpu0_STLB PREFETCH  ACCESS:          0  HIT:          0  MISS:          0
cpu0_STLB WRITEBACK ACCESS:          0  HIT:          0  MISS:          0
cpu0_L1D TOTAL     ACCESS:    4895981  HIT:    4747106  MISS:     148875
cpu0_L1D LOAD      ACCESS:    3235261  HIT:    3121427  MISS:     113834
cpu0_L1D RFO       ACCESS:    1647546  HIT:    1612884  MISS:      34662
cpu0_L1D PREFETCH  ACCESS:          0  HIT:          0  MISS:          0
cpu0_L1D WRITEBACK ACCESS:          0  HIT:          0  MISS:          0
cpu0_L2C TOTAL     ACCESS:     258172  HIT:     214246  MISS:      43926
cpu0_L2C LOAD      ACCESS:     113854  HIT:      78688  MISS:      35166
cpu0_L2C RFO       ACCESS:      34653  HIT:      26068  MISS:       8585
cpu0_L2C PREFETCH  ACCESS:          0  HIT:          0  MISS:          0
cpu0_L2C WRITEBACK ACCESS:     109286  HIT:     109125  MISS:        161
LLC TOTAL     ACCESS:      74065  HIT:      57392  MISS:      16673
LLC LOAD      ACCESS:      35166  HIT:      25907  MISS:       9259
LLC RFO       ACCESS:       8585  HIT:       1298  MISS:       7287
LLC PREFETCH  ACCESS:          0  HIT:          0  MISS:          0
LLC WRITEBACK ACCESS:      30300  HIT:      30174  MISS:        126
Heartbeat CPU 0 instructions: 78000003 cycles: 31933255 heartbeat IPC: 1.46245 cumulative IPC: 1.44393 (Simulation time: 0 hr 34 min 52 sec) 

Region of Interest Statistics
cpu0_DTLB TOTAL     ACCESS:    4931540  HIT:    4790929  MISS:     140611
cpu0_DTLB LOAD      ACCESS:    3876727  HIT:    3787537  MISS:      89190
cpu0_DTLB RFO       ACCESS:    1054813  HIT:    1003392  MISS:      51421
cpu0_DTLB PREFETCH  ACCESS:          0  HIT:          0  MISS:          0
cpu0_DTLB WRITEBACK ACCESS:          0  HIT:          0  MISS:          0
cpu0_ITLB TOTAL     ACCESS:    2445021  HIT:    2445021  MISS:          0
cpu0_ITLB LOAD      ACCESS:    2445021  HIT:    2445021  MISS:          0
cpu0_ITLB RFO       ACCESS:          0  HIT:          0  MISS:          0
cpu0_ITLB PREFETCH  ACCESS:          0  HIT:          0  MISS:          0
cpu0_ITLB WRITEBACK ACCESS:          0  HIT:          0  MISS:          0
cpu0_L1I TOTAL     ACCESS:     496010  HIT:     495988  MISS:         22
cpu0_L1I LOAD      ACCESS:     496010  HIT:     495988  MISS:         22
cpu0_L1I RFO       ACCESS:          0  HIT:          0  MISS:          0
cpu0_L1I PREFETCH  ACCESS:          0  HIT:          0  MISS:          0
cpu0_L1I WRITEBACK ACCESS:          0  HIT:          0  MISS:          0
cpu0_STLB TOTAL     ACCESS:     140611  HIT:     126285  MISS:      14326
cpu0_STLB LOAD      ACCESS:      89190  HIT:      75343  MISS:      13847
cpu0_STLB RFO       ACCESS:      51421  HIT:      50942  MISS:        479
cpu0_STLB PREFETCH  ACCESS:          0  HIT:          0  MISS:          0
cpu0_STLB WRITEBACK ACCESS:          0  HIT:          0  MISS:          0
cpu0_L1D TOTAL     ACCESS:    5263774  HIT:    5104542  MISS:     159232
cpu0_L1D LOAD      ACCESS:    3477018  HIT:    3355402  MISS:     121616
cpu0_L1D RFO       ACCESS:    1772443  HIT:    1735232  MISS:      37211
cpu0_L1D PREFETCH  ACCESS:          0  HIT:          0  MISS:          0
cpu0_L1D WRITEBACK ACCESS:          0  HIT:          0  MISS:          0
cpu0_L2C TOTAL     ACCESS:     276271  HIT:     229015  MISS:      47256
cpu0_L2C LOAD      ACCESS:     121637  HIT:      83751  MISS:      37886
cpu0_L2C RFO       ACCESS:      37202  HIT:      28013  MISS:       9189
cpu0_L2C PREFETCH  ACCESS:          0  HIT:          0  MISS:          0
cpu0_L2C WRITEBACK ACCESS:     117027  HIT:     116860  MISS:        167
LLC TOTAL     ACCESS:      79717  HIT:      61656  MISS:      18061
LLC LOAD      ACCESS:      37886  HIT:      27802  MISS:      10084
LLC RFO       ACCESS:       9189  HIT:       1386  MISS:       7803
LLC PREFETCH  ACCESS:          0  HIT:          0  MISS:          0
LLC WRITEBACK ACCESS:      32628  HIT:      32455  MISS:        173
Heartbeat CPU 0 instructions: 80000001 cycles: 33376668 heartbeat IPC: 1.3856 cumulative IPC: 1.43988 (Simulation time: 0 hr 35 min 47 sec) 

Region of Interest Statistics
cpu0_DTLB TOTAL     ACCESS:    5292724  HIT:    5142288  MISS:     150436
cpu0_DTLB LOAD      ACCESS:    4159026  HIT:    4063735  MISS:      95291
cpu0_DTLB RFO       ACCESS:    1133698  HIT:    1078553  MISS:      55145
cpu0_DTLB PREFETCH  ACCESS:          0  HIT:          0  MISS:          0
cpu0_DTLB WRITEBACK ACCESS:          0  HIT:          0  MISS:          0
cpu0_ITLB TOTAL     ACCESS:    2617691  HIT:    2617691  MISS:          0
cpu0_ITLB LOAD      ACCESS:    2617691  HIT:    2617691  MISS:          0
cpu0_ITLB RFO       ACCESS:          0  HIT:          0  MISS:          0
cpu0_ITLB PREFETCH  ACCESS:          0  HIT:          0  MISS:          0
cpu0_ITLB WRITEBACK ACCESS:          0  HIT:          0  MISS:          0
cpu0_L1I TOTAL     ACCESS:     536244  HIT:     536219  MISS:         25
cpu0_L1I LOAD      ACCESS:     536244  HIT:     536219  MISS:         25
cpu0_L1I RFO       ACCESS:          0  HIT:          0  MISS:          0
cpu0_L1I PREFETCH  ACCESS:          0  HIT:          0  MISS:          0
cpu0_L1I WRITEBACK ACCESS:          0  HIT:          0  MISS:          0
cpu0_STLB TOTAL     ACCESS:     150436  HIT:     135138  MISS:      15298
cpu0_STLB LOAD      ACCESS:      95291  HIT:      80525  MISS:      14766
cpu0_STLB RFO       ACCESS:      55145  HIT:      54613  MISS:        532
cpu0_STLB PREFETCH  ACCESS:          0  HIT:          0  MISS:          0
cpu0_STLB WRITEBACK ACCESS:          0  HIT:          0  MISS:          0
cpu0_L1D TOTAL     ACCESS:    5656432  HIT:    5487768  MISS:     168664
cpu0_L1D LOAD      ACCESS:    3731008  HIT:    3601884  MISS:     129124
cpu0_L1D RFO       ACCESS:    1910140  HIT:    1871027  MISS:      39113
cpu0_L1D PREFETCH  ACCESS:          0  HIT:          0  MISS:          0
cpu0_L1D WRITEBACK ACCESS:          0  HIT:          0  MISS:          0
cpu0_L2C TOTAL     ACCESS:     292110  HIT:     240769  MISS:      51341
cpu0_L2C LOAD      ACCESS:     129147  HIT:      87987  MISS:      41160
cpu0_L2C RFO       ACCESS:      39104  HIT:      29132  MISS:       9972
cpu0_L2C PREFETCH  ACCESS:          0  HIT:          0  MISS:          0
cpu0_L2C WRITEBACK ACCESS:     123432  HIT:     123239  MISS:        193
LLC TOTAL     ACCESS:      86613  HIT:      67037  MISS:      19576
LLC LOAD      ACCESS:      41160  HIT:      30212  MISS:      10948
LLC RFO       ACCESS:       9972  HIT:       1559  MISS:       8413
LLC PREFETCH  ACCESS:          0  HIT:          0  MISS:          0
LLC WRITEBACK ACCESS:      35465  HIT:      35251  MISS:        214
Heartbeat CPU 0 instructions: 82000001 cycles: 34563482 heartbeat IPC: 1.68518 cumulative IPC: 1.4531 (Simulation time: 0 hr 36 min 34 sec) 

Region of Interest Statistics
cpu0_DTLB TOTAL     ACCESS:    5628407  HIT:    5465493  MISS:     162914
cpu0_DTLB LOAD      ACCESS:    4411383  HIT:    4309253  MISS:     102130
cpu0_DTLB RFO       ACCESS:    1217024  HIT:    1156240  MISS:      60784
cpu0_DTLB PREFETCH  ACCESS:          0  HIT:          0  MISS:          0
cpu0_DTLB WRITEBACK ACCESS:          0  HIT:          0  MISS:          0
cpu0_ITLB TOTAL     ACCESS:    2782358  HIT:    2782358  MISS:          0
cpu0_ITLB LOAD      ACCESS:    2782358  HIT:    2782358  MISS:          0
cpu0_ITLB RFO       ACCESS:          0  HIT:          0  MISS:          0
cpu0_ITLB PREFETCH  ACCESS:          0  HIT:          0  MISS:          0
cpu0_ITLB WRITEBACK ACCESS:          0  HIT:          0  MISS:          0
cpu0_L1I TOTAL     ACCESS:     584646  HIT:     584621  MISS:         25
cpu0_L1I LOAD      ACCESS:     584646  HIT:     584621  MISS:         25
cpu0_L1I RFO       ACCESS:          0  HIT:          0  MISS:          0
cpu0_L1I PREFETCH  ACCESS:          0  HIT:          0  MISS:          0
cpu0_L1I WRITEBACK ACCESS:          0  HIT:          0  MISS:          0
cpu0_STLB TOTAL     ACCESS:     162914  HIT:     147171  MISS:      15743
cpu0_STLB LOAD      ACCESS:     102130  HIT:      86935  MISS:      15195
cpu0_STLB RFO       ACCESS:      60784  HIT:      60236  MISS:        548
cpu0_STLB PREFETCH  ACCESS:          0  HIT:          0  MISS:          0
cpu0_STLB WRITEBACK ACCESS:          0  HIT:          0  MISS:          0
cpu0_L1D TOTAL     ACCESS:    6048073  HIT:    5872428  MISS:     175645
cpu0_L1D LOAD      ACCESS:    3974290  HIT:    3839474  MISS:     134816
cpu0_L1D RFO       ACCESS:    2058054  HIT:    2017693  MISS:      40361
cpu0_L1D PREFETCH  ACCESS:          0  HIT:          0  MISS:          0
cpu0_L1D WRITEBACK ACCESS:          0  HIT:          0  MISS:          0
cpu0_L2C TOTAL     ACCESS:     303921  HIT:     250610  MISS:      53311
cpu0_L2C LOAD      ACCESS:     134829  HIT:      92345  MISS:      42484
cpu0_L2C RFO       ACCESS:      40352  HIT:      29737  MISS:      10615
cpu0_L2C PREFETCH  ACCESS:          0  HIT:          0  MISS:          0
cpu0_L2C WRITEBACK ACCESS:     128272  HIT:     128076  MISS:        196
LLC TOTAL     ACCESS:      89990  HIT:      69399  MISS:      20591
LLC LOAD      ACCESS:      42484  HIT:      31134  MISS:      11350
LLC RFO       ACCESS:      10615  HIT:       1624  MISS:       8991
LLC PREFETCH  ACCESS:          0  HIT:          0  MISS:          0
LLC WRITEBACK ACCESS:      36875  HIT:      36626  MISS:        249
Heartbeat CPU 0 instructions: 84000001 cycles: 35899784 heartbeat IPC: 1.49667 cumulative IPC: 1.4556 (Simulation time: 0 hr 37 min 27 sec) 

Region of Interest Statistics
cpu0_DTLB TOTAL     ACCESS:    5975983  HIT:    5802505  MISS:     173478
cpu0_DTLB LOAD      ACCESS:    4672684  HIT:    4565583  MISS:     107101
cpu0_DTLB RFO       ACCESS:    1303299  HIT:    1236922  MISS:      66377
cpu0_DTLB PREFETCH  ACCESS:          0  HIT:          0  MISS:          0
cpu0_DTLB WRITEBACK ACCESS:          0  HIT:          0  MISS:          0
cpu0_ITLB TOTAL     ACCESS:    2944697  HIT:    2944697  MISS:          0
cpu0_ITLB LOAD      ACCESS:    2944697  HIT:    2944697  MISS:          0
cpu0_ITLB RFO       ACCESS:          0  HIT:          0  MISS:          0
cpu0_ITLB PREFETCH  ACCESS:          0  HIT:          0  MISS:          0
cpu0_ITLB WRITEBACK ACCESS:          0  HIT:          0  MISS:          0
cpu0_L1I TOTAL     ACCESS:     633368  HIT:     633339  MISS:         29
cpu0_L1I LOAD      ACCESS:     633368  HIT:     633339  MISS:         29
cpu0_L1I RFO       ACCESS:          0  HIT:          0  MISS:          0
cpu0_L1I PREFETCH  ACCESS:          0  HIT:          0  MISS:          0
cpu0_L1I WRITEBACK ACCESS:          0  HIT:          0  MISS:          0
cpu0_STLB TOTAL     ACCESS:     173478  HIT:     157428  MISS:      16050
cpu0_STLB LOAD      ACCESS:     107101  HIT:      91615  MISS:      15486
cpu0_STLB RFO       ACCESS:      66377  HIT:      65813  MISS:        564
cpu0_STLB PREFETCH  ACCESS:          0  HIT:          0  MISS:          0
cpu0_STLB WRITEBACK ACCESS:          0  HIT:          0  MISS:          0
cpu0_L1D TOTAL     ACCESS:    6459139  HIT:    6278537  MISS:     180602
cpu0_L1D LOAD      ACCESS:    4231191  HIT:    4092515  MISS:     138676
cpu0_L1D RFO       ACCESS:    2211912  HIT:    2170472  MISS:      41440
cpu0_L1D PREFETCH  ACCESS:          0  HIT:          0  MISS:          0
cpu0_L1D WRITEBACK ACCESS:          0  HIT:          0  MISS:          0
cpu0_L2C TOTAL     ACCESS:     312171  HIT:     256927  MISS:      55244
cpu0_L2C LOAD      ACCESS:     138693  HIT:      95026  MISS:      43667
cpu0_L2C RFO       ACCESS:      41431  HIT:      30079  MISS:      11352
cpu0_L2C PREFETCH  ACCESS:          0  HIT:          0  MISS:          0
cpu0_L2C WRITEBACK ACCESS:     131561  HIT:     131352  MISS:        209
LLC TOTAL     ACCESS:      93279  HIT:      71392  MISS:      21887
LLC LOAD      ACCESS:      43667  HIT:      31783  MISS:      11884
LLC RFO       ACCESS:      11352  HIT:       1648  MISS:       9704
LLC PREFETCH  ACCESS:          0  HIT:          0  MISS:          0
LLC WRITEBACK ACCESS:      38244  HIT:      37946  MISS:        298
Heartbeat CPU 0 instructions: 86000001 cycles: 37088227 heartbeat IPC: 1.68287 cumulative IPC: 1.4666 (Simulation time: 0 hr 38 min 14 sec) 

Region of Interest Statistics
cpu0_DTLB TOTAL     ACCESS:    6312955  HIT:    6128315  MISS:     184640
cpu0_DTLB LOAD      ACCESS:    4926375  HIT:    4813445  MISS:     112930
cpu0_DTLB RFO       ACCESS:    1386580  HIT:    1314870  MISS:      71710
cpu0_DTLB PREFETCH  ACCESS:          0  HIT:          0  MISS:          0
cpu0_DTLB WRITEBACK ACCESS:          0  HIT:          0  MISS:          0
cpu0_ITLB TOTAL     ACCESS:    3109263  HIT:    3109263  MISS:          0
cpu0_ITLB LOAD      ACCESS:    3109263  HIT:    3109263  MISS:          0
cpu0_ITLB RFO       ACCESS:          0  HIT:          0  MISS:          0
cpu0_ITLB PREFETCH  ACCESS:          0  HIT:          0  MISS:          0
cpu0_ITLB WRITEBACK ACCESS:          0  HIT:          0  MISS:          0
cpu0_L1I TOTAL     ACCESS:     682241  HIT:     682212  MISS:         29
cpu0_L1I LOAD      ACCESS:     682241  HIT:     682212  MISS:         29
cpu0_L1I RFO       ACCESS:          0  HIT:          0  MISS:          0
cpu0_L1I PREFETCH  ACCESS:          0  HIT:          0  MISS:          0
cpu0_L1I WRITEBACK ACCESS:          0  HIT:          0  MISS:          0
cpu0_STLB TOTAL     ACCESS:     184640  HIT:     168316  MISS:      16324
cpu0_STLB LOAD      ACCESS:     112930  HIT:      97181  MISS:      15749
cpu0_STLB RFO       ACCESS:      71710  HIT:      71135  MISS:        575
cpu0_STLB PREFETCH  ACCESS:          0  HIT:          0  MISS:          0
cpu0_STLB WRITEBACK ACCESS:          0  HIT:          0  MISS:          0
cpu0_L1D TOTAL     ACCESS:    6852520  HIT:    6667121  MISS:     185399
cpu0_L1D LOAD      ACCESS:    4475583  HIT:    4333045  MISS:     142538
cpu0_L1D RFO       ACCESS:    2360628  HIT:    2318269  MISS:      42359
cpu0_L1D PREFETCH  ACCESS:          0  HIT:          0  MISS:          0
cpu0_L1D WRITEBACK ACCESS:          0  HIT:          0  MISS:          0
cpu0_L2C TOTAL     ACCESS:     320170  HIT:     263324  MISS:      56846
cpu0_L2C LOAD      ACCESS:     142555  HIT:      97908  MISS:      44647
cpu0_L2C RFO       ACCESS:      42350  HIT:      30379  MISS:      11971
cpu0_L2C PREFETCH  ACCESS:          0  HIT:          0  MISS:          0
cpu0_L2C WRITEBACK ACCESS:     134763  HIT:     134551  MISS:        212
LLC TOTAL     ACCESS:      96080  HIT:      73264  MISS:      22816
LLC LOAD      ACCESS:      44647  HIT:      32430  MISS:      12217
LLC RFO       ACCESS:      11971  HIT:       1692  MISS:      10279
LLC PREFETCH  ACCESS:          0  HIT:          0  MISS:          0
LLC WRITEBACK ACCESS:      39446  HIT:      39127  MISS:        319
Heartbeat CPU 0 instructions: 88000003 cycles: 38380259 heartbeat IPC: 1.54795 cumulative IPC: 1.47067 (Simulation time: 0 hr 39 min 6 sec) 

Region of Interest Statistics
cpu0_DTLB TOTAL     ACCESS:    6660551  HIT:    6465404  MISS:     195147
cpu0_DTLB LOAD      ACCESS:    5189241  HIT:    5070717  MISS:     118524
cpu0_DTLB RFO       ACCESS:    1471310  HIT:    1394687  MISS:      76623
cpu0_DTLB PREFETCH  ACCESS:          0  HIT:          0  MISS:          0
cpu0_DTLB WRITEBACK ACCESS:          0  HIT:          0  MISS:          0
cpu0_ITLB TOTAL     ACCESS:    3271363  HIT:    3271363  MISS:          0
cpu0_ITLB LOAD      ACCESS:    3271363  HIT:    3271363  MISS:          0
cpu0_ITLB RFO       ACCESS:          0  HIT:          0  MISS:          0
cpu0_ITLB PREFETCH  ACCESS:          0  HIT:          0  MISS:          0
cpu0_ITLB WRITEBACK ACCESS:          0  HIT:          0  MISS:          0
cpu0_L1I TOTAL     ACCESS:     731171  HIT:     731142  MISS:         29
cpu0_L1I LOAD      ACCESS:     731171  HIT:     731142  MISS:         29
cpu0_L1I RFO       ACCESS:          0  HIT:          0  MISS:          0
cpu0_L1I PREFETCH  ACCESS:          0  HIT:          0  MISS:          0
cpu0_L1I WRITEBACK ACCESS:          0  HIT:          0  MISS:          0
cpu0_STLB TOTAL     ACCESS:     195147  HIT:     178538  MISS:      16609
cpu0_STLB LOAD      ACCESS:     118524  HIT:     102504  MISS:      16020
cpu0_STLB RFO       ACCESS:      76623  HIT:      76034  MISS:        589
cpu0_STLB PREFETCH  ACCESS:          0  HIT:          0  MISS:          0
cpu0_STLB WRITEBACK ACCESS:          0  HIT:          0  MISS:          0
cpu0_L1D TOTAL     ACCESS:    7257420  HIT:    7066806  MISS:     190614
cpu0_L1D LOAD      ACCESS:    4729987  HIT:    4583379  MISS:     146608
cpu0_L1D RFO       ACCESS:    2510840  HIT:    2467359  MISS:      43481
cpu0_L1D PREFETCH  ACCESS:          0  HIT:          0  MISS:          0
cpu0_L1D WRITEBACK ACCESS:          0  HIT:          0  MISS:          0
cpu0_L2C TOTAL     ACCESS:     328908  HIT:     270175  MISS:      58733
cpu0_L2C LOAD      ACCESS:     146625  HIT:     100827  MISS:      45798
cpu0_L2C RFO       ACCESS:      43472  HIT:      30781  MISS:      12691
cpu0_L2C PREFETCH  ACCESS:          0  HIT:          0  MISS:          0
cpu0_L2C WRITEBACK ACCESS:     138286  HIT:     138058  MISS:        228
LLC TOTAL     ACCESS:      99348  HIT:      75377  MISS:      23971
LLC LOAD      ACCESS:      45797  HIT:      33119  MISS:      12678
LLC RFO       ACCESS:      12691  HIT:       1728  MISS:      10963
LLC PREFETCH  ACCESS:          0  HIT:          0  MISS:          0
LLC WRITEBACK ACCESS:      40844  HIT:      40515  MISS:        329
Heartbeat CPU 0 instructions: 90000001 cycles: 39753006 heartbeat IPC: 1.45693 cumulative IPC: 1.46998 (Simulation time: 0 hr 39 min 55 sec) 

Region of Interest Statistics
cpu0_DTLB TOTAL     ACCESS:    7007316  HIT:    6799675  MISS:     207641
cpu0_DTLB LOAD      ACCESS:    5449500  HIT:    5323367  MISS:     126133
cpu0_DTLB RFO       ACCESS:    1557816  HIT:    1476308  MISS:      81508
cpu0_DTLB PREFETCH  ACCESS:          0  HIT:          0  MISS:          0
cpu0_DTLB WRITEBACK ACCESS:          0  HIT:          0  MISS:          0
cpu0_ITLB TOTAL     ACCESS:    3444825  HIT:    3444825  MISS:          0
cpu0_ITLB LOAD      ACCESS:    3444825  HIT:    3444825  MISS:          0
cpu0_ITLB RFO       ACCESS:          0  HIT:          0  MISS:          0
cpu0_ITLB PREFETCH  ACCESS:          0  HIT:          0  MISS:          0
cpu0_ITLB WRITEBACK ACCESS:          0  HIT:          0  MISS:          0
cpu0_L1I TOTAL     ACCESS:     776541  HIT:     776511  MISS:         30
cpu0_L1I LOAD      ACCESS:     776541  HIT:     776511  MISS:         30
cpu0_L1I RFO       ACCESS:          0  HIT:          0  MISS:          0
cpu0_L1I PREFETCH  ACCESS:          0  HIT:          0  MISS:          0
cpu0_L1I WRITEBACK ACCESS:          0  HIT:          0  MISS:          0
cpu0_STLB TOTAL     ACCESS:     207641  HIT:     189860  MISS:      17781
cpu0_STLB LOAD      ACCESS:     126133  HIT:     108952  MISS:      17181
cpu0_STLB RFO       ACCESS:      81508  HIT:      80908  MISS:        600
cpu0_STLB PREFETCH  ACCESS:          0  HIT:          0  MISS:          0
cpu0_STLB WRITEBACK ACCESS:          0  HIT:          0  MISS:          0
cpu0_L1D TOTAL     ACCESS:    7662988  HIT:    7466149  MISS:     196839
cpu0_L1D LOAD      ACCESS:    4980731  HIT:    4828915  MISS:     151816
cpu0_L1D RFO       ACCESS:    2664492  HIT:    2620008  MISS:      44484
cpu0_L1D PREFETCH  ACCESS:          0  HIT:          0  MISS:          0
cpu0_L1D WRITEBACK ACCESS:          0  HIT:          0  MISS:          0
cpu0_L2C TOTAL     ACCESS:     339113  HIT:     276978  MISS:      62135
cpu0_L2C LOAD      ACCESS:     151834  HIT:     103236  MISS:      48598
cpu0_L2C RFO       ACCESS:      44474  HIT:      31189  MISS:      13285
cpu0_L2C PREFETCH  ACCESS:          0  HIT:          0  MISS:          0
cpu0_L2C WRITEBACK ACCESS:     142266  HIT:     142030  MISS:        236
LLC TOTAL     ACCESS:     105362  HIT:      79697  MISS:      25665
LLC LOAD      ACCESS:      48597  HIT:      34751  MISS:      13846
LLC RFO       ACCESS:      13285  HIT:       1821  MISS:      11464
LLC PREFETCH  ACCESS:          0  HIT:          0  MISS:          0
LLC WRITEBACK ACCESS:      43464  HIT:      43110  MISS:        354
Heartbeat CPU 0 instructions: 92000001 cycles: 41175560 heartbeat IPC: 1.40592 cumulative IPC: 1.46679 (Simulation time: 0 hr 40 min 52 sec) 

Region of Interest Statistics
cpu0_DTLB TOTAL     ACCESS:    7356759  HIT:    7137809  MISS:     218950
cpu0_DTLB LOAD      ACCESS:    5710225  HIT:    5577874  MISS:     132351
cpu0_DTLB RFO       ACCESS:    1646534  HIT:    1559935  MISS:      86599
cpu0_DTLB PREFETCH  ACCESS:          0  HIT:          0  MISS:          0
cpu0_DTLB WRITEBACK ACCESS:          0  HIT:          0  MISS:          0
cpu0_ITLB TOTAL     ACCESS:    3610909  HIT:    3610909  MISS:          0
cpu0_ITLB LOAD      ACCESS:    3610909  HIT:    3610909  MISS:          0
cpu0_ITLB RFO       ACCESS:          0  HIT:          0  MISS:          0
cpu0_ITLB PREFETCH  ACCESS:          0  HIT:          0  MISS:          0
cpu0_ITLB WRITEBACK ACCESS:          0  HIT:          0  MISS:          0
cpu0_L1I TOTAL     ACCESS:     825247  HIT:     825213  MISS:         34
cpu0_L1I LOAD      ACCESS:     825247  HIT:     825213  MISS:         34
cpu0_L1I RFO       ACCESS:          0  HIT:          0  MISS:          0
cpu0_L1I PREFETCH  ACCESS:          0  HIT:          0  MISS:          0
cpu0_L1I WRITEBACK ACCESS:          0  HIT:          0  MISS:          0
cpu0_STLB TOTAL     ACCESS:     218950  HIT:     200415  MISS:      18535
cpu0_STLB LOAD      ACCESS:     132351  HIT:     114440  MISS:      17911
cpu0_STLB RFO       ACCESS:      86599  HIT:      85975  MISS:        624
cpu0_STLB PREFETCH  ACCESS:          0  HIT:          0  MISS:          0
cpu0_STLB WRITEBACK ACCESS:          0  HIT:          0  MISS:          0
cpu0_L1D TOTAL     ACCESS:    8083793  HIT:    7881577  MISS:     202216
cpu0_L1D LOAD      ACCESS:    5241260  HIT:    5085100  MISS:     156160
cpu0_L1D RFO       ACCESS:    2824016  HIT:    2778517  MISS:      45499
cpu0_L1D PREFETCH  ACCESS:          0  HIT:          0  MISS:          0
cpu0_L1D WRITEBACK ACCESS:          0  HIT:          0  MISS:          0
cpu0_L2C TOTAL     ACCESS:     347924  HIT:     282938  MISS:      64986
cpu0_L2C LOAD      ACCESS:     156182  HIT:     105472  MISS:      50710
cpu0_L2C RFO       ACCESS:      45489  HIT:      31495  MISS:      13994
cpu0_L2C PREFETCH  ACCESS:          0  HIT:          0  MISS:          0
cpu0_L2C WRITEBACK ACCESS:     145696  HIT:     145432  MISS:        264
LLC TOTAL     ACCESS:     110356  HIT:      82980  MISS:      27376
LLC LOAD      ACCESS:      50709  HIT:      35842  MISS:      14867
LLC RFO       ACCESS:      13994  HIT:       1853  MISS:      12141
LLC PREFETCH  ACCESS:          0  HIT:          0  MISS:          0
LLC WRITEBACK ACCESS:      45635  HIT:      45268  MISS:        367
Heartbeat CPU 0 instructions: 94000003 cycles: 42424254 heartbeat IPC: 1.60168 cumulative IPC: 1.47243 (Simulation time: 0 hr 41 min 42 sec) 

Region of Interest Statistics
cpu0_DTLB TOTAL     ACCESS:    7693716  HIT:    7462742  MISS:     230974
cpu0_DTLB LOAD      ACCESS:    5961696  HIT:    5823002  MISS:     138694
cpu0_DTLB RFO       ACCESS:    1732020  HIT:    1639740  MISS:      92280
cpu0_DTLB PREFETCH  ACCESS:          0  HIT:          0  MISS:          0
cpu0_DTLB WRITEBACK ACCESS:          0  HIT:          0  MISS:          0
cpu0_ITLB TOTAL     ACCESS:    3775518  HIT:    3775518  MISS:          0
cpu0_ITLB LOAD      ACCESS:    3775518  HIT:    3775518  MISS:          0
cpu0_ITLB RFO       ACCESS:          0  HIT:          0  MISS:          0
cpu0_ITLB PREFETCH  ACCESS:          0  HIT:          0  MISS:          0
cpu0_ITLB WRITEBACK ACCESS:          0  HIT:          0  MISS:          0
cpu0_L1I TOTAL     ACCESS:     875345  HIT:     875311  MISS:         34
cpu0_L1I LOAD      ACCESS:     875345  HIT:     875311  MISS:         34
cpu0_L1I RFO       ACCESS:          0  HIT:          0  MISS:          0
cpu0_L1I PREFETCH  ACCESS:          0  HIT:          0  MISS:          0
cpu0_L1I WRITEBACK ACCESS:          0  HIT:          0  MISS:          0
cpu0_STLB TOTAL     ACCESS:     230974  HIT:     211830  MISS:      19144
cpu0_STLB LOAD      ACCESS:     138694  HIT:     120185  MISS:      18509
cpu0_STLB RFO       ACCESS:      92280  HIT:      91645  MISS:        635
cpu0_STLB PREFETCH  ACCESS:          0  HIT:          0  MISS:          0
cpu0_STLB WRITEBACK ACCESS:          0  HIT:          0  MISS:          0
cpu0_L1D TOTAL     ACCESS:    8482759  HIT:    8276049  MISS:     206710
cpu0_L1D LOAD      ACCESS:    5486101  HIT:    5326364  MISS:     159737
cpu0_L1D RFO       ACCESS:    2977534  HIT:    2931126  MISS:      46408
cpu0_L1D PREFETCH  ACCESS:          0  HIT:          0  MISS:          0
cpu0_L1D WRITEBACK ACCESS:          0  HIT:          0  MISS:          0
cpu0_L2C TOTAL     ACCESS:     355419  HIT:     288432  MISS:      66987
cpu0_L2C LOAD      ACCESS:     159759  HIT:     107681  MISS:      52078
cpu0_L2C RFO       ACCESS:      46398  HIT:      31772  MISS:      14626
cpu0_L2C PREFETCH  ACCESS:          0  HIT:          0  MISS:          0
cpu0_L2C WRITEBACK ACCESS:     148697  HIT:     148432  MISS:        265
LLC TOTAL     ACCESS:     113768  HIT:      85092  MISS:      28676
LLC LOAD      ACCESS:      52077  HIT:      36537  MISS:      15540
LLC RFO       ACCESS:      14626  HIT:       1881  MISS:      12745
LLC PREFETCH  ACCESS:          0  HIT:          0  MISS:          0
LLC WRITEBACK ACCESS:      47047  HIT:      46657  MISS:        390
Heartbeat CPU 0 instructions: 96000003 cycles: 43772594 heartbeat IPC: 1.48331 cumulative IPC: 1.4729 (Simulation time: 0 hr 42 min 36 sec) 

Region of Interest Statistics
cpu0_DTLB TOTAL     ACCESS:    8043360  HIT:    7802117  MISS:     241243
cpu0_DTLB LOAD      ACCESS:    6229658  HIT:    6085589  MISS:     144069
cpu0_DTLB RFO       ACCESS:    1813702  HIT:    1716528  MISS:      97174
cpu0_DTLB PREFETCH  ACCESS:          0  HIT:          0  MISS:          0
cpu0_DTLB WRITEBACK ACCESS:          0  HIT:          0  MISS:          0
cpu0_ITLB TOTAL     ACCESS:    3941717  HIT:    3941717  MISS:          0
cpu0_ITLB LOAD      ACCESS:    3941717  HIT:    3941717  MISS:          0
cpu0_ITLB RFO       ACCESS:          0  HIT:          0  MISS:          0
cpu0_ITLB PREFETCH  ACCESS:          0  HIT:          0  MISS:          0
cpu0_ITLB WRITEBACK ACCESS:          0  HIT:          0  MISS:          0
cpu0_L1I TOTAL     ACCESS:     919042  HIT:     919005  MISS:         37
cpu0_L1I LOAD      ACCESS:     919042  HIT:     919005  MISS:         37
cpu0_L1I RFO       ACCESS:          0  HIT:          0  MISS:          0
cpu0_L1I PREFETCH  ACCESS:          0  HIT:          0  MISS:          0
cpu0_L1I WRITEBACK ACCESS:          0  HIT:          0  MISS:          0
cpu0_STLB TOTAL     ACCESS:     241243  HIT:     221297  MISS:      19946
cpu0_STLB LOAD      ACCESS:     144069  HIT:     124828  MISS:      19241
cpu0_STLB RFO       ACCESS:      97174  HIT:      96469  MISS:        705
cpu0_STLB PREFETCH  ACCESS:          0  HIT:          0  MISS:          0
cpu0_STLB WRITEBACK ACCESS:          0  HIT:          0  MISS:          0
cpu0_L1D TOTAL     ACCESS:    8879984  HIT:    8667674  MISS:     212310
cpu0_L1D LOAD      ACCESS:    5737802  HIT:    5573731  MISS:     164071
cpu0_L1D RFO       ACCESS:    3122258  HIT:    3074598  MISS:      47660
cpu0_L1D PREFETCH  ACCESS:          0  HIT:          0  MISS:          0
cpu0_L1D WRITEBACK ACCESS:          0  HIT:          0  MISS:          0
cpu0_L2C TOTAL     ACCESS:     364792  HIT:     295062  MISS:      69730
cpu0_L2C LOAD      ACCESS:     164096  HIT:     110165  MISS:      53931
cpu0_L2C RFO       ACCESS:      47650  HIT:      32182  MISS:      15468
cpu0_L2C PREFETCH  ACCESS:          0  HIT:          0  MISS:          0
cpu0_L2C WRITEBACK ACCESS:     152467  HIT:     152155  MISS:        312
LLC TOTAL     ACCESS:     118439  HIT:      88410  MISS:      30029
LLC LOAD      ACCESS:      53930  HIT:      37741  MISS:      16189
LLC RFO       ACCESS:      15468  HIT:       2053  MISS:      13415
LLC PREFETCH  ACCESS:          0  HIT:          0  MISS:          0
LLC WRITEBACK ACCESS:      49022  HIT:      48598  MISS:        424
Heartbeat CPU 0 instructions: 98000002 cycles: 45147949 heartbeat IPC: 1.45417 cumulative IPC: 1.47211 (Simulation time: 0 hr 43 min 23 sec) 

Region of Interest Statistics
cpu0_DTLB TOTAL     ACCESS:    8389714  HIT:    8137165  MISS:     252549
cpu0_DTLB LOAD      ACCESS:    6500934  HIT:    6349794  MISS:     151140
cpu0_DTLB RFO       ACCESS:    1888780  HIT:    1787371  MISS:     101409
cpu0_DTLB PREFETCH  ACCESS:          0  HIT:          0  MISS:          0
cpu0_DTLB WRITEBACK ACCESS:          0  HIT:          0  MISS:          0
cpu0_ITLB TOTAL     ACCESS:    4114991  HIT:    4114991  MISS:          0
cpu0_ITLB LOAD      ACCESS:    4114991  HIT:    4114991  MISS:          0
cpu0_ITLB RFO       ACCESS:          0  HIT:          0  MISS:          0
cpu0_ITLB PREFETCH  ACCESS:          0  HIT:          0  MISS:          0
cpu0_ITLB WRITEBACK ACCESS:          0  HIT:          0  MISS:          0
cpu0_L1I TOTAL     ACCESS:     956864  HIT:     956826  MISS:         38
cpu0_L1I LOAD      ACCESS:     956864  HIT:     956826  MISS:         38
cpu0_L1I RFO       ACCESS:          0  HIT:          0  MISS:          0
cpu0_L1I PREFETCH  ACCESS:          0  HIT:          0  MISS:          0
cpu0_L1I WRITEBACK ACCESS:          0  HIT:          0  MISS:          0
cpu0_STLB TOTAL     ACCESS:     252549  HIT:     231316  MISS:      21233
cpu0_STLB LOAD      ACCESS:     151140  HIT:     130656  MISS:      20484
cpu0_STLB RFO       ACCESS:     101409  HIT:     100660  MISS:        749
cpu0_STLB PREFETCH  ACCESS:          0  HIT:          0  MISS:          0
cpu0_STLB WRITEBACK ACCESS:          0  HIT:          0  MISS:          0
cpu0_L1D TOTAL     ACCESS:    9252190  HIT:    9028121  MISS:     224069
cpu0_L1D LOAD      ACCESS:    5980932  HIT:    5807694  MISS:     173238
cpu0_L1D RFO       ACCESS:    3250050  HIT:    3199822  MISS:      50228
cpu0_L1D PREFETCH  ACCESS:          0  HIT:          0  MISS:          0
cpu0_L1D WRITEBACK ACCESS:          0  HIT:          0  MISS:          0
cpu0_L2C TOTAL     ACCESS:     384857  HIT:     310995  MISS:      73862
cpu0_L2C LOAD      ACCESS:     173264  HIT:     115907  MISS:      57357
cpu0_L2C RFO       ACCESS:      50218  HIT:      34072  MISS:      16146
cpu0_L2C PREFETCH  ACCESS:          0  HIT:          0  MISS:          0
cpu0_L2C WRITEBACK ACCESS:     160772  HIT:     160433  MISS:        339
LLC TOTAL     ACCESS:     125448  HIT:      94014  MISS:      31434
LLC LOAD      ACCESS:      57356  HIT:      40316  MISS:      17040
LLC RFO       ACCESS:      16146  HIT:       2212  MISS:      13934
LLC PREFETCH  ACCESS:          0  HIT:          0  MISS:          0
LLC WRITEBACK ACCESS:      51926  HIT:      51467  MISS:        459
Heartbeat CPU 0 instructions: 100000001 cycles: 46641453 heartbeat IPC: 1.33913 cumulative IPC: 1.46628 (Simulation time: 0 hr 44 min 17 sec) 

Region of Interest Statistics
cpu0_DTLB TOTAL     ACCESS:    8742163  HIT:    8478503  MISS:     263660
cpu0_DTLB LOAD      ACCESS:    6777606  HIT:    6619249  MISS:     158357
cpu0_DTLB RFO       ACCESS:    1964557  HIT:    1859254  MISS:     105303
cpu0_DTLB PREFETCH  ACCESS:          0  HIT:          0  MISS:          0
cpu0_DTLB WRITEBACK ACCESS:          0  HIT:          0  MISS:          0
cpu0_ITLB TOTAL     ACCESS:    4287249  HIT:    4287249  MISS:          0
cpu0_ITLB LOAD      ACCESS:    4287249  HIT:    4287249  MISS:          0
cpu0_ITLB RFO       ACCESS:          0  HIT:          0  MISS:          0
cpu0_ITLB PREFETCH  ACCESS:          0  HIT:          0  MISS:          0
cpu0_ITLB WRITEBACK ACCESS:          0  HIT:          0  MISS:          0
cpu0_L1I TOTAL     ACCESS:     991904  HIT:     991862  MISS:         42
cpu0_L1I LOAD      ACCESS:     991904  HIT:     991862  MISS:         42
cpu0_L1I RFO       ACCESS:          0  HIT:          0  MISS:          0
cpu0_L1I PREFETCH  ACCESS:          0  HIT:          0  MISS:          0
cpu0_L1I WRITEBACK ACCESS:          0  HIT:          0  MISS:          0
cpu0_STLB TOTAL     ACCESS:     263660  HIT:     241108  MISS:      22552
cpu0_STLB LOAD      ACCESS:     158357  HIT:     136607  MISS:      21750
cpu0_STLB RFO       ACCESS:     105303  HIT:     104501  MISS:        802
cpu0_STLB PREFETCH  ACCESS:          0  HIT:          0  MISS:          0
cpu0_STLB WRITEBACK ACCESS:          0  HIT:          0  MISS:          0
cpu0_L1D TOTAL     ACCESS:    9636438  HIT:    9399680  MISS:     236758
cpu0_L1D LOAD      ACCESS:    6235866  HIT:    6052675  MISS:     183191
cpu0_L1D RFO       ACCESS:    3378049  HIT:    3325119  MISS:      52930
cpu0_L1D PREFETCH  ACCESS:          0  HIT:          0  MISS:          0
cpu0_L1D WRITEBACK ACCESS:          0  HIT:          0  MISS:          0
cpu0_L2C TOTAL     ACCESS:     406389  HIT:     327982  MISS:      78407
cpu0_L2C LOAD      ACCESS:     183221  HIT:     122090  MISS:      61131
cpu0_L2C RFO       ACCESS:      52919  HIT:      36013  MISS:      16906
cpu0_L2C PREFETCH  ACCESS:          0  HIT:          0  MISS:          0
cpu0_L2C WRITEBACK ACCESS:     169612  HIT:     169263  MISS:        349
LLC TOTAL     ACCESS:     133159  HIT:     100061  MISS:      33098
LLC LOAD      ACCESS:      61130  HIT:      43068  MISS:      18062
LLC RFO       ACCESS:      16906  HIT:       2368  MISS:      14538
LLC PREFETCH  ACCESS:          0  HIT:          0  MISS:          0
LLC WRITEBACK ACCESS:      55102  HIT:      54605  MISS:        497
Heartbeat CPU 0 instructions: 102000003 cycles: 47874400 heartbeat IPC: 1.62213 cumulative IPC: 1.47172 (Simulation time: 0 hr 45 min 8 sec) 

Region of Interest Statistics
cpu0_DTLB TOTAL     ACCESS:    9070862  HIT:    8796643  MISS:     274219
cpu0_DTLB LOAD      ACCESS:    7036356  HIT:    6872678  MISS:     163678
cpu0_DTLB RFO       ACCESS:    2034506  HIT:    1923965  MISS:     110541
cpu0_DTLB PREFETCH  ACCESS:          0  HIT:          0  MISS:          0
cpu0_DTLB WRITEBACK ACCESS:          0  HIT:          0  MISS:          0
cpu0_ITLB TOTAL     ACCESS:    4444708  HIT:    4444708  MISS:          0
cpu0_ITLB LOAD      ACCESS:    4444708  HIT:    4444708  MISS:          0
cpu0_ITLB RFO       ACCESS:          0  HIT:          0  MISS:          0
cpu0_ITLB PREFETCH  ACCESS:          0  HIT:          0  MISS:          0
cpu0_ITLB WRITEBACK ACCESS:          0  HIT:          0  MISS:          0
cpu0_L1I TOTAL     ACCESS:    1032974  HIT:    1032932  MISS:         42
cpu0_L1I LOAD      ACCESS:    1032974  HIT:    1032932  MISS:         42
cpu0_L1I RFO       ACCESS:          0  HIT:          0  MISS:          0
cpu0_L1I PREFETCH  ACCESS:          0  HIT:          0  MISS:          0
cpu0_L1I WRITEBACK ACCESS:          0  HIT:          0  MISS:          0
cpu0_STLB TOTAL     ACCESS:     274219  HIT:     251033  MISS:      23186
cpu0_STLB LOAD      ACCESS:     163678  HIT:     141323  MISS:      22355
cpu0_STLB RFO       ACCESS:     110541  HIT:     109710  MISS:        831
cpu0_STLB PREFETCH  ACCESS:          0  HIT:          0  MISS:          0
cpu0_STLB WRITEBACK ACCESS:          0  HIT:          0  MISS:          0
cpu0_L1D TOTAL     ACCESS:    9990531  HIT:    9744149  MISS:     246382
cpu0_L1D LOAD      ACCESS:    6469168  HIT:    6279210  MISS:     189958
cpu0_L1D RFO       ACCESS:    3498208  HIT:    3442460  MISS:      55748
cpu0_L1D PREFETCH  ACCESS:          0  HIT:          0  MISS:          0
cpu0_L1D WRITEBACK ACCESS:          0  HIT:          0  MISS:          0
cpu0_L2C TOTAL     ACCESS:     423446  HIT:     342589  MISS:      80857
cpu0_L2C LOAD      ACCESS:     189988  HIT:     127123  MISS:      62865
cpu0_L2C RFO       ACCESS:      55737  HIT:      38121  MISS:      17616
cpu0_L2C PREFETCH  ACCESS:          0  HIT:          0  MISS:          0
cpu0_L2C WRITEBACK ACCESS:     177045  HIT:     176690  MISS:        355
LLC TOTAL     ACCESS:     137321  HIT:     103140  MISS:      34181
LLC LOAD      ACCESS:      62863  HIT:      44357  MISS:      18506
LLC RFO       ACCESS:      17616  HIT:       2455  MISS:      15161
LLC PREFETCH  ACCESS:          0  HIT:          0  MISS:          0
LLC WRITEBACK ACCESS:      56821  HIT:      56308  MISS:        513
Heartbeat CPU 0 instructions: 104000003 cycles: 49042278 heartbeat IPC: 1.71251 cumulative IPC: 1.47943 (Simulation time: 0 hr 45 min 56 sec) 

Region of Interest Statistics
cpu0_DTLB TOTAL     ACCESS:    9387267  HIT:    9102701  MISS:     284566
cpu0_DTLB LOAD      ACCESS:    7281320  HIT:    7113104  MISS:     168216
cpu0_DTLB RFO       ACCESS:    2105947  HIT:    1989597  MISS:     116350
cpu0_DTLB PREFETCH  ACCESS:          0  HIT:          0  MISS:          0
cpu0_DTLB WRITEBACK ACCESS:          0  HIT:          0  MISS:          0
cpu0_ITLB TOTAL     ACCESS:    4598182  HIT:    4598182  MISS:          0
cpu0_ITLB LOAD      ACCESS:    4598182  HIT:    4598182  MISS:          0
cpu0_ITLB RFO       ACCESS:          0  HIT:          0  MISS:          0
cpu0_ITLB PREFETCH  ACCESS:          0  HIT:          0  MISS:          0
cpu0_ITLB WRITEBACK ACCESS:          0  HIT:          0  MISS:          0
cpu0_L1I TOTAL     ACCESS:    1076410  HIT:    1076365  MISS:         45
cpu0_L1I LOAD      ACCESS:    1076410  HIT:    1076365  MISS:         45
cpu0_L1I RFO       ACCESS:          0  HIT:          0  MISS:          0
cpu0_L1I PREFETCH  ACCESS:          0  HIT:          0  MISS:          0
cpu0_L1I WRITEBACK ACCESS:          0  HIT:          0  MISS:          0
cpu0_STLB TOTAL     ACCESS:     284566  HIT:     260840  MISS:      23726
cpu0_STLB LOAD      ACCESS:     168216  HIT:     145359  MISS:      22857
cpu0_STLB RFO       ACCESS:     116350  HIT:     115481  MISS:        869
cpu0_STLB PREFETCH  ACCESS:          0  HIT:          0  MISS:          0
cpu0_STLB WRITEBACK ACCESS:          0  HIT:          0  MISS:          0
cpu0_L1D TOTAL     ACCESS:   10333508  HIT:   10077517  MISS:     255991
cpu0_L1D LOAD      ACCESS:    6691650  HIT:    6495407  MISS:     196243
cpu0_L1D RFO       ACCESS:    3618167  HIT:    3559140  MISS:      59027
cpu0_L1D PREFETCH  ACCESS:          0  HIT:          0  MISS:          0
cpu0_L1D WRITEBACK ACCESS:          0  HIT:          0  MISS:          0
cpu0_L2C TOTAL     ACCESS:     440554  HIT:     357432  MISS:      83122
cpu0_L2C LOAD      ACCESS:     196276  HIT:     132044  MISS:      64232
cpu0_L2C RFO       ACCESS:      59016  HIT:      40505  MISS:      18511
cpu0_L2C PREFETCH  ACCESS:          0  HIT:          0  MISS:          0
cpu0_L2C WRITEBACK ACCESS:     184541  HIT:     184183  MISS:        358
LLC TOTAL     ACCESS:     141216  HIT:     105694  MISS:      35522
LLC LOAD      ACCESS:      64230  HIT:      45224  MISS:      19006
LLC RFO       ACCESS:      18511  HIT:       2524  MISS:      15987
LLC PREFETCH  ACCESS:          0  HIT:          0  MISS:          0
LLC WRITEBACK ACCESS:      58454  HIT:      57926  MISS:        528
Heartbeat CPU 0 instructions: 106000004 cycles: 50396126 heartbeat IPC: 1.47727 cumulative IPC: 1.47935 (Simulation time: 0 hr 46 min 47 sec) 

Region of Interest Statistics
cpu0_DTLB TOTAL     ACCESS:    9728229  HIT:    9432587  MISS:     295642
cpu0_DTLB LOAD      ACCESS:    7547825  HIT:    7373208  MISS:     174617
cpu0_DTLB RFO       ACCESS:    2180404  HIT:    2059379  MISS:     121025
cpu0_DTLB PREFETCH  ACCESS:          0  HIT:          0  MISS:          0
cpu0_DTLB WRITEBACK ACCESS:          0  HIT:          0  MISS:          0
cpu0_ITLB TOTAL     ACCESS:    4762491  HIT:    4762491  MISS:          0
cpu0_ITLB LOAD      ACCESS:    4762491  HIT:    4762491  MISS:          0
cpu0_ITLB RFO       ACCESS:          0  HIT:          0  MISS:          0
cpu0_ITLB PREFETCH  ACCESS:          0  HIT:          0  MISS:          0
cpu0_ITLB WRITEBACK ACCESS:          0  HIT:          0  MISS:          0
cpu0_L1I TOTAL     ACCESS:    1114754  HIT:    1114709  MISS:         45
cpu0_L1I LOAD      ACCESS:    1114754  HIT:    1114709  MISS:         45
cpu0_L1I RFO       ACCESS:          0  HIT:          0  MISS:          0
cpu0_L1I PREFETCH  ACCESS:          0  HIT:          0  MISS:          0
cpu0_L1I WRITEBACK ACCESS:          0  HIT:          0  MISS:          0
cpu0_STLB TOTAL     ACCESS:     295642  HIT:     270931  MISS:      24711
cpu0_STLB LOAD      ACCESS:     174617  HIT:     150826  MISS:      23791
cpu0_STLB RFO       ACCESS:     121025  HIT:     120105  MISS:        920
cpu0_STLB PREFETCH  ACCESS:          0  HIT:          0  MISS:          0
cpu0_STLB WRITEBACK ACCESS:          0  HIT:          0  MISS:          0
cpu0_L1D TOTAL     ACCESS:   10699770  HIT:   10430462  MISS:     269308
cpu0_L1D LOAD      ACCESS:    6933257  HIT:    6726900  MISS:     206357
cpu0_L1D RFO       ACCESS:    3741837  HIT:    3679647  MISS:      62190
cpu0_L1D PREFETCH  ACCESS:          0  HIT:          0  MISS:          0
cpu0_L1D WRITEBACK ACCESS:          0  HIT:          0  MISS:          0
cpu0_L2C TOTAL     ACCESS:     463578  HIT:     377086  MISS:      86492
cpu0_L2C LOAD      ACCESS:     206390  HIT:     139587  MISS:      66803
cpu0_L2C RFO       ACCESS:      62175  HIT:      42875  MISS:      19300
cpu0_L2C PREFETCH  ACCESS:          0  HIT:          0  MISS:          0
cpu0_L2C WRITEBACK ACCESS:     194252  HIT:     193885  MISS:        367
LLC TOTAL     ACCESS:     146933  HIT:     109912  MISS:      37021
[...]
cpu0_ITLB LOAD      ACCESS:  128755741  HIT:  128755738  MISS:          3
cpu0_ITLB RFO       ACCESS:          0  HIT:          0  MISS:          0
cpu0_ITLB PREFETCH  ACCESS:          0  HIT:          0  MISS:          0
cpu0_ITLB WRITEBACK ACCESS:          0  HIT:          0  MISS:          0
cpu0_ITLB TRANSLATION ACCESS:          0  HIT:          0  MISS:          0
cpu0_ITLB PREFETCH  REQUESTED:          0  ISSUED:          0  USEFUL:          0  USELESS:          0
cpu0_ITLB AVERAGE MISS LATENCY: 220.667 cycles
cpu0_L1I TOTAL     ACCESS:   26734439  HIT:   26733475  MISS:        964
cpu0_L1I LOAD      ACCESS:   26734439  HIT:   26733475  MISS:        964
cpu0_L1I RFO       ACCESS:          0  HIT:          0  MISS:          0
cpu0_L1I PREFETCH  ACCESS:          0  HIT:          0  MISS:          0
cpu0_L1I WRITEBACK ACCESS:          0  HIT:          0  MISS:          0
cpu0_L1I TRANSLATION ACCESS:          0  HIT:          0  MISS:          0
cpu0_L1I PREFETCH  REQUESTED:          0  ISSUED:          0  USEFUL:          0  USELESS:          0
cpu0_L1I AVERAGE MISS LATENCY: 42.4803 cycles
cpu0_STLB TOTAL     ACCESS:    7544499  HIT:    6812849  MISS:     731650
cpu0_STLB LOAD      ACCESS:    4568882  HIT:    3889759  MISS:     679123
cpu0_STLB RFO       ACCESS:    2975617  HIT:    2923090  MISS:      52527
cpu0_STLB PREFETCH  ACCESS:          0  HIT:          0  MISS:          0
cpu0_STLB WRITEBACK ACCESS:          0  HIT:          0  MISS:          0
cpu0_STLB TRANSLATION ACCESS:          0  HIT:          0  MISS:          0
cpu0_STLB PREFETCH  REQUESTED:          0  ISSUED:          0  USEFUL:          0  USELESS:          0
cpu0_STLB AVERAGE MISS LATENCY: 14.3344 cycles
cpu0_L1D TOTAL     ACCESS:  276929063  HIT:  269175441  MISS:    7753622
cpu0_L1D LOAD      ACCESS:  182561084  HIT:  176717448  MISS:    5843636
cpu0_L1D RFO       ACCESS:   93637413  HIT:   91743908  MISS:    1893505
cpu0_L1D PREFETCH  ACCESS:          0  HIT:          0  MISS:          0
cpu0_L1D WRITEBACK ACCESS:          0  HIT:          0  MISS:          0
cpu0_L1D TRANSLATION ACCESS:     730566  HIT:     714085  MISS:      16481
cpu0_L1D PREFETCH  REQUESTED:          0  ISSUED:          0  USEFUL:          0  USELESS:          0
cpu0_L1D AVERAGE MISS LATENCY: 59.8924 cycles
cpu0_L2C TOTAL     ACCESS:   13437890  HIT:   10583790  MISS:    2854100
cpu0_L2C LOAD      ACCESS:    5844396  HIT:    3651898  MISS:    2192498
cpu0_L2C RFO       ACCESS:    1893147  HIT:    1240644  MISS:     652503
cpu0_L2C PREFETCH  ACCESS:          0  HIT:          0  MISS:          0
cpu0_L2C WRITEBACK ACCESS:    5683866  HIT:    5675555  MISS:       8311
cpu0_L2C TRANSLATION ACCESS:      16481  HIT:      15693  MISS:        788
cpu0_L2C PREFETCH  REQUESTED:          0  ISSUED:          0  USEFUL:          0  USELESS:          0
cpu0_L2C AVERAGE MISS LATENCY: 132.784 cycles
LLC TOTAL     ACCESS:    4881735  HIT:    3562283  MISS:    1319452
LLC LOAD      ACCESS:    2192491  HIT:    1412236  MISS:     780255
LLC RFO       ACCESS:     652493  HIT:     138724  MISS:     513769
LLC PREFETCH  ACCESS:          0  HIT:          0  MISS:          0
LLC WRITEBACK ACCESS:    2035963  HIT:    2010552  MISS:      25411
LLC TRANSLATION ACCESS:        788  HIT:        771  MISS:         17
LLC PREFETCH  REQUESTED:          0  ISSUED:          0  USEFUL:          0  USELESS:          0
LLC AVERAGE MISS LATENCY: 241.931 cycles
~~~~~~~~~~Reuse Distance Profiler output~~~~~~~~~~
0	34237520	11451936
1	45659696	33538224
2	23707776	16016656
3	19373280	14326320
4	15299680	11039888
5	13341776	9065872
6	8012592	5567280
7	6833488	3943968
8	5774816	3082240
9	4305008	2594176
10	3836064	2615456
11	4283104	2894608
12	3772656	2618032
13	3137712	1953424
14	3166208	2130880
15	3156192	2209552
16	3212880	2007920
17	1997056	1010496
18	1408448	836880
19	1452944	926704
20	1293216	810240
21	1269600	823520
22	1317728	855056
23	1572144	934864
24	1986000	1162992
25	1548608	962448
26	1347296	869264
27	1241792	776432
28	2175632	1699072
29	1510832	1056624
30	1191472	582928
31	1015760	430752
32	696560	440448
33	644400	452720
34	952256	761552
35	1098112	558352
36	1219632	1051040
37	645888	526608
38	542272	418480
39	535232	450176
40	453968	365424
41	443712	345056
42	461648	331872
43	418480	312768
44	484496	382400
45	412224	319616
46	437488	363312
47	452272	384976
48	458608	390304
49	489424	428320
50	421328	353088
51	397376	333808
52	369088	303344
53	379904	304576
54	447584	376544
55	379136	322224
56	371184	317232
57	362688	311264
58	363424	310832
59	430256	378608
60	334496	281568
61	331792	281600
62	312448	264144
63	312368	265760
64	679904	588800
66	574576	482992
68	610416	513552
70	561184	451392
72	538112	407744
74	516480	421152
76	409216	331600
78	447488	383280
80	383536	332672
82	353728	303712
84	380864	334576
86	312480	267568
88	350656	309360
90	286400	247568
92	274784	238432
94	320368	283632
96	259584	224048
98	308912	273936
100	263488	229888
102	258992	225648
104	283968	251648
106	247008	209392
108	300896	259744
110	256544	216592
112	235328	204400
114	291920	261920
116	249216	220640
118	288000	258224
120	197072	169392
122	185120	158720
124	219888	193232
126	170048	143888
128	360320	309568
132	359952	310320
136	370160	316912
140	311856	250608
144	351504	277584
148	321104	263664
152	314512	260528
156	309632	262016
160	299888	253152
164	366560	320576
168	403536	348784
172	417088	362496
176	384384	327392
180	359328	290624
184	356880	300672
188	292000	242000
192	250144	198512
196	231584	182864
200	202800	155328
204	217056	171744
208	216352	166752
212	216224	166096
216	224320	157472
220	194368	135952
224	208720	155136
228	207360	157440
232	211360	154960
236	208496	155872
240	185008	138960
244	203600	160896
248	201616	158256
252	209120	159104
256	374336	286560
264	386064	296400
272	373696	285744
280	346752	272112
288	351584	274352
296	325728	259904
304	322656	265120
312	312096	258704
320	308080	238240
328	313424	252400
336	278064	232064
344	286848	244352
352	277824	237264
360	269024	222960
368	273680	225360
376	247440	210688
384	239232	207536
392	232800	197840
400	221744	180624
408	215856	183088
416	186624	159472
424	184000	159888
432	181584	150608
440	161776	134432
448	155744	129392
456	137712	115312
464	134576	108784
472	126272	99312
480	104864	87648
488	102272	85952
496	89360	74896
504	86800	71184
512	152032	122304
528	127776	104096
544	119808	95696
560	94848	78192
576	91168	66576
592	82160	57824
608	73168	51904
624	68704	49504
640	64128	46304
656	67264	43216
672	65360	44896
688	58112	39040
704	52240	37488
720	54208	36416
736	57600	35760
752	53632	35008
768	49344	34288
784	52784	36512
800	52592	34016
816	55168	38288
832	61504	36448
848	59840	34752
864	54464	32896
880	48528	32864
896	50496	34752
912	63488	36800
928	60736	36368
944	66848	40032
960	65008	36736
976	63872	35056
992	61600	32736
1008	55952	30416
1024	100848	61584
1056	106128	64464
1088	110848	63344
1120	114368	64576
1152	111872	65264
1184	101360	61408
1216	118256	70240
1248	131376	70208
1280	100528	59280
1312	91280	56048
1344	85040	56400
1376	87984	55904
1408	82048	52176
1440	83856	54912
1472	77776	50208
1504	78976	50640
1536	78016	48176
1568	77664	46832
1600	73840	47408
1632	71904	46448
1664	75440	47392
1696	69632	44896
1728	71360	45696
1760	70624	46176
1792	71376	44960
1824	70736	43456
1856	67760	42112
1888	63568	40192
1920	63472	39936
1952	62064	39792
1984	59984	38000
2016	61888	39312
2048	126976	76304
2112	119008	72032
2176	119392	70656
2240	110256	65520
2304	109248	64448
2368	110864	69760
2432	101056	62128
2496	101136	59376
2560	105504	61344
2624	93312	55664
2688	91888	55568
2752	86400	52064
2816	83440	50896
2880	84256	51024
2944	80752	48640
3008	77760	47232
3072	76464	46224
3136	74176	44480
3200	71008	43712
3264	71584	44304
3328	69808	43744
3392	69072	43824
3456	66736	41616
3520	64864	42544
3584	65984	40624
3648	63712	40608
3712	66336	41744
3776	63904	38512
3840	64720	40448
3904	63184	39632
3968	61728	39280
4032	59264	38272
4096	126848	79232
4224	106720	68000
4352	101840	65584
4480	102272	66976
4608	101664	66512
4736	96240	62512
4864	99328	64224
4992	101344	65072
5120	100896	64160
5248	97456	61072
5376	92496	60368
5504	92176	58640
5632	88880	57456
5760	87968	57328
5888	86176	55920
6016	86000	55936
6144	87200	56672
6272	83424	54368
6400	81072	54080
6528	81056	51376
6656	76480	49680
6784	73456	48416
6912	71776	48720
7040	71568	46096
7168	72544	47632
7296	70160	46880
7424	73696	48336
7552	68784	45104
7680	65072	42560
7808	65424	42672
7936	63408	41840
8064	65376	42608
8192	120448	79088
8448	116688	77856
8704	112896	75248
8960	110592	74512
9216	106400	70768
9472	101280	67584
9728	102752	68928
9984	98064	65328
10240	93008	63696
10496	86848	59440
10752	79584	53776
11008	78288	53040
11264	75680	50496
11520	71712	49312
11776	69120	48752
12032	72288	48640
12288	68880	45312
12544	65248	43904
12800	57920	39232
13056	51472	34320
13312	49808	33584
13568	50096	33648
13824	52128	35488
14080	45264	31104
14336	44064	29520
14592	39984	27312
14848	38656	26256
15104	35696	24416
15360	37440	26112
15616	36240	25584
15872	34160	23328
16128	36128	24784
16384	70160	49984
16896	71216	51264
17408	65040	47456
17920	65056	47616
18432	69072	50768
18944	66800	49744
19456	65648	47344
19968	63840	46176
20480	64528	45344
20992	70368	49392
21504	75216	51568
22016	86320	57456
22528	93344	62816
23040	98416	68608
23552	106992	73744
24064	113984	78944
24576	110272	77456
25088	116848	80544
25600	109376	75344
26112	108704	73872
26624	92128	62560
27136	81872	56208
27648	75968	51936
28160	69264	48080
28672	59264	41728
29184	58256	40896
29696	54016	38288
30208	48400	34896
30720	45664	32816
31232	45232	31888
31744	42880	30272
32256	42736	30848
32768	73040	52848
33792	71888	50144
34816	61648	44752
35840	61872	44368
36864	60832	43280
37888	57232	41520
38912	49104	36080
39936	43616	31856
40960	44464	32288
41984	40848	29936
43008	35536	26816
44032	34464	25584
45056	36064	27456
46080	32288	24656
47104	34432	26032
48128	32672	25440
49152	31696	24240
50176	27472	20704
51200	29872	22992
52224	27552	21216
53248	24928	19664
54272	24624	18816
55296	23280	18000
56320	23184	17424
57344	20048	14944
58368	22096	17312
59392	21024	16384
60416	20672	16128
61440	17552	13504
62464	18720	14400
63488	18160	14288
64512	17040	13232
65536	34192	26352
67584	30288	24240
69632	29088	22704
71680	28224	22640
73728	27840	21520
75776	26496	20960
77824	25248	19824
79872	25376	20320
81920	24000	18576
83968	22752	18096
86016	22992	18144
88064	20864	16912
90112	43280	14656
92160	18688	15584
94208	17376	14352
96256	18192	14752
98304	17632	14304
100352	17872	14704
102400	16720	13968
104448	17200	14384
106496	15536	12720
108544	14576	11968
110592	15584	12480
112640	13264	11200
114688	13072	11088
116736	14944	12304
118784	14112	11552
120832	14176	11440
122880	13664	11552
124928	13024	10896
126976	12384	10560
129024	13008	11008
131072	24256	20016
135168	23184	19264
139264	22224	19296
143360	21104	17344
147456	21792	18176
151552	20080	16880
155648	18144	14672
159744	18640	15520
163840	18912	15904
167936	17632	14992
172032	16208	13376
176128	15968	13712
180224	15392	12912
184320	14592	12064
188416	13456	11488
192512	15824	13216
196608	14304	12032
200704	13632	11408
204800	13840	11456
208896	13040	10976
212992	13152	11040
217088	12784	10720
221184	11440	9728
225280	12608	10736
229376	12688	10496
233472	13280	10992
237568	11488	9408
241664	11376	9632
245760	10784	9120
249856	9872	8560
253952	10848	9072
258048	9920	8192
262144	19392	16640
270336	19840	16672
278528	18448	15808
286720	18704	16128
294912	17888	15360
303104	18016	15008
311296	19024	15984
319488	16544	13760
327680	16896	14224
335872	15072	12880
344064	15296	13168
352256	15360	13376
360448	15696	13360
368640	14656	12800
376832	13600	11552
385024	13840	11632
393216	14608	12272
401408	13952	11840
409600	13728	11504
417792	13520	11504
425984	12608	10912
434176	12736	10720
442368	13408	11328
450560	12608	10704
458752	13680	11520
466944	11280	9744
475136	13040	11280
483328	12368	10496
491520	13632	11936
499712	16384	14912
507904	19440	17712
516096	17616	16080
524288	29936	26736
540672	29104	25392
557056	23584	20832
573440	24544	20448
589824	44176	36736
606208	34992	29632
622592	22800	20608
638976	19216	17456
655360	17904	16080
671744	17600	16176
688128	16752	15600
704512	16768	15328
720896	18128	16624
737280	17312	15840
753664	14800	13536
770048	14992	13856
786432	15728	14352
802816	13456	12368
819200	13408	12272
835584	14416	12752
851968	12864	11280
868352	12352	11120
884736	10576	9648
901120	11744	10752
917504	10016	9024
933888	10640	9696
950272	10416	9520
966656	10080	9264
983040	9088	8400
999424	9696	9024
1015808	9536	8704
1032192	8064	7248
1048576	18384	17088
1081344	19456	18208
1114112	16848	15504
1146880	15296	13872
1179648	16000	14848
1212416	17696	16160
1245184	14976	13008
1277952	14480	13216
1310720	14208	12880
1343488	14528	13328
1376256	13264	11936
1409024	12448	11504
1441792	12448	11696
1474560	11776	10736
1507328	11392	10432
1540096	11824	10784
1572864	10496	9712
1605632	12368	10928
1638400	9248	8512
1671168	10704	9728
1703936	11296	10544
1736704	10496	9440
1769472	10384	9520
1802240	9248	8352
1835008	10432	9280
1867776	9808	8960
1900544	8832	8080
1933312	8304	7536
1966080	8832	8032
1998848	8416	7664
2031616	7824	7296
2064384	7968	7360
2097152	15824	14640
2162688	17664	16064
2228224	15056	14048
2293760	14016	13072
2359296	15552	14304
2424832	12144	11104
2490368	12592	11696
2555904	12112	11040
2621440	13456	12304
2686976	10464	9840
2752512	11408	10624
2818048	11552	10672
2883584	10304	9696
2949120	11312	10368
3014656	10400	9648
3080192	10592	9520
3145728	11232	10448
3211264	11696	10560
3276800	9136	8416
3342336	10064	9392
3407872	8160	7744
3473408	8512	7904
3538944	8672	8176
3604480	8896	8272
3670016	7840	7328
3735552	7920	7360
3801088	7712	7184
3866624	8864	8208
3932160	7968	7456
3997696	6048	5776
4063232	5744	5392
4128768	6080	5696
4194304	13424	12656
4325376	11536	10784
4456448	11552	10816
4587520	11168	10368
4718592	10576	9936
4849664	10528	10080
4980736	10144	9440
5111808	9280	8672
5242880	10128	9584
5373952	9120	8528
5505024	8784	8240
5636096	9088	8480
5767168	8928	8416
5898240	9296	8816
6029312	8576	7888
6160384	7552	6896
6291456	8432	7680
6422528	8640	8128
6553600	7584	7248
6684672	8112	7632
6815744	8176	7760
6946816	6832	6464
7077888	6944	6544
7208960	7136	6832
7340032	7488	7056
7471104	7424	6960
7602176	6400	6176
7733248	6432	6096
7864320	6096	5856
7995392	5984	5616
8126464	5472	5120
8257536	5872	5648
8388608	11280	10528
8650752	10144	9680
8912896	8720	8144
9175040	8496	7968
9437184	9648	9024
9699328	10416	9920
9961472	10368	9840
10223616	8800	8128
10485760	9488	8976
10747904	8992	8432
11010048	10160	9504
11272192	10432	9888
11534336	10240	9504
11796480	9136	8528
12058624	9440	8880
12320768	8224	7984
12582912	8208	7776
12845056	9040	8496
13107200	7008	6576
13369344	7696	7200
13631488	6368	5920
13893632	5680	5504
14155776	5888	5552
14417920	5568	5424
14680064	5200	4928
14942208	6544	6016
15204352	5536	5312
15466496	5632	5184
15728640	4720	4496
15990784	5840	5440
16252928	5536	5168
16515072	5088	4896
16777216	9024	8496
17301504	8928	8368
17825792	10368	9728
18350080	10416	9968
18874368	10640	10192
19398656	9104	8624
19922944	7856	7296
20447232	8736	8368
20971520	7024	6512
21495808	6304	5824
22020096	6368	6048
22544384	5552	5248
23068672	5760	5296
23592960	4944	4672
24117248	5632	5344
24641536	5168	4784
25165824	5744	5264
25690112	5584	5392
26214400	4688	4336
26738688	4528	4256
27262976	5968	5632
27787264	5104	4720
28311552	4912	4544
28835840	4624	4496
29360128	4944	4544
29884416	4736	4464
30408704	4784	4464
30932992	4624	4400
31457280	5440	4992
31981568	3856	3552
32505856	3248	3152
33030144	3696	3360
33554432	8896	7104
34603008	5328	4688
35651584	6112	5360
36700160	5392	4864
37748736	8368	7792
38797312	5552	5024
39845888	5504	5104
40894464	6064	5312
41943040	6880	6160
42991616	6272	5616
44040192	6160	5472
45088768	4640	4144
46137344	5344	4928
47185920	4432	3952
48234496	7984	7328
49283072	4880	4400
50331648	4048	3680
51380224	4016	3600
52428800	4192	3744
53477376	4528	3936
54525952	4544	4000
55574528	3808	3280
56623104	3424	2992
57671680	3232	2784
58720256	4000	3584
59768832	3888	3504
60817408	3872	3440
61865984	3584	2960
62914560	3520	3152
63963136	3456	2880
65011712	3264	2832
66060288	5296	4880
67108864	5664	4816
69206016	5104	4336
71303168	5392	4496
73400320	4720	3984
75497472	6064	5360
77594624	4736	4208
79691776	3616	2768
81788928	3664	3136
83886080	4048	3488
85983232	3664	2720
88080384	3376	2592
90177536	3792	3040
92274688	2640	2048
94371840	2832	2016
96468992	2832	2224
98566144	2544	1696
100663296	1808	1120
102760448	1888	1312
104857600	2528	1920
106954752	1360	1056
109051904	1776	1328
111149056	2192	1552
113246208	2096	1376
115343360	2032	1264
117440512	2112	1232
119537664	2320	1456
121634816	2320	1440
123731968	2064	1216
125829120	2256	1296
127926272	1936	1296
130023424	1520	784
132120576	1760	928
134217728	3952	2608
138412032	3968	2736
142606336	3712	2128
146800640	3152	1936
150994944	3936	2544
155189248	3696	2144
159383552	3088	1440
163577856	2160	1056
167772160	1920	1264
171966464	1840	1056
176160768	2096	720
180355072	2464	1152
184549376	1904	944
188743680	992	688
192937984	1184	720
197132288	1232	848
201326592	752	480
205520896	576	336
209715200	1536	1328
213909504	1392	1136
218103808	304	208
222298112	736	480
226492416	1008	960
230686720	544	528
234881024	192	176
239075328	128	48
243269632	128	80
247463936	128	96
251658240	96	80
255852544	112	112
260046848	32	32
264241152	80	64
268435456	48	0
276824064	0	0
285212672	0	0
293601280	0	0
301989888	0	0
310378496	0	0
318767104	0	0
327155712	0	0
335544320	0	0
343932928	0	0
352321536	0	0
360710144	0	0
369098752	0	0
377487360	0	0
385875968	0	0
394264576	0	0
402653184	0	0
411041792	0	0
419430400	0	0
427819008	0	0
436207616	0	0
444596224	0	0
452984832	0	0
461373440	0	0
469762048	0	0
478150656	0	0
486539264	0	0
494927872	0	0
503316480	0	0
511705088	0	0
520093696	0	0
528482304	0	0
536870912	0	0
553648128	0	0
570425344	0	0
587202560	0	0
603979776	0	0
620756992	0	0
637534208	0	0
654311424	0	0
671088640	0	0
687865856	0	0
704643072	0	0
721420288	0	0
738197504	0	0
754974720	0	0
771751936	0	0
788529152	0	0
805306368	0	0
822083584	0	0
838860800	0	0
855638016	0	0
872415232	0	0
889192448	0	0
905969664	0	0
922746880	0	0
939524096	0	0
956301312	0	0
973078528	0	0
989855744	0	0
1006632960	0	0
1023410176	0	0
1040187392	0	0
1056964608	0	0
1073741824	0	0
1107296256	0	0
1140850688	0	0
1174405120	0	0
1207959552	0	0
1241513984	0	0
1275068416	0	0
1308622848	0	0
1342177280	0	0
1375731712	0	0
1409286144	0	0
1442840576	0	0
1476395008	0	0
1509949440	0	0
1543503872	0	0
1577058304	0	0
1610612736	0	0
1644167168	0	0
1677721600	0	0
1711276032	0	0
1744830464	0	0
1778384896	0	0
1811939328	0	0
1845493760	0	0
1879048192	0	0
1912602624	0	0
1946157056	0	0
1979711488	0	0
2013265920	0	0
2046820352	0	0
2080374784	0	0
2113929216	0	0
2147483648	0	0
2214592512	0	0
2281701376	0	0
2348810240	0	0
2415919104	0	0
2483027968	0	0
2550136832	0	0
2617245696	0	0
2684354560	0	0
2751463424	0	0
2818572288	0	0
2885681152	0	0
2952790016	0	0
3019898880	0	0
3087007744	0	0
3154116608	0	0
3221225472	0	0
3288334336	0	0
3355443200	0	0
3422552064	0	0
3489660928	0	0
3556769792	0	0
3623878656	0	0
3690987520	0	0
3758096384	0	0
3825205248	0	0
3892314112	0	0
3959422976	0	0
4026531840	0	0
4093640704	0	0
4160749568	0	0
4227858432	0	0
~~~~~~~~~~Reuse Distance Profiler output end~~~~~~~~~~

Sampler size:41317

DRAM Statistics
 CHANNEL 0
 RQ ROW_BUFFER_HIT:      91335  ROW_BUFFER_MISS:    1202698
 DBUS AVG_CONGESTED_CYCLE:     3.9046
 WQ ROW_BUFFER_HIT:     149926  ROW_BUFFER_MISS:     856605  FULL:          0


CPU 0 Branch Prediction Accuracy: 89.8816% MPKI: 15.3138 Average ROB Occupancy at Mispredict: 39.9423
Branch type MPKI
BRANCH_DIRECT_JUMP: 6.66667e-06
BRANCH_INDIRECT: 0.723585
BRANCH_CONDITIONAL: 14.5884
BRANCH_DIRECT_CALL: 3.33333e-06
BRANCH_INDIRECT_CALL: 0.00185133
BRANCH_RETURN: 3.33333e-06

