
*** ChampSim Multicore Out-of-Order Simulator ***

Warmup Instructions: 50000000
Simulation Instructions: 1500000000
Number of CPUs: 1
Off-chip DRAM Size: 4 GiB Channels: 1 Width: 64-bit Data Rate: 3200 MT/s

VirtualMemory physical capacity: 8588881920 num_ppages: 2096895
VirtualMemory page size: 4096 log2_page_size: 12

CPU 0 runs /s/traces/champsim_traces/657.xz_s-2302B.champsimtrace.xz
CPU 0 Bimodal branch predictor
Basic BTB sets: 1024 ways: 8 indirect buffer size: 4096 RAS size: 64
Initializing LRU.
Initializing LRU.
Initializing LRU.
Initializing LRU.
Initializing rdLRU.
Initializing LRU.
Heartbeat CPU 0 instructions: 2000001 cycles: 500100 heartbeat IPC: 3.9992 cumulative IPC: 3.9992 (Simulation time: 0 hr 0 min 50 sec) 
Heartbeat CPU 0 instructions: 4000001 cycles: 1000100 heartbeat IPC: 4 cumulative IPC: 3.9996 (Simulation time: 0 hr 1 min 28 sec) 
Heartbeat CPU 0 instructions: 6000001 cycles: 1500100 heartbeat IPC: 4 cumulative IPC: 3.99973 (Simulation time: 0 hr 2 min 15 sec) 
Heartbeat CPU 0 instructions: 8000002 cycles: 2003093 heartbeat IPC: 3.9762 cumulative IPC: 3.99382 (Simulation time: 0 hr 3 min 1 sec) 
Heartbeat CPU 0 instructions: 10000002 cycles: 2503093 heartbeat IPC: 4 cumulative IPC: 3.99506 (Simulation time: 0 hr 3 min 48 sec) 
Heartbeat CPU 0 instructions: 12000001 cycles: 3003110 heartbeat IPC: 3.99986 cumulative IPC: 3.99586 (Simulation time: 0 hr 4 min 35 sec) 
Heartbeat CPU 0 instructions: 14000001 cycles: 3503110 heartbeat IPC: 4 cumulative IPC: 3.99645 (Simulation time: 0 hr 5 min 23 sec) 
Heartbeat CPU 0 instructions: 16000002 cycles: 4006102 heartbeat IPC: 3.97621 cumulative IPC: 3.99391 (Simulation time: 0 hr 6 min 12 sec) 
Heartbeat CPU 0 instructions: 18000002 cycles: 4506102 heartbeat IPC: 4 cumulative IPC: 3.99458 (Simulation time: 0 hr 6 min 58 sec) 
Heartbeat CPU 0 instructions: 20000002 cycles: 5006102 heartbeat IPC: 4 cumulative IPC: 3.99512 (Simulation time: 0 hr 7 min 42 sec) 
Heartbeat CPU 0 instructions: 22000003 cycles: 5519407 heartbeat IPC: 3.89632 cumulative IPC: 3.98594 (Simulation time: 0 hr 8 min 32 sec) 
Heartbeat CPU 0 instructions: 24000003 cycles: 6019407 heartbeat IPC: 4 cumulative IPC: 3.9871 (Simulation time: 0 hr 9 min 22 sec) 
Heartbeat CPU 0 instructions: 26000000 cycles: 6520088 heartbeat IPC: 3.99455 cumulative IPC: 3.98768 (Simulation time: 0 hr 10 min 11 sec) 
Heartbeat CPU 0 instructions: 28000000 cycles: 7020088 heartbeat IPC: 4 cumulative IPC: 3.98855 (Simulation time: 0 hr 10 min 54 sec) 
Heartbeat CPU 0 instructions: 30000000 cycles: 7520088 heartbeat IPC: 4 cumulative IPC: 3.98932 (Simulation time: 0 hr 11 min 43 sec) 
Heartbeat CPU 0 instructions: 32000000 cycles: 8020088 heartbeat IPC: 4 cumulative IPC: 3.98998 (Simulation time: 0 hr 12 min 30 sec) 
Heartbeat CPU 0 instructions: 34000000 cycles: 8520088 heartbeat IPC: 4 cumulative IPC: 3.99057 (Simulation time: 0 hr 13 min 19 sec) 
Heartbeat CPU 0 instructions: 36000003 cycles: 9023090 heartbeat IPC: 3.97613 cumulative IPC: 3.98976 (Simulation time: 0 hr 14 min 6 sec) 
Heartbeat CPU 0 instructions: 38000003 cycles: 9523090 heartbeat IPC: 4 cumulative IPC: 3.9903 (Simulation time: 0 hr 14 min 54 sec) 
Heartbeat CPU 0 instructions: 40000003 cycles: 10023090 heartbeat IPC: 4 cumulative IPC: 3.99079 (Simulation time: 0 hr 15 min 40 sec) 
Heartbeat CPU 0 instructions: 42000003 cycles: 10523090 heartbeat IPC: 4 cumulative IPC: 3.99122 (Simulation time: 0 hr 16 min 21 sec) 
Heartbeat CPU 0 instructions: 44000000 cycles: 11026080 heartbeat IPC: 3.97622 cumulative IPC: 3.99054 (Simulation time: 0 hr 17 min 9 sec) 
Heartbeat CPU 0 instructions: 46000000 cycles: 11526080 heartbeat IPC: 4 cumulative IPC: 3.99095 (Simulation time: 0 hr 17 min 57 sec) 
Heartbeat CPU 0 instructions: 48000000 cycles: 12026080 heartbeat IPC: 4 cumulative IPC: 3.99133 (Simulation time: 0 hr 18 min 45 sec) 
Heartbeat CPU 0 instructions: 50000000 cycles: 12526080 heartbeat IPC: 4 cumulative IPC: 3.99167 (Simulation time: 0 hr 19 min 37 sec) 

Warmup complete CPU 0 instructions: 50000004 cycles: 12526081 (Simulation time: 0 hr 19 min 37 sec) 

Heartbeat CPU 0 instructions: 52000000 cycles: 14537345 heartbeat IPC: 0.994399 cumulative IPC: 0.994398 (Simulation time: 0 hr 20 min 35 sec) 

Region of Interest Statistics
cpu0_DTLB TOTAL     ACCESS:     387989  HIT:     374821  MISS:      13168
cpu0_DTLB LOAD      ACCESS:     302641  HIT:     291584  MISS:      11057
cpu0_DTLB RFO       ACCESS:      85348  HIT:      83237  MISS:       2111
cpu0_DTLB PREFETCH  ACCESS:          0  HIT:          0  MISS:          0
cpu0_DTLB WRITEBACK ACCESS:          0  HIT:          0  MISS:          0
cpu0_ITLB TOTAL     ACCESS:     200269  HIT:     200269  MISS:          0
cpu0_ITLB LOAD      ACCESS:     200269  HIT:     200269  MISS:          0
cpu0_ITLB RFO       ACCESS:          0  HIT:          0  MISS:          0
cpu0_ITLB PREFETCH  ACCESS:          0  HIT:          0  MISS:          0
cpu0_ITLB WRITEBACK ACCESS:          0  HIT:          0  MISS:          0
cpu0_L1I TOTAL     ACCESS:      28375  HIT:      28375  MISS:          0
cpu0_L1I LOAD      ACCESS:      28375  HIT:      28375  MISS:          0
cpu0_L1I RFO       ACCESS:          0  HIT:          0  MISS:          0
cpu0_L1I PREFETCH  ACCESS:          0  HIT:          0  MISS:          0
cpu0_L1I WRITEBACK ACCESS:          0  HIT:          0  MISS:          0
cpu0_STLB TOTAL     ACCESS:      13168  HIT:      11181  MISS:       1987
cpu0_STLB LOAD      ACCESS:      11057  HIT:       9117  MISS:       1940
cpu0_STLB RFO       ACCESS:       2111  HIT:       2064  MISS:         47
cpu0_STLB PREFETCH  ACCESS:          0  HIT:          0  MISS:          0
cpu0_STLB WRITEBACK ACCESS:          0  HIT:          0  MISS:          0
cpu0_L1D TOTAL     ACCESS:     442653  HIT:     428870  MISS:      13783
cpu0_L1D LOAD      ACCESS:     285743  HIT:     273430  MISS:      12313
cpu0_L1D RFO       ACCESS:     154929  HIT:     153476  MISS:       1453
cpu0_L1D PREFETCH  ACCESS:          0  HIT:          0  MISS:          0
cpu0_L1D WRITEBACK ACCESS:          0  HIT:          0  MISS:          0
cpu0_L2C TOTAL     ACCESS:      22646  HIT:      15380  MISS:       7266
cpu0_L2C LOAD      ACCESS:      12313  HIT:       5551  MISS:       6762
cpu0_L2C RFO       ACCESS:       1453  HIT:        977  MISS:        476
cpu0_L2C PREFETCH  ACCESS:          0  HIT:          0  MISS:          0
cpu0_L2C WRITEBACK ACCESS:       8863  HIT:       8836  MISS:         27
LLC TOTAL     ACCESS:      12466  HIT:       9235  MISS:       3231
LLC LOAD      ACCESS:       6762  HIT:       3861  MISS:       2901
LLC RFO       ACCESS:        476  HIT:        191  MISS:        285
LLC PREFETCH  ACCESS:          0  HIT:          0  MISS:          0
LLC WRITEBACK ACCESS:       5227  HIT:       5182  MISS:         45
Heartbeat CPU 0 instructions: 54000000 cycles: 16702491 heartbeat IPC: 0.923725 cumulative IPC: 0.957759 (Simulation time: 0 hr 21 min 40 sec) 

Region of Interest Statistics
cpu0_DTLB TOTAL     ACCESS:     784205  HIT:     758373  MISS:      25832
cpu0_DTLB LOAD      ACCESS:     612839  HIT:     591008  MISS:      21831
cpu0_DTLB RFO       ACCESS:     171366  HIT:     167365  MISS:       4001
cpu0_DTLB PREFETCH  ACCESS:          0  HIT:          0  MISS:          0
cpu0_DTLB WRITEBACK ACCESS:          0  HIT:          0  MISS:          0
cpu0_ITLB TOTAL     ACCESS:     393343  HIT:     393343  MISS:          0
cpu0_ITLB LOAD      ACCESS:     393343  HIT:     393343  MISS:          0
cpu0_ITLB RFO       ACCESS:          0  HIT:          0  MISS:          0
cpu0_ITLB PREFETCH  ACCESS:          0  HIT:          0  MISS:          0
cpu0_ITLB WRITEBACK ACCESS:          0  HIT:          0  MISS:          0
cpu0_L1I TOTAL     ACCESS:      58672  HIT:      58660  MISS:         12
cpu0_L1I LOAD      ACCESS:      58672  HIT:      58660  MISS:         12
cpu0_L1I RFO       ACCESS:          0  HIT:          0  MISS:          0
cpu0_L1I PREFETCH  ACCESS:          0  HIT:          0  MISS:          0
cpu0_L1I WRITEBACK ACCESS:          0  HIT:          0  MISS:          0
cpu0_STLB TOTAL     ACCESS:      25832  HIT:      21736  MISS:       4096
cpu0_STLB LOAD      ACCESS:      21831  HIT:      17837  MISS:       3994
cpu0_STLB RFO       ACCESS:       4001  HIT:       3899  MISS:        102
cpu0_STLB PREFETCH  ACCESS:          0  HIT:          0  MISS:          0
cpu0_STLB WRITEBACK ACCESS:          0  HIT:          0  MISS:          0
cpu0_L1D TOTAL     ACCESS:     884087  HIT:     856203  MISS:      27884
cpu0_L1D LOAD      ACCESS:     572939  HIT:     548226  MISS:      24713
cpu0_L1D RFO       ACCESS:     307060  HIT:     303925  MISS:       3135
cpu0_L1D PREFETCH  ACCESS:          0  HIT:          0  MISS:          0
cpu0_L1D WRITEBACK ACCESS:          0  HIT:          0  MISS:          0
cpu0_L2C TOTAL     ACCESS:      45727  HIT:      30346  MISS:      15381
cpu0_L2C LOAD      ACCESS:      24725  HIT:      10625  MISS:      14100
cpu0_L2C RFO       ACCESS:       3135  HIT:       1904  MISS:       1231
cpu0_L2C PREFETCH  ACCESS:          0  HIT:          0  MISS:          0
cpu0_L2C WRITEBACK ACCESS:      17831  HIT:      17784  MISS:         47
LLC TOTAL     ACCESS:      26371  HIT:      19056  MISS:       7315
LLC LOAD      ACCESS:      14100  HIT:       7681  MISS:       6419
LLC RFO       ACCESS:       1231  HIT:        439  MISS:        792
LLC PREFETCH  ACCESS:          0  HIT:          0  MISS:          0
LLC WRITEBACK ACCESS:      11037  HIT:      10934  MISS:        103
Heartbeat CPU 0 instructions: 56000000 cycles: 18699707 heartbeat IPC: 1.00139 cumulative IPC: 0.971876 (Simulation time: 0 hr 22 min 38 sec) 

Region of Interest Statistics
cpu0_DTLB TOTAL     ACCESS:    1173499  HIT:    1135423  MISS:      38076
cpu0_DTLB LOAD      ACCESS:     918324  HIT:     885934  MISS:      32390
cpu0_DTLB RFO       ACCESS:     255175  HIT:     249489  MISS:       5686
cpu0_DTLB PREFETCH  ACCESS:          0  HIT:          0  MISS:          0
cpu0_DTLB WRITEBACK ACCESS:          0  HIT:          0  MISS:          0
cpu0_ITLB TOTAL     ACCESS:     594626  HIT:     594626  MISS:          0
cpu0_ITLB LOAD      ACCESS:     594626  HIT:     594626  MISS:          0
cpu0_ITLB RFO       ACCESS:          0  HIT:          0  MISS:          0
cpu0_ITLB PREFETCH  ACCESS:          0  HIT:          0  MISS:          0
cpu0_ITLB WRITEBACK ACCESS:          0  HIT:          0  MISS:          0
cpu0_L1I TOTAL     ACCESS:      84997  HIT:      84985  MISS:         12
cpu0_L1I LOAD      ACCESS:      84997  HIT:      84985  MISS:         12
cpu0_L1I RFO       ACCESS:          0  HIT:          0  MISS:          0
cpu0_L1I PREFETCH  ACCESS:          0  HIT:          0  MISS:          0
cpu0_L1I WRITEBACK ACCESS:          0  HIT:          0  MISS:          0
cpu0_STLB TOTAL     ACCESS:      38076  HIT:      32113  MISS:       5963
cpu0_STLB LOAD      ACCESS:      32390  HIT:      26585  MISS:       5805
cpu0_STLB RFO       ACCESS:       5686  HIT:       5528  MISS:        158
cpu0_STLB PREFETCH  ACCESS:          0  HIT:          0  MISS:          0
cpu0_STLB WRITEBACK ACCESS:          0  HIT:          0  MISS:          0
cpu0_L1D TOTAL     ACCESS:    1329937  HIT:    1288227  MISS:      41710
cpu0_L1D LOAD      ACCESS:     863813  HIT:     826721  MISS:      37092
cpu0_L1D RFO       ACCESS:     460172  HIT:     455603  MISS:       4569
cpu0_L1D PREFETCH  ACCESS:          0  HIT:          0  MISS:          0
cpu0_L1D WRITEBACK ACCESS:          0  HIT:          0  MISS:          0
cpu0_L2C TOTAL     ACCESS:      68481  HIT:      45972  MISS:      22509
cpu0_L2C LOAD      ACCESS:      37104  HIT:      16443  MISS:      20661
cpu0_L2C RFO       ACCESS:       4569  HIT:       2790  MISS:       1779
cpu0_L2C PREFETCH  ACCESS:          0  HIT:          0  MISS:          0
cpu0_L2C WRITEBACK ACCESS:      26759  HIT:      26694  MISS:         65
LLC TOTAL     ACCESS:      38517  HIT:      28367  MISS:      10150
LLC LOAD      ACCESS:      20661  HIT:      11717  MISS:       8944
LLC RFO       ACCESS:       1779  HIT:        717  MISS:       1062
LLC PREFETCH  ACCESS:          0  HIT:          0  MISS:          0
LLC WRITEBACK ACCESS:      16073  HIT:      15931  MISS:        142
Heartbeat CPU 0 instructions: 58000000 cycles: 20737221 heartbeat IPC: 0.981588 cumulative IPC: 0.974286 (Simulation time: 0 hr 23 min 37 sec) 

Region of Interest Statistics
cpu0_DTLB TOTAL     ACCESS:    1564832  HIT:    1514260  MISS:      50572
cpu0_DTLB LOAD      ACCESS:    1226475  HIT:    1183367  MISS:      43108
cpu0_DTLB RFO       ACCESS:     338357  HIT:     330893  MISS:       7464
cpu0_DTLB PREFETCH  ACCESS:          0  HIT:          0  MISS:          0
cpu0_DTLB WRITEBACK ACCESS:          0  HIT:          0  MISS:          0
cpu0_ITLB TOTAL     ACCESS:     796534  HIT:     796534  MISS:          0
cpu0_ITLB LOAD      ACCESS:     796534  HIT:     796534  MISS:          0
cpu0_ITLB RFO       ACCESS:          0  HIT:          0  MISS:          0
cpu0_ITLB PREFETCH  ACCESS:          0  HIT:          0  MISS:          0
cpu0_ITLB WRITEBACK ACCESS:          0  HIT:          0  MISS:          0
cpu0_L1I TOTAL     ACCESS:     111063  HIT:     111049  MISS:         14
cpu0_L1I LOAD      ACCESS:     111063  HIT:     111049  MISS:         14
cpu0_L1I RFO       ACCESS:          0  HIT:          0  MISS:          0
cpu0_L1I PREFETCH  ACCESS:          0  HIT:          0  MISS:          0
cpu0_L1I WRITEBACK ACCESS:          0  HIT:          0  MISS:          0
cpu0_STLB TOTAL     ACCESS:      50572  HIT:      42486  MISS:       8086
cpu0_STLB LOAD      ACCESS:      43108  HIT:      35226  MISS:       7882
cpu0_STLB RFO       ACCESS:       7464  HIT:       7260  MISS:        204
cpu0_STLB PREFETCH  ACCESS:          0  HIT:          0  MISS:          0
cpu0_STLB WRITEBACK ACCESS:          0  HIT:          0  MISS:          0
cpu0_L1D TOTAL     ACCESS:    1766413  HIT:    1710838  MISS:      55575
cpu0_L1D LOAD      ACCESS:    1149986  HIT:    1100492  MISS:      49494
cpu0_L1D RFO       ACCESS:     608356  HIT:     602339  MISS:       6017
cpu0_L1D PREFETCH  ACCESS:          0  HIT:          0  MISS:          0
cpu0_L1D WRITEBACK ACCESS:          0  HIT:          0  MISS:          0
cpu0_L2C TOTAL     ACCESS:      91315  HIT:      61694  MISS:      29621
cpu0_L2C LOAD      ACCESS:      49507  HIT:      22218  MISS:      27289
cpu0_L2C RFO       ACCESS:       6017  HIT:       3765  MISS:       2252
cpu0_L2C PREFETCH  ACCESS:          0  HIT:          0  MISS:          0
cpu0_L2C WRITEBACK ACCESS:      35727  HIT:      35651  MISS:         76
LLC TOTAL     ACCESS:      50731  HIT:      37232  MISS:      13499
LLC LOAD      ACCESS:      27289  HIT:      15323  MISS:      11966
LLC RFO       ACCESS:       2252  HIT:        907  MISS:       1345
LLC PREFETCH  ACCESS:          0  HIT:          0  MISS:          0
LLC WRITEBACK ACCESS:      21186  HIT:      21000  MISS:        186
Heartbeat CPU 0 instructions: 60000001 cycles: 22747666 heartbeat IPC: 0.994805 cumulative IPC: 0.978322 (Simulation time: 0 hr 24 min 36 sec) 

Region of Interest Statistics
cpu0_DTLB TOTAL     ACCESS:    1954652  HIT:    1891206  MISS:      63446
cpu0_DTLB LOAD      ACCESS:    1534100  HIT:    1480020  MISS:      54080
cpu0_DTLB RFO       ACCESS:     420552  HIT:     411186  MISS:       9366
cpu0_DTLB PREFETCH  ACCESS:          0  HIT:          0  MISS:          0
cpu0_DTLB WRITEBACK ACCESS:          0  HIT:          0  MISS:          0
cpu0_ITLB TOTAL     ACCESS:     998386  HIT:     998386  MISS:          0
cpu0_ITLB LOAD      ACCESS:     998386  HIT:     998386  MISS:          0
cpu0_ITLB RFO       ACCESS:          0  HIT:          0  MISS:          0
cpu0_ITLB PREFETCH  ACCESS:          0  HIT:          0  MISS:          0
cpu0_ITLB WRITEBACK ACCESS:          0  HIT:          0  MISS:          0
cpu0_L1I TOTAL     ACCESS:     136836  HIT:     136822  MISS:         14
cpu0_L1I LOAD      ACCESS:     136836  HIT:     136822  MISS:         14
cpu0_L1I RFO       ACCESS:          0  HIT:          0  MISS:          0
cpu0_L1I PREFETCH  ACCESS:          0  HIT:          0  MISS:          0
cpu0_L1I WRITEBACK ACCESS:          0  HIT:          0  MISS:          0
cpu0_STLB TOTAL     ACCESS:      63446  HIT:      53637  MISS:       9809
cpu0_STLB LOAD      ACCESS:      54080  HIT:      44510  MISS:       9570
cpu0_STLB RFO       ACCESS:       9366  HIT:       9127  MISS:        239
cpu0_STLB PREFETCH  ACCESS:          0  HIT:          0  MISS:          0
cpu0_STLB WRITEBACK ACCESS:          0  HIT:          0  MISS:          0
cpu0_L1D TOTAL     ACCESS:    2210458  HIT:    2141008  MISS:      69450
cpu0_L1D LOAD      ACCESS:    1444109  HIT:    1382085  MISS:      62024
cpu0_L1D RFO       ACCESS:     756560  HIT:     749210  MISS:       7350
cpu0_L1D PREFETCH  ACCESS:          0  HIT:          0  MISS:          0
cpu0_L1D WRITEBACK ACCESS:          0  HIT:          0  MISS:          0
cpu0_L2C TOTAL     ACCESS:     114082  HIT:      77694  MISS:      36388
cpu0_L2C LOAD      ACCESS:      62037  HIT:      28380  MISS:      33657
cpu0_L2C RFO       ACCESS:       7350  HIT:       4721  MISS:       2629
cpu0_L2C PREFETCH  ACCESS:          0  HIT:          0  MISS:          0
cpu0_L2C WRITEBACK ACCESS:      44619  HIT:      44522  MISS:         97
LLC TOTAL     ACCESS:      62273  HIT:      45944  MISS:      16329
LLC LOAD      ACCESS:      33657  HIT:      19216  MISS:      14441
LLC RFO       ACCESS:       2629  HIT:       1051  MISS:       1578
LLC PREFETCH  ACCESS:          0  HIT:          0  MISS:          0
LLC WRITEBACK ACCESS:      25982  HIT:      25674  MISS:        308
Heartbeat CPU 0 instructions: 62000001 cycles: 24652727 heartbeat IPC: 1.04984 cumulative IPC: 0.989556 (Simulation time: 0 hr 25 min 38 sec) 

Region of Interest Statistics
cpu0_DTLB TOTAL     ACCESS:    2337755  HIT:    2262736  MISS:      75019
cpu0_DTLB LOAD      ACCESS:    1833810  HIT:    1770411  MISS:      63399
cpu0_DTLB RFO       ACCESS:     503945  HIT:     492325  MISS:      11620
cpu0_DTLB PREFETCH  ACCESS:          0  HIT:          0  MISS:          0
cpu0_DTLB WRITEBACK ACCESS:          0  HIT:          0  MISS:          0
cpu0_ITLB TOTAL     ACCESS:    1193948  HIT:    1193948  MISS:          0
cpu0_ITLB LOAD      ACCESS:    1193948  HIT:    1193948  MISS:          0
cpu0_ITLB RFO       ACCESS:          0  HIT:          0  MISS:          0
cpu0_ITLB PREFETCH  ACCESS:          0  HIT:          0  MISS:          0
cpu0_ITLB WRITEBACK ACCESS:          0  HIT:          0  MISS:          0
cpu0_L1I TOTAL     ACCESS:     168280  HIT:     168266  MISS:         14
cpu0_L1I LOAD      ACCESS:     168280  HIT:     168266  MISS:         14
cpu0_L1I RFO       ACCESS:          0  HIT:          0  MISS:          0
cpu0_L1I PREFETCH  ACCESS:          0  HIT:          0  MISS:          0
cpu0_L1I WRITEBACK ACCESS:          0  HIT:          0  MISS:          0
cpu0_STLB TOTAL     ACCESS:      75019  HIT:      63488  MISS:      11531
cpu0_STLB LOAD      ACCESS:      63399  HIT:      52195  MISS:      11204
cpu0_STLB RFO       ACCESS:      11620  HIT:      11293  MISS:        327
cpu0_STLB PREFETCH  ACCESS:          0  HIT:          0  MISS:          0
cpu0_STLB WRITEBACK ACCESS:          0  HIT:          0  MISS:          0
cpu0_L1D TOTAL     ACCESS:    2637248  HIT:    2555372  MISS:      81876
cpu0_L1D LOAD      ACCESS:    1720012  HIT:    1647122  MISS:      72890
cpu0_L1D RFO       ACCESS:     905727  HIT:     896829  MISS:       8898
cpu0_L1D PREFETCH  ACCESS:          0  HIT:          0  MISS:          0
cpu0_L1D WRITEBACK ACCESS:          0  HIT:          0  MISS:          0
cpu0_L2C TOTAL     ACCESS:     134715  HIT:      92403  MISS:      42312
cpu0_L2C LOAD      ACCESS:      72903  HIT:      33847  MISS:      39056
cpu0_L2C RFO       ACCESS:       8897  HIT:       5773  MISS:       3124
cpu0_L2C PREFETCH  ACCESS:          0  HIT:          0  MISS:          0
cpu0_L2C WRITEBACK ACCESS:      52827  HIT:      52700  MISS:        127
LLC TOTAL     ACCESS:      72365  HIT:      52892  MISS:      19473
LLC LOAD      ACCESS:      39056  HIT:      21874  MISS:      17182
LLC RFO       ACCESS:       3124  HIT:       1211  MISS:       1913
LLC PREFETCH  ACCESS:          0  HIT:          0  MISS:          0
LLC WRITEBACK ACCESS:      30180  HIT:      29804  MISS:        376
Heartbeat CPU 0 instructions: 64000002 cycles: 26560615 heartbeat IPC: 1.04828 cumulative IPC: 0.997539 (Simulation time: 0 hr 26 min 39 sec) 

Region of Interest Statistics
cpu0_DTLB TOTAL     ACCESS:    2715725  HIT:    2629324  MISS:      86401
cpu0_DTLB LOAD      ACCESS:    2131945  HIT:    2059467  MISS:      72478
cpu0_DTLB RFO       ACCESS:     583780  HIT:     569857  MISS:      13923
cpu0_DTLB PREFETCH  ACCESS:          0  HIT:          0  MISS:          0
cpu0_DTLB WRITEBACK ACCESS:          0  HIT:          0  MISS:          0
cpu0_ITLB TOTAL     ACCESS:    1383359  HIT:    1383359  MISS:          0
cpu0_ITLB LOAD      ACCESS:    1383359  HIT:    1383359  MISS:          0
cpu0_ITLB RFO       ACCESS:          0  HIT:          0  MISS:          0
cpu0_ITLB PREFETCH  ACCESS:          0  HIT:          0  MISS:          0
cpu0_ITLB WRITEBACK ACCESS:          0  HIT:          0  MISS:          0
cpu0_L1I TOTAL     ACCESS:     195063  HIT:     195038  MISS:         25
cpu0_L1I LOAD      ACCESS:     195063  HIT:     195038  MISS:         25
cpu0_L1I RFO       ACCESS:          0  HIT:          0  MISS:          0
cpu0_L1I PREFETCH  ACCESS:          0  HIT:          0  MISS:          0
cpu0_L1I WRITEBACK ACCESS:          0  HIT:          0  MISS:          0
cpu0_STLB TOTAL     ACCESS:      86401  HIT:      73026  MISS:      13375
cpu0_STLB LOAD      ACCESS:      72478  HIT:      59610  MISS:      12868
cpu0_STLB RFO       ACCESS:      13923  HIT:      13416  MISS:        507
cpu0_STLB PREFETCH  ACCESS:          0  HIT:          0  MISS:          0
cpu0_STLB WRITEBACK ACCESS:          0  HIT:          0  MISS:          0
cpu0_L1D TOTAL     ACCESS:    3063651  HIT:    2968738  MISS:      94913
cpu0_L1D LOAD      ACCESS:    2003963  HIT:    1920064  MISS:      83899
cpu0_L1D RFO       ACCESS:    1046336  HIT:    1035429  MISS:      10907
cpu0_L1D PREFETCH  ACCESS:          0  HIT:          0  MISS:          0
cpu0_L1D WRITEBACK ACCESS:          0  HIT:          0  MISS:          0
cpu0_L2C TOTAL     ACCESS:     156578  HIT:     107627  MISS:      48951
cpu0_L2C LOAD      ACCESS:      83923  HIT:      39001  MISS:      44922
cpu0_L2C RFO       ACCESS:      10906  HIT:       7032  MISS:       3874
cpu0_L2C PREFETCH  ACCESS:          0  HIT:          0  MISS:          0
cpu0_L2C WRITEBACK ACCESS:      61642  HIT:      61495  MISS:        147
LLC TOTAL     ACCESS:      83494  HIT:      61370  MISS:      22124
LLC LOAD      ACCESS:      44922  HIT:      25690  MISS:      19232
LLC RFO       ACCESS:       3874  HIT:       1477  MISS:       2397
LLC PREFETCH  ACCESS:          0  HIT:          0  MISS:          0
LLC WRITEBACK ACCESS:      34690  HIT:      34198  MISS:        492
Heartbeat CPU 0 instructions: 66000000 cycles: 28489300 heartbeat IPC: 1.03697 cumulative IPC: 1.0023 (Simulation time: 0 hr 27 min 38 sec) 

Region of Interest Statistics
cpu0_DTLB TOTAL     ACCESS:    3104551  HIT:    3006779  MISS:      97772
cpu0_DTLB LOAD      ACCESS:    2436297  HIT:    2354156  MISS:      82141
cpu0_DTLB RFO       ACCESS:     668254  HIT:     652623  MISS:      15631
cpu0_DTLB PREFETCH  ACCESS:          0  HIT:          0  MISS:          0
cpu0_DTLB WRITEBACK ACCESS:          0  HIT:          0  MISS:          0
cpu0_ITLB TOTAL     ACCESS:    1583242  HIT:    1583242  MISS:          0
cpu0_ITLB LOAD      ACCESS:    1583242  HIT:    1583242  MISS:          0
cpu0_ITLB RFO       ACCESS:          0  HIT:          0  MISS:          0
cpu0_ITLB PREFETCH  ACCESS:          0  HIT:          0  MISS:          0
cpu0_ITLB WRITEBACK ACCESS:          0  HIT:          0  MISS:          0
cpu0_L1I TOTAL     ACCESS:     223131  HIT:     223105  MISS:         26
cpu0_L1I LOAD      ACCESS:     223131  HIT:     223105  MISS:         26
cpu0_L1I RFO       ACCESS:          0  HIT:          0  MISS:          0
cpu0_L1I PREFETCH  ACCESS:          0  HIT:          0  MISS:          0
cpu0_L1I WRITEBACK ACCESS:          0  HIT:          0  MISS:          0
cpu0_STLB TOTAL     ACCESS:      97772  HIT:      82655  MISS:      15117
cpu0_STLB LOAD      ACCESS:      82141  HIT:      67579  MISS:      14562
cpu0_STLB RFO       ACCESS:      15631  HIT:      15076  MISS:        555
cpu0_STLB PREFETCH  ACCESS:          0  HIT:          0  MISS:          0
cpu0_STLB WRITEBACK ACCESS:          0  HIT:          0  MISS:          0
cpu0_L1D TOTAL     ACCESS:    3513424  HIT:    3406035  MISS:     107389
cpu0_L1D LOAD      ACCESS:    2295902  HIT:    2200912  MISS:      94990
cpu0_L1D RFO       ACCESS:    1202431  HIT:    1190152  MISS:      12279
cpu0_L1D PREFETCH  ACCESS:          0  HIT:          0  MISS:          0
cpu0_L1D WRITEBACK ACCESS:          0  HIT:          0  MISS:          0
cpu0_L2C TOTAL     ACCESS:     177203  HIT:     122227  MISS:      54976
cpu0_L2C LOAD      ACCESS:      95015  HIT:      44465  MISS:      50550
cpu0_L2C RFO       ACCESS:      12278  HIT:       8017  MISS:       4261
cpu0_L2C PREFETCH  ACCESS:          0  HIT:          0  MISS:          0
cpu0_L2C WRITEBACK ACCESS:      69790  HIT:      69634  MISS:        156
LLC TOTAL     ACCESS:      93844  HIT:      69073  MISS:      24771
LLC LOAD      ACCESS:      50550  HIT:      29005  MISS:      21545
LLC RFO       ACCESS:       4261  HIT:       1623  MISS:       2638
LLC PREFETCH  ACCESS:          0  HIT:          0  MISS:          0
LLC WRITEBACK ACCESS:      39024  HIT:      38439  MISS:        585
Heartbeat CPU 0 instructions: 68000002 cycles: 30426651 heartbeat IPC: 1.03234 cumulative IPC: 1.00555 (Simulation time: 0 hr 28 min 35 sec) 

Region of Interest Statistics
cpu0_DTLB TOTAL     ACCESS:    3485255  HIT:    3375120  MISS:     110135
cpu0_DTLB LOAD      ACCESS:    2733082  HIT:    2640761  MISS:      92321
cpu0_DTLB RFO       ACCESS:     752173  HIT:     734359  MISS:      17814
cpu0_DTLB PREFETCH  ACCESS:          0  HIT:          0  MISS:          0
cpu0_DTLB WRITEBACK ACCESS:          0  HIT:          0  MISS:          0
cpu0_ITLB TOTAL     ACCESS:    1781112  HIT:    1781112  MISS:          0
cpu0_ITLB LOAD      ACCESS:    1781112  HIT:    1781112  MISS:          0
cpu0_ITLB RFO       ACCESS:          0  HIT:          0  MISS:          0
cpu0_ITLB PREFETCH  ACCESS:          0  HIT:          0  MISS:          0
cpu0_ITLB WRITEBACK ACCESS:          0  HIT:          0  MISS:          0
cpu0_L1I TOTAL     ACCESS:     252122  HIT:     252095  MISS:         27
cpu0_L1I LOAD      ACCESS:     252122  HIT:     252095  MISS:         27
cpu0_L1I RFO       ACCESS:          0  HIT:          0  MISS:          0
cpu0_L1I PREFETCH  ACCESS:          0  HIT:          0  MISS:          0
cpu0_L1I WRITEBACK ACCESS:          0  HIT:          0  MISS:          0
cpu0_STLB TOTAL     ACCESS:     110135  HIT:      93149  MISS:      16986
cpu0_STLB LOAD      ACCESS:      92321  HIT:      75958  MISS:      16363
cpu0_STLB RFO       ACCESS:      17814  HIT:      17191  MISS:        623
cpu0_STLB PREFETCH  ACCESS:          0  HIT:          0  MISS:          0
cpu0_STLB WRITEBACK ACCESS:          0  HIT:          0  MISS:          0
cpu0_L1D TOTAL     ACCESS:    3954585  HIT:    3833927  MISS:     120658
cpu0_L1D LOAD      ACCESS:    2581878  HIT:    2475150  MISS:     106728
cpu0_L1D RFO       ACCESS:    1355753  HIT:    1341956  MISS:      13797
cpu0_L1D PREFETCH  ACCESS:          0  HIT:          0  MISS:          0
cpu0_L1D WRITEBACK ACCESS:          0  HIT:          0  MISS:          0
cpu0_L2C TOTAL     ACCESS:     199056  HIT:     137735  MISS:      61321
cpu0_L2C LOAD      ACCESS:     106754  HIT:      50301  MISS:      56453
cpu0_L2C RFO       ACCESS:      13796  HIT:       9111  MISS:       4685
cpu0_L2C PREFETCH  ACCESS:          0  HIT:          0  MISS:          0
cpu0_L2C WRITEBACK ACCESS:      78373  HIT:      78200  MISS:        173
LLC TOTAL     ACCESS:     104736  HIT:      77182  MISS:      27554
LLC LOAD      ACCESS:      56453  HIT:      32470  MISS:      23983
LLC RFO       ACCESS:       4685  HIT:       1776  MISS:       2909
LLC PREFETCH  ACCESS:          0  HIT:          0  MISS:          0
LLC WRITEBACK ACCESS:      43588  HIT:      42930  MISS:        658
Heartbeat CPU 0 instructions: 70000001 cycles: 32363153 heartbeat IPC: 1.03279 cumulative IPC: 1.00821 (Simulation time: 0 hr 29 min 32 sec) 

Region of Interest Statistics
cpu0_DTLB TOTAL     ACCESS:    3874808  HIT:    3753092  MISS:     121716
cpu0_DTLB LOAD      ACCESS:    3040093  HIT:    2937950  MISS:     102143
cpu0_DTLB RFO       ACCESS:     834715  HIT:     815142  MISS:      19573
cpu0_DTLB PREFETCH  ACCESS:          0  HIT:          0  MISS:          0
cpu0_DTLB WRITEBACK ACCESS:          0  HIT:          0  MISS:          0
cpu0_ITLB TOTAL     ACCESS:    1980594  HIT:    1980594  MISS:          0
cpu0_ITLB LOAD      ACCESS:    1980594  HIT:    1980594  MISS:          0
cpu0_ITLB RFO       ACCESS:          0  HIT:          0  MISS:          0
cpu0_ITLB PREFETCH  ACCESS:          0  HIT:          0  MISS:          0
cpu0_ITLB WRITEBACK ACCESS:          0  HIT:          0  MISS:          0
cpu0_L1I TOTAL     ACCESS:     278815  HIT:     278788  MISS:         27
cpu0_L1I LOAD      ACCESS:     278815  HIT:     278788  MISS:         27
cpu0_L1I RFO       ACCESS:          0  HIT:          0  MISS:          0
cpu0_L1I PREFETCH  ACCESS:          0  HIT:          0  MISS:          0
cpu0_L1I WRITEBACK ACCESS:          0  HIT:          0  MISS:          0
cpu0_STLB TOTAL     ACCESS:     121716  HIT:     102958  MISS:      18758
cpu0_STLB LOAD      ACCESS:     102143  HIT:      84078  MISS:      18065
cpu0_STLB RFO       ACCESS:      19573  HIT:      18880  MISS:        693
cpu0_STLB PREFETCH  ACCESS:          0  HIT:          0  MISS:          0
cpu0_STLB WRITEBACK ACCESS:          0  HIT:          0  MISS:          0
cpu0_L1D TOTAL     ACCESS:    4392942  HIT:    4259247  MISS:     133695
cpu0_L1D LOAD      ACCESS:    2869218  HIT:    2750938  MISS:     118280
cpu0_L1D RFO       ACCESS:    1505002  HIT:    1489730  MISS:      15272
cpu0_L1D PREFETCH  ACCESS:          0  HIT:          0  MISS:          0
cpu0_L1D WRITEBACK ACCESS:          0  HIT:          0  MISS:          0
cpu0_L2C TOTAL     ACCESS:     220628  HIT:     152761  MISS:      67867
cpu0_L2C LOAD      ACCESS:     118306  HIT:      55820  MISS:      62486
cpu0_L2C RFO       ACCESS:      15269  HIT:      10090  MISS:       5179
cpu0_L2C PREFETCH  ACCESS:          0  HIT:          0  MISS:          0
cpu0_L2C WRITEBACK ACCESS:      86910  HIT:      86718  MISS:        192
LLC TOTAL     ACCESS:     115956  HIT:      85765  MISS:      30191
LLC LOAD      ACCESS:      62486  HIT:      36218  MISS:      26268
LLC RFO       ACCESS:       5179  HIT:       1979  MISS:       3200
LLC PREFETCH  ACCESS:          0  HIT:          0  MISS:          0
LLC WRITEBACK ACCESS:      48281  HIT:      47562  MISS:        719
Heartbeat CPU 0 instructions: 72000002 cycles: 34294911 heartbeat IPC: 1.03533 cumulative IPC: 1.01062 (Simulation time: 0 hr 30 min 31 sec) 

Region of Interest Statistics
cpu0_DTLB TOTAL     ACCESS:    4260775  HIT:    4128717  MISS:     132058
cpu0_DTLB LOAD      ACCESS:    3343259  HIT:    3232758  MISS:     110501
cpu0_DTLB RFO       ACCESS:     917516  HIT:     895959  MISS:      21557
cpu0_DTLB PREFETCH  ACCESS:          0  HIT:          0  MISS:          0
cpu0_DTLB WRITEBACK ACCESS:          0  HIT:          0  MISS:          0
cpu0_ITLB TOTAL     ACCESS:    2172562  HIT:    2172562  MISS:          0
cpu0_ITLB LOAD      ACCESS:    2172562  HIT:    2172562  MISS:          0
cpu0_ITLB RFO       ACCESS:          0  HIT:          0  MISS:          0
cpu0_ITLB PREFETCH  ACCESS:          0  HIT:          0  MISS:          0
cpu0_ITLB WRITEBACK ACCESS:          0  HIT:          0  MISS:          0
cpu0_L1I TOTAL     ACCESS:     307671  HIT:     307634  MISS:         37
cpu0_L1I LOAD      ACCESS:     307671  HIT:     307634  MISS:         37
cpu0_L1I RFO       ACCESS:          0  HIT:          0  MISS:          0
cpu0_L1I PREFETCH  ACCESS:          0  HIT:          0  MISS:          0
cpu0_L1I WRITEBACK ACCESS:          0  HIT:          0  MISS:          0
cpu0_STLB TOTAL     ACCESS:     132058  HIT:     111558  MISS:      20500
cpu0_STLB LOAD      ACCESS:     110501  HIT:      90768  MISS:      19733
cpu0_STLB RFO       ACCESS:      21557  HIT:      20790  MISS:        767
cpu0_STLB PREFETCH  ACCESS:          0  HIT:          0  MISS:          0
cpu0_STLB WRITEBACK ACCESS:          0  HIT:          0  MISS:          0
cpu0_L1D TOTAL     ACCESS:    4828966  HIT:    4682513  MISS:     146453
cpu0_L1D LOAD      ACCESS:    3155911  HIT:    3026630  MISS:     129281
cpu0_L1D RFO       ACCESS:    1652593  HIT:    1635580  MISS:      17013
cpu0_L1D PREFETCH  ACCESS:          0  HIT:          0  MISS:          0
cpu0_L1D WRITEBACK ACCESS:          0  HIT:          0  MISS:          0
cpu0_L2C TOTAL     ACCESS:     241787  HIT:     167297  MISS:      74490
cpu0_L2C LOAD      ACCESS:     129317  HIT:      60857  MISS:      68460
cpu0_L2C RFO       ACCESS:      17009  HIT:      11211  MISS:       5798
cpu0_L2C PREFETCH  ACCESS:          0  HIT:          0  MISS:          0
cpu0_L2C WRITEBACK ACCESS:      95302  HIT:      95085  MISS:        217
LLC TOTAL     ACCESS:     127238  HIT:      94272  MISS:      32966
LLC LOAD      ACCESS:      68460  HIT:      39922  MISS:      28538
LLC RFO       ACCESS:       5798  HIT:       2152  MISS:       3646
LLC PREFETCH  ACCESS:          0  HIT:          0  MISS:          0
LLC WRITEBACK ACCESS:      52965  HIT:      52189  MISS:        776
Heartbeat CPU 0 instructions: 74000000 cycles: 36124571 heartbeat IPC: 1.0931 cumulative IPC: 1.01701 (Simulation time: 0 hr 31 min 26 sec) 

Region of Interest Statistics
cpu0_DTLB TOTAL     ACCESS:    4643832  HIT:    4500355  MISS:     143477
cpu0_DTLB LOAD      ACCESS:    3643862  HIT:    3524397  MISS:     119465
cpu0_DTLB RFO       ACCESS:     999970  HIT:     975958  MISS:      24012
cpu0_DTLB PREFETCH  ACCESS:          0  HIT:          0  MISS:          0
cpu0_DTLB WRITEBACK ACCESS:          0  HIT:          0  MISS:          0
cpu0_ITLB TOTAL     ACCESS:    2362497  HIT:    2362497  MISS:          0
cpu0_ITLB LOAD      ACCESS:    2362497  HIT:    2362497  MISS:          0
cpu0_ITLB RFO       ACCESS:          0  HIT:          0  MISS:          0
cpu0_ITLB PREFETCH  ACCESS:          0  HIT:          0  MISS:          0
cpu0_ITLB WRITEBACK ACCESS:          0  HIT:          0  MISS:          0
cpu0_L1I TOTAL     ACCESS:     342294  HIT:     342257  MISS:         37
cpu0_L1I LOAD      ACCESS:     342294  HIT:     342257  MISS:         37
cpu0_L1I RFO       ACCESS:          0  HIT:          0  MISS:          0
cpu0_L1I PREFETCH  ACCESS:          0  HIT:          0  MISS:          0
cpu0_L1I WRITEBACK ACCESS:          0  HIT:          0  MISS:          0
cpu0_STLB TOTAL     ACCESS:     143477  HIT:     120952  MISS:      22525
cpu0_STLB LOAD      ACCESS:     119465  HIT:      97864  MISS:      21601
cpu0_STLB RFO       ACCESS:      24012  HIT:      23088  MISS:        924
cpu0_STLB PREFETCH  ACCESS:          0  HIT:          0  MISS:          0
cpu0_STLB WRITEBACK ACCESS:          0  HIT:          0  MISS:          0
cpu0_L1D TOTAL     ACCESS:    5243966  HIT:    5084108  MISS:     159858
cpu0_L1D LOAD      ACCESS:    3422995  HIT:    3282400  MISS:     140595
cpu0_L1D RFO       ACCESS:    1798488  HIT:    1779398  MISS:      19090
cpu0_L1D PREFETCH  ACCESS:          0  HIT:          0  MISS:          0
cpu0_L1D WRITEBACK ACCESS:          0  HIT:          0  MISS:          0
cpu0_L2C TOTAL     ACCESS:     264387  HIT:     183432  MISS:      80955
cpu0_L2C LOAD      ACCESS:     140631  HIT:      66480  MISS:      74151
cpu0_L2C RFO       ACCESS:      19086  HIT:      12552  MISS:       6534
cpu0_L2C PREFETCH  ACCESS:          0  HIT:          0  MISS:          0
cpu0_L2C WRITEBACK ACCESS:     104497  HIT:     104242  MISS:        255
LLC TOTAL     ACCESS:     138309  HIT:     102360  MISS:      35949
LLC LOAD      ACCESS:      74151  HIT:      43140  MISS:      31011
LLC RFO       ACCESS:       6534  HIT:       2454  MISS:       4080
LLC PREFETCH  ACCESS:          0  HIT:          0  MISS:          0
LLC WRITEBACK ACCESS:      57609  HIT:      56757  MISS:        852
Heartbeat CPU 0 instructions: 76000004 cycles: 38071453 heartbeat IPC: 1.02729 cumulative IPC: 1.0178 (Simulation time: 0 hr 32 min 22 sec) 

Region of Interest Statistics
cpu0_DTLB TOTAL     ACCESS:    5033930  HIT:    4878314  MISS:     155616
cpu0_DTLB LOAD      ACCESS:    3951410  HIT:    3821764  MISS:     129646
cpu0_DTLB RFO       ACCESS:    1082520  HIT:    1056550  MISS:      25970
cpu0_DTLB PREFETCH  ACCESS:          0  HIT:          0  MISS:          0
cpu0_DTLB WRITEBACK ACCESS:          0  HIT:          0  MISS:          0
cpu0_ITLB TOTAL     ACCESS:    2562603  HIT:    2562603  MISS:          0
cpu0_ITLB LOAD      ACCESS:    2562603  HIT:    2562603  MISS:          0
cpu0_ITLB RFO       ACCESS:          0  HIT:          0  MISS:          0
cpu0_ITLB PREFETCH  ACCESS:          0  HIT:          0  MISS:          0
cpu0_ITLB WRITEBACK ACCESS:          0  HIT:          0  MISS:          0
cpu0_L1I TOTAL     ACCESS:     368920  HIT:     368883  MISS:         37
cpu0_L1I LOAD      ACCESS:     368920  HIT:     368883  MISS:         37
cpu0_L1I RFO       ACCESS:          0  HIT:          0  MISS:          0
cpu0_L1I PREFETCH  ACCESS:          0  HIT:          0  MISS:          0
cpu0_L1I WRITEBACK ACCESS:          0  HIT:          0  MISS:          0
cpu0_STLB TOTAL     ACCESS:     155616  HIT:     131198  MISS:      24418
cpu0_STLB LOAD      ACCESS:     129646  HIT:     106220  MISS:      23426
cpu0_STLB RFO       ACCESS:      25970  HIT:      24978  MISS:        992
cpu0_STLB PREFETCH  ACCESS:          0  HIT:          0  MISS:          0
cpu0_STLB WRITEBACK ACCESS:          0  HIT:          0  MISS:          0
cpu0_L1D TOTAL     ACCESS:    5681276  HIT:    5508466  MISS:     172810
cpu0_L1D LOAD      ACCESS:    3709089  HIT:    3556962  MISS:     152127
cpu0_L1D RFO       ACCESS:    1947813  HIT:    1927321  MISS:      20492
cpu0_L1D PREFETCH  ACCESS:          0  HIT:          0  MISS:          0
cpu0_L1D WRITEBACK ACCESS:          0  HIT:          0  MISS:          0
cpu0_L2C TOTAL     ACCESS:     285864  HIT:     198071  MISS:      87793
cpu0_L2C LOAD      ACCESS:     152163  HIT:      71681  MISS:      80482
cpu0_L2C RFO       ACCESS:      20488  HIT:      13468  MISS:       7020
cpu0_L2C PREFETCH  ACCESS:          0  HIT:          0  MISS:          0
cpu0_L2C WRITEBACK ACCESS:     113022  HIT:     112748  MISS:        274
LLC TOTAL     ACCESS:     150053  HIT:     111283  MISS:      38770
LLC LOAD      ACCESS:      80482  HIT:      47041  MISS:      33441
LLC RFO       ACCESS:       7020  HIT:       2671  MISS:       4349
LLC PREFETCH  ACCESS:          0  HIT:          0  MISS:          0
LLC WRITEBACK ACCESS:      62534  HIT:      61560  MISS:        974
Heartbeat CPU 0 instructions: 78000004 cycles: 40122006 heartbeat IPC: 0.975347 cumulative IPC: 1.01464 (Simulation time: 0 hr 33 min 19 sec) 

Region of Interest Statistics
cpu0_DTLB TOTAL     ACCESS:    5425715  HIT:    5257522  MISS:     168193
cpu0_DTLB LOAD      ACCESS:    4260600  HIT:    4120008  MISS:     140592
cpu0_DTLB RFO       ACCESS:    1165115  HIT:    1137514  MISS:      27601
cpu0_DTLB PREFETCH  ACCESS:          0  HIT:          0  MISS:          0
cpu0_DTLB WRITEBACK ACCESS:          0  HIT:          0  MISS:          0
cpu0_ITLB TOTAL     ACCESS:    2764190  HIT:    2764190  MISS:          0
cpu0_ITLB LOAD      ACCESS:    2764190  HIT:    2764190  MISS:          0
cpu0_ITLB RFO       ACCESS:          0  HIT:          0  MISS:          0
cpu0_ITLB PREFETCH  ACCESS:          0  HIT:          0  MISS:          0
cpu0_ITLB WRITEBACK ACCESS:          0  HIT:          0  MISS:          0
cpu0_L1I TOTAL     ACCESS:     394598  HIT:     394561  MISS:         37
cpu0_L1I LOAD      ACCESS:     394598  HIT:     394561  MISS:         37
cpu0_L1I RFO       ACCESS:          0  HIT:          0  MISS:          0
cpu0_L1I PREFETCH  ACCESS:          0  HIT:          0  MISS:          0
cpu0_L1I WRITEBACK ACCESS:          0  HIT:          0  MISS:          0
cpu0_STLB TOTAL     ACCESS:     168193  HIT:     141947  MISS:      26246
cpu0_STLB LOAD      ACCESS:     140592  HIT:     115362  MISS:      25230
cpu0_STLB RFO       ACCESS:      27601  HIT:      26585  MISS:       1016
cpu0_STLB PREFETCH  ACCESS:          0  HIT:          0  MISS:          0
cpu0_STLB WRITEBACK ACCESS:          0  HIT:          0  MISS:          0
cpu0_L1D TOTAL     ACCESS:    6123299  HIT:    5936537  MISS:     186762
cpu0_L1D LOAD      ACCESS:    3999991  HIT:    3835397  MISS:     164594
cpu0_L1D RFO       ACCESS:    2097108  HIT:    2075144  MISS:      21964
cpu0_L1D PREFETCH  ACCESS:          0  HIT:          0  MISS:          0
cpu0_L1D WRITEBACK ACCESS:          0  HIT:          0  MISS:          0
cpu0_L2C TOTAL     ACCESS:     308831  HIT:     214185  MISS:      94646
cpu0_L2C LOAD      ACCESS:     164630  HIT:      77696  MISS:      86934
cpu0_L2C RFO       ACCESS:      21959  HIT:      14555  MISS:       7404
cpu0_L2C PREFETCH  ACCESS:          0  HIT:          0  MISS:          0
cpu0_L2C WRITEBACK ACCESS:     122038  HIT:     121747  MISS:        291
LLC TOTAL     ACCESS:     161893  HIT:     119849  MISS:      42044
LLC LOAD      ACCESS:      86934  HIT:      50520  MISS:      36414
LLC RFO       ACCESS:       7404  HIT:       2813  MISS:       4591
LLC PREFETCH  ACCESS:          0  HIT:          0  MISS:          0
LLC WRITEBACK ACCESS:      67538  HIT:      66505  MISS:       1033
Heartbeat CPU 0 instructions: 80000001 cycles: 42311125 heartbeat IPC: 0.913608 cumulative IPC: 1.00722 (Simulation time: 0 hr 34 min 20 sec) 

Region of Interest Statistics
cpu0_DTLB TOTAL     ACCESS:    5821878  HIT:    5640733  MISS:     181145
cpu0_DTLB LOAD      ACCESS:    4574214  HIT:    4422307  MISS:     151907
cpu0_DTLB RFO       ACCESS:    1247664  HIT:    1218426  MISS:      29238
cpu0_DTLB PREFETCH  ACCESS:          0  HIT:          0  MISS:          0
cpu0_DTLB WRITEBACK ACCESS:          0  HIT:          0  MISS:          0
cpu0_ITLB TOTAL     ACCESS:    2962999  HIT:    2962999  MISS:          0
cpu0_ITLB LOAD      ACCESS:    2962999  HIT:    2962999  MISS:          0
cpu0_ITLB RFO       ACCESS:          0  HIT:          0  MISS:          0
cpu0_ITLB PREFETCH  ACCESS:          0  HIT:          0  MISS:          0
cpu0_ITLB WRITEBACK ACCESS:          0  HIT:          0  MISS:          0
cpu0_L1I TOTAL     ACCESS:     419626  HIT:     419578  MISS:         48
cpu0_L1I LOAD      ACCESS:     419626  HIT:     419578  MISS:         48
cpu0_L1I RFO       ACCESS:          0  HIT:          0  MISS:          0
cpu0_L1I PREFETCH  ACCESS:          0  HIT:          0  MISS:          0
cpu0_L1I WRITEBACK ACCESS:          0  HIT:          0  MISS:          0
cpu0_STLB TOTAL     ACCESS:     181145  HIT:     153026  MISS:      28119
cpu0_STLB LOAD      ACCESS:     151907  HIT:     124850  MISS:      27057
cpu0_STLB RFO       ACCESS:      29238  HIT:      28176  MISS:       1062
cpu0_STLB PREFETCH  ACCESS:          0  HIT:          0  MISS:          0
cpu0_STLB WRITEBACK ACCESS:          0  HIT:          0  MISS:          0
cpu0_L1D TOTAL     ACCESS:    6567054  HIT:    6365124  MISS:     201930
cpu0_L1D LOAD      ACCESS:    4296351  HIT:    4118174  MISS:     178177
cpu0_L1D RFO       ACCESS:    2242639  HIT:    2219110  MISS:      23529
cpu0_L1D PREFETCH  ACCESS:          0  HIT:          0  MISS:          0
cpu0_L1D WRITEBACK ACCESS:          0  HIT:          0  MISS:          0
cpu0_L2C TOTAL     ACCESS:     333485  HIT:     230683  MISS:     102802
cpu0_L2C LOAD      ACCESS:     178224  HIT:      83761  MISS:      94463
cpu0_L2C RFO       ACCESS:      23521  HIT:      15509  MISS:       8012
cpu0_L2C PREFETCH  ACCESS:          0  HIT:          0  MISS:          0
cpu0_L2C WRITEBACK ACCESS:     131516  HIT:     131209  MISS:        307
LLC TOTAL     ACCESS:     175724  HIT:     129910  MISS:      45814
LLC LOAD      ACCESS:      94463  HIT:      54767  MISS:      39696
LLC RFO       ACCESS:       8012  HIT:       3058  MISS:       4954
LLC PREFETCH  ACCESS:          0  HIT:          0  MISS:          0
LLC WRITEBACK ACCESS:      73229  HIT:      72072  MISS:       1157
Heartbeat CPU 0 instructions: 82000003 cycles: 44394658 heartbeat IPC: 0.959909 cumulative IPC: 1.00412 (Simulation time: 0 hr 35 min 18 sec) 

Region of Interest Statistics
cpu0_DTLB TOTAL     ACCESS:    6212153  HIT:    6017995  MISS:     194158
cpu0_DTLB LOAD      ACCESS:    4880213  HIT:    4716887  MISS:     163326
cpu0_DTLB RFO       ACCESS:    1331940  HIT:    1301108  MISS:      30832
cpu0_DTLB PREFETCH  ACCESS:          0  HIT:          0  MISS:          0
cpu0_DTLB WRITEBACK ACCESS:          0  HIT:          0  MISS:          0
cpu0_ITLB TOTAL     ACCESS:    3166428  HIT:    3166428  MISS:          0
cpu0_ITLB LOAD      ACCESS:    3166428  HIT:    3166428  MISS:          0
cpu0_ITLB RFO       ACCESS:          0  HIT:          0  MISS:          0
cpu0_ITLB PREFETCH  ACCESS:          0  HIT:          0  MISS:          0
cpu0_ITLB WRITEBACK ACCESS:          0  HIT:          0  MISS:          0
cpu0_L1I TOTAL     ACCESS:     444310  HIT:     444260  MISS:         50
cpu0_L1I LOAD      ACCESS:     444310  HIT:     444260  MISS:         50
cpu0_L1I RFO       ACCESS:          0  HIT:          0  MISS:          0
cpu0_L1I PREFETCH  ACCESS:          0  HIT:          0  MISS:          0
cpu0_L1I WRITEBACK ACCESS:          0  HIT:          0  MISS:          0
cpu0_STLB TOTAL     ACCESS:     194158  HIT:     164180  MISS:      29978
cpu0_STLB LOAD      ACCESS:     163326  HIT:     134433  MISS:      28893
cpu0_STLB RFO       ACCESS:      30832  HIT:      29747  MISS:       1085
cpu0_STLB PREFETCH  ACCESS:          0  HIT:          0  MISS:          0
cpu0_STLB WRITEBACK ACCESS:          0  HIT:          0  MISS:          0
cpu0_L1D TOTAL     ACCESS:    7018497  HIT:    6802481  MISS:     216016
cpu0_L1D LOAD      ACCESS:    4592014  HIT:    4400960  MISS:     191054
cpu0_L1D RFO       ACCESS:    2396569  HIT:    2371848  MISS:      24721
cpu0_L1D PREFETCH  ACCESS:          0  HIT:          0  MISS:          0
cpu0_L1D WRITEBACK ACCESS:          0  HIT:          0  MISS:          0
cpu0_L2C TOTAL     ACCESS:     356395  HIT:     246395  MISS:     110000
cpu0_L2C LOAD      ACCESS:     191103  HIT:      89809  MISS:     101294
cpu0_L2C RFO       ACCESS:      24713  HIT:      16343  MISS:       8370
cpu0_L2C PREFETCH  ACCESS:          0  HIT:          0  MISS:          0
cpu0_L2C WRITEBACK ACCESS:     140338  HIT:     140023  MISS:        315
LLC TOTAL     ACCESS:     187962  HIT:     138909  MISS:      49053
LLC LOAD      ACCESS:     101294  HIT:      58663  MISS:      42631
LLC RFO       ACCESS:       8370  HIT:       3196  MISS:       5174
LLC PREFETCH  ACCESS:          0  HIT:          0  MISS:          0
LLC WRITEBACK ACCESS:      78277  HIT:      77036  MISS:       1241
Heartbeat CPU 0 instructions: 84000001 cycles: 46483636 heartbeat IPC: 0.957405 cumulative IPC: 1.00125 (Simulation time: 0 hr 36 min 16 sec) 

Region of Interest Statistics
cpu0_DTLB TOTAL     ACCESS:    6602655  HIT:    6395625  MISS:     207030
cpu0_DTLB LOAD      ACCESS:    5185967  HIT:    5011340  MISS:     174627
cpu0_DTLB RFO       ACCESS:    1416688  HIT:    1384285  MISS:      32403
cpu0_DTLB PREFETCH  ACCESS:          0  HIT:          0  MISS:          0
cpu0_DTLB WRITEBACK ACCESS:          0  HIT:          0  MISS:          0
cpu0_ITLB TOTAL     ACCESS:    3368414  HIT:    3368414  MISS:          0
cpu0_ITLB LOAD      ACCESS:    3368414  HIT:    3368414  MISS:          0
cpu0_ITLB RFO       ACCESS:          0  HIT:          0  MISS:          0
cpu0_ITLB PREFETCH  ACCESS:          0  HIT:          0  MISS:          0
cpu0_ITLB WRITEBACK ACCESS:          0  HIT:          0  MISS:          0
cpu0_L1I TOTAL     ACCESS:     470804  HIT:     470754  MISS:         50
cpu0_L1I LOAD      ACCESS:     470804  HIT:     470754  MISS:         50
cpu0_L1I RFO       ACCESS:          0  HIT:          0  MISS:          0
cpu0_L1I PREFETCH  ACCESS:          0  HIT:          0  MISS:          0
cpu0_L1I WRITEBACK ACCESS:          0  HIT:          0  MISS:          0
cpu0_STLB TOTAL     ACCESS:     207030  HIT:     175120  MISS:      31910
cpu0_STLB LOAD      ACCESS:     174627  HIT:     143835  MISS:      30792
cpu0_STLB RFO       ACCESS:      32403  HIT:      31285  MISS:       1118
cpu0_STLB PREFETCH  ACCESS:          0  HIT:          0  MISS:          0
cpu0_STLB WRITEBACK ACCESS:          0  HIT:          0  MISS:          0
cpu0_L1D TOTAL     ACCESS:    7466612  HIT:    7236066  MISS:     230546
cpu0_L1D LOAD      ACCESS:    4883939  HIT:    4679659  MISS:     204280
cpu0_L1D RFO       ACCESS:    2550835  HIT:    2524825  MISS:      26010
cpu0_L1D PREFETCH  ACCESS:          0  HIT:          0  MISS:          0
cpu0_L1D WRITEBACK ACCESS:          0  HIT:          0  MISS:          0
cpu0_L2C TOTAL     ACCESS:     380090  HIT:     262645  MISS:     117445
cpu0_L2C LOAD      ACCESS:     204329  HIT:      96039  MISS:     108290
cpu0_L2C RFO       ACCESS:      26001  HIT:      17211  MISS:       8790
cpu0_L2C PREFETCH  ACCESS:          0  HIT:          0  MISS:          0
cpu0_L2C WRITEBACK ACCESS:     149504  HIT:     149162  MISS:        342
LLC TOTAL     ACCESS:     200652  HIT:     148239  MISS:      52413
LLC LOAD      ACCESS:     108290  HIT:      62635  MISS:      45655
LLC RFO       ACCESS:       8790  HIT:       3381  MISS:       5409
LLC PREFETCH  ACCESS:          0  HIT:          0  MISS:          0
LLC WRITEBACK ACCESS:      83549  HIT:      82207  MISS:       1342
Heartbeat CPU 0 instructions: 86000002 cycles: 48580990 heartbeat IPC: 0.953583 cumulative IPC: 0.998477 (Simulation time: 0 hr 37 min 14 sec) 

Region of Interest Statistics
cpu0_DTLB TOTAL     ACCESS:    6992973  HIT:    6771683  MISS:     221290
cpu0_DTLB LOAD      ACCESS:    5493700  HIT:    5307045  MISS:     186655
cpu0_DTLB RFO       ACCESS:    1499273  HIT:    1464638  MISS:      34635
cpu0_DTLB PREFETCH  ACCESS:          0  HIT:          0  MISS:          0
cpu0_DTLB WRITEBACK ACCESS:          0  HIT:          0  MISS:          0
cpu0_ITLB TOTAL     ACCESS:    3565488  HIT:    3565488  MISS:          0
cpu0_ITLB LOAD      ACCESS:    3565488  HIT:    3565488  MISS:          0
cpu0_ITLB RFO       ACCESS:          0  HIT:          0  MISS:          0
cpu0_ITLB PREFETCH  ACCESS:          0  HIT:          0  MISS:          0
cpu0_ITLB WRITEBACK ACCESS:          0  HIT:          0  MISS:          0
cpu0_L1I TOTAL     ACCESS:     498666  HIT:     498616  MISS:         50
cpu0_L1I LOAD      ACCESS:     498666  HIT:     498616  MISS:         50
cpu0_L1I RFO       ACCESS:          0  HIT:          0  MISS:          0
cpu0_L1I PREFETCH  ACCESS:          0  HIT:          0  MISS:          0
cpu0_L1I WRITEBACK ACCESS:          0  HIT:          0  MISS:          0
cpu0_STLB TOTAL     ACCESS:     221290  HIT:     187174  MISS:      34116
cpu0_STLB LOAD      ACCESS:     186655  HIT:     153728  MISS:      32927
cpu0_STLB RFO       ACCESS:      34635  HIT:      33446  MISS:       1189
cpu0_STLB PREFETCH  ACCESS:          0  HIT:          0  MISS:          0
cpu0_STLB WRITEBACK ACCESS:          0  HIT:          0  MISS:          0
cpu0_L1D TOTAL     ACCESS:    7879944  HIT:    7632074  MISS:     247870
cpu0_L1D LOAD      ACCESS:    5154512  HIT:    4934984  MISS:     219528
cpu0_L1D RFO       ACCESS:    2691395  HIT:    2663330  MISS:      28065
cpu0_L1D PREFETCH  ACCESS:          0  HIT:          0  MISS:          0
cpu0_L1D WRITEBACK ACCESS:          0  HIT:          0  MISS:          0
cpu0_L2C TOTAL     ACCESS:     408665  HIT:     282134  MISS:     126531
cpu0_L2C LOAD      ACCESS:     219577  HIT:     102972  MISS:     116605
cpu0_L2C RFO       ACCESS:      28054  HIT:      18527  MISS:       9527
cpu0_L2C PREFETCH  ACCESS:          0  HIT:          0  MISS:          0
cpu0_L2C WRITEBACK ACCESS:     160757  HIT:     160382  MISS:        375
LLC TOTAL     ACCESS:     216089  HIT:     159599  MISS:      56490
LLC LOAD      ACCESS:     116605  HIT:      67423  MISS:      49182
LLC RFO       ACCESS:       9527  HIT:       3748  MISS:       5779
LLC PREFETCH  ACCESS:          0  HIT:          0  MISS:          0
LLC WRITEBACK ACCESS:      89933  HIT:      88411  MISS:       1522
Heartbeat CPU 0 instructions: 88000000 cycles: 50588524 heartbeat IPC: 0.996246 cumulative IPC: 0.998359 (Simulation time: 0 hr 38 min 13 sec) 

Region of Interest Statistics
cpu0_DTLB TOTAL     ACCESS:    7381617  HIT:    7149249  MISS:     232368
cpu0_DTLB LOAD      ACCESS:    5800253  HIT:    5604250  MISS:     196003
cpu0_DTLB RFO       ACCESS:    1581364  HIT:    1544999  MISS:      36365
cpu0_DTLB PREFETCH  ACCESS:          0  HIT:          0  MISS:          0
cpu0_DTLB WRITEBACK ACCESS:          0  HIT:          0  MISS:          0
cpu0_ITLB TOTAL     ACCESS:    3760528  HIT:    3760528  MISS:          0
cpu0_ITLB LOAD      ACCESS:    3760528  HIT:    3760528  MISS:          0
cpu0_ITLB RFO       ACCESS:          0  HIT:          0  MISS:          0
cpu0_ITLB PREFETCH  ACCESS:          0  HIT:          0  MISS:          0
cpu0_ITLB WRITEBACK ACCESS:          0  HIT:          0  MISS:          0
cpu0_L1I TOTAL     ACCESS:     526066  HIT:     526009  MISS:         57
cpu0_L1I LOAD      ACCESS:     526066  HIT:     526009  MISS:         57
cpu0_L1I RFO       ACCESS:          0  HIT:          0  MISS:          0
cpu0_L1I PREFETCH  ACCESS:          0  HIT:          0  MISS:          0
cpu0_L1I WRITEBACK ACCESS:          0  HIT:          0  MISS:          0
cpu0_STLB TOTAL     ACCESS:     232368  HIT:     196718  MISS:      35650
cpu0_STLB LOAD      ACCESS:     196003  HIT:     161601  MISS:      34402
cpu0_STLB RFO       ACCESS:      36365  HIT:      35117  MISS:       1248
cpu0_STLB PREFETCH  ACCESS:          0  HIT:          0  MISS:          0
cpu0_STLB WRITEBACK ACCESS:          0  HIT:          0  MISS:          0
cpu0_L1D TOTAL     ACCESS:    8314933  HIT:    8053825  MISS:     261108
cpu0_L1D LOAD      ACCESS:    5444623  HIT:    5213433  MISS:     231190
cpu0_L1D RFO       ACCESS:    2834742  HIT:    2805124  MISS:      29618
cpu0_L1D PREFETCH  ACCESS:          0  HIT:          0  MISS:          0
cpu0_L1D WRITEBACK ACCESS:          0  HIT:          0  MISS:          0
cpu0_L2C TOTAL     ACCESS:     430351  HIT:     297480  MISS:     132871
cpu0_L2C LOAD      ACCESS:     231246  HIT:     108837  MISS:     122409
cpu0_L2C RFO       ACCESS:      29607  HIT:      19560  MISS:      10047
cpu0_L2C PREFETCH  ACCESS:          0  HIT:          0  MISS:          0
cpu0_L2C WRITEBACK ACCESS:     169198  HIT:     168809  MISS:        389
LLC TOTAL     ACCESS:     226903  HIT:     167467  MISS:      59436
LLC LOAD      ACCESS:     122409  HIT:      70763  MISS:      51646
LLC RFO       ACCESS:      10047  HIT:       3866  MISS:       6181
LLC PREFETCH  ACCESS:          0  HIT:          0  MISS:          0
LLC WRITEBACK ACCESS:      94421  HIT:      92820  MISS:       1601
Heartbeat CPU 0 instructions: 90000000 cycles: 52542151 heartbeat IPC: 1.02374 cumulative IPC: 0.999598 (Simulation time: 0 hr 39 min 8 sec) 

Region of Interest Statistics
cpu0_DTLB TOTAL     ACCESS:    7764160  HIT:    7519589  MISS:     244571
cpu0_DTLB LOAD      ACCESS:    6100095  HIT:    5893808  MISS:     206287
cpu0_DTLB RFO       ACCESS:    1664065  HIT:    1625781  MISS:      38284
cpu0_DTLB PREFETCH  ACCESS:          0  HIT:          0  MISS:          0
cpu0_DTLB WRITEBACK ACCESS:          0  HIT:          0  MISS:          0
cpu0_ITLB TOTAL     ACCESS:    3959963  HIT:    3959963  MISS:          0
cpu0_ITLB LOAD      ACCESS:    3959963  HIT:    3959963  MISS:          0
cpu0_ITLB RFO       ACCESS:          0  HIT:          0  MISS:          0
cpu0_ITLB PREFETCH  ACCESS:          0  HIT:          0  MISS:          0
cpu0_ITLB WRITEBACK ACCESS:          0  HIT:          0  MISS:          0
cpu0_L1I TOTAL     ACCESS:     554162  HIT:     554103  MISS:         59
cpu0_L1I LOAD      ACCESS:     554162  HIT:     554103  MISS:         59
cpu0_L1I RFO       ACCESS:          0  HIT:          0  MISS:          0
cpu0_L1I PREFETCH  ACCESS:          0  HIT:          0  MISS:          0
cpu0_L1I WRITEBACK ACCESS:          0  HIT:          0  MISS:          0
cpu0_STLB TOTAL     ACCESS:     244571  HIT:     207228  MISS:      37343
cpu0_STLB LOAD      ACCESS:     206287  HIT:     170231  MISS:      36056
cpu0_STLB RFO       ACCESS:      38284  HIT:      36997  MISS:       1287
cpu0_STLB PREFETCH  ACCESS:          0  HIT:          0  MISS:          0
cpu0_STLB WRITEBACK ACCESS:          0  HIT:          0  MISS:          0
cpu0_L1D TOTAL     ACCESS:    8748958  HIT:    8474008  MISS:     274950
cpu0_L1D LOAD      ACCESS:    5729543  HIT:    5486061  MISS:     243482
cpu0_L1D RFO       ACCESS:    2982160  HIT:    2951008  MISS:      31152
cpu0_L1D PREFETCH  ACCESS:          0  HIT:          0  MISS:          0
cpu0_L1D WRITEBACK ACCESS:          0  HIT:          0  MISS:          0
cpu0_L2C TOTAL     ACCESS:     453113  HIT:     313577  MISS:     139536
cpu0_L2C LOAD      ACCESS:     243540  HIT:     114975  MISS:     128565
cpu0_L2C RFO       ACCESS:      31141  HIT:      20593  MISS:      10548
cpu0_L2C PREFETCH  ACCESS:          0  HIT:          0  MISS:          0
cpu0_L2C WRITEBACK ACCESS:     178116  HIT:     177719  MISS:        397
LLC TOTAL     ACCESS:     238096  HIT:     175914  MISS:      62182
LLC LOAD      ACCESS:     128565  HIT:      74543  MISS:      54022
LLC RFO       ACCESS:      10548  HIT:       4074  MISS:       6474
LLC PREFETCH  ACCESS:          0  HIT:          0  MISS:          0
LLC WRITEBACK ACCESS:      98957  HIT:      97279  MISS:       1678
Heartbeat CPU 0 instructions: 92000000 cycles: 54372016 heartbeat IPC: 1.09298 cumulative IPC: 1.00368 (Simulation time: 0 hr 40 min 2 sec) 

Region of Interest Statistics
cpu0_DTLB TOTAL     ACCESS:    8145843  HIT:    7890744  MISS:     255099
cpu0_DTLB LOAD      ACCESS:    6399340  HIT:    6184197  MISS:     215143
cpu0_DTLB RFO       ACCESS:    1746503  HIT:    1706547  MISS:      39956
cpu0_DTLB PREFETCH  ACCESS:          0  HIT:          0  MISS:          0
cpu0_DTLB WRITEBACK ACCESS:          0  HIT:          0  MISS:          0
cpu0_ITLB TOTAL     ACCESS:    4158421  HIT:    4158421  MISS:          0
cpu0_ITLB LOAD      ACCESS:    4158421  HIT:    4158421  MISS:          0
cpu0_ITLB RFO       ACCESS:          0  HIT:          0  MISS:          0
cpu0_ITLB PREFETCH  ACCESS:          0  HIT:          0  MISS:          0
cpu0_ITLB WRITEBACK ACCESS:          0  HIT:          0  MISS:          0
cpu0_L1I TOTAL     ACCESS:     583902  HIT:     583843  MISS:         59
cpu0_L1I LOAD      ACCESS:     583902  HIT:     583843  MISS:         59
cpu0_L1I RFO       ACCESS:          0  HIT:          0  MISS:          0
cpu0_L1I PREFETCH  ACCESS:          0  HIT:          0  MISS:          0
cpu0_L1I WRITEBACK ACCESS:          0  HIT:          0  MISS:          0
cpu0_STLB TOTAL     ACCESS:     255099  HIT:     216261  MISS:      38838
cpu0_STLB LOAD      ACCESS:     215143  HIT:     177614  MISS:      37529
cpu0_STLB RFO       ACCESS:      39956  HIT:      38647  MISS:       1309
cpu0_STLB PREFETCH  ACCESS:          0  HIT:          0  MISS:          0
cpu0_STLB WRITEBACK ACCESS:          0  HIT:          0  MISS:          0
cpu0_L1D TOTAL     ACCESS:    9182191  HIT:    8895985  MISS:     286206
cpu0_L1D LOAD      ACCESS:    6012793  HIT:    5759237  MISS:     253556
cpu0_L1D RFO       ACCESS:    3130651  HIT:    3098327  MISS:      32324
cpu0_L1D PREFETCH  ACCESS:          0  HIT:          0  MISS:          0
cpu0_L1D WRITEBACK ACCESS:          0  HIT:          0  MISS:          0
cpu0_L2C TOTAL     ACCESS:     471667  HIT:     326815  MISS:     144852
cpu0_L2C LOAD      ACCESS:     253614  HIT:     120113  MISS:     133501
cpu0_L2C RFO       ACCESS:      32313  HIT:      21400  MISS:      10913
cpu0_L2C PREFETCH  ACCESS:          0  HIT:          0  MISS:          0
cpu0_L2C WRITEBACK ACCESS:     185414  HIT:     185002  MISS:        412
LLC TOTAL     ACCESS:     247143  HIT:     182610  MISS:      64533
LLC LOAD      ACCESS:     133501  HIT:      77447  MISS:      56054
LLC RFO       ACCESS:      10913  HIT:       4176  MISS:       6737
LLC PREFETCH  ACCESS:          0  HIT:          0  MISS:          0
LLC WRITEBACK ACCESS:     102703  HIT:     100969  MISS:       1734
Heartbeat CPU 0 instructions: 94000000 cycles: 56318016 heartbeat IPC: 1.02775 cumulative IPC: 1.00475 (Simulation time: 0 hr 40 min 59 sec) 

Region of Interest Statistics
cpu0_DTLB TOTAL     ACCESS:    8520398  HIT:    8255305  MISS:     265093
cpu0_DTLB LOAD      ACCESS:    6687858  HIT:    6464389  MISS:     223469
cpu0_DTLB RFO       ACCESS:    1832540  HIT:    1790916  MISS:      41624
cpu0_DTLB PREFETCH  ACCESS:          0  HIT:          0  MISS:          0
cpu0_DTLB WRITEBACK ACCESS:          0  HIT:          0  MISS:          0
cpu0_ITLB TOTAL     ACCESS:    4345625  HIT:    4345625  MISS:          0
cpu0_ITLB LOAD      ACCESS:    4345625  HIT:    4345625  MISS:          0
cpu0_ITLB RFO       ACCESS:          0  HIT:          0  MISS:          0
cpu0_ITLB PREFETCH  ACCESS:          0  HIT:          0  MISS:          0
cpu0_ITLB WRITEBACK ACCESS:          0  HIT:          0  MISS:          0
cpu0_L1I TOTAL     ACCESS:     618840  HIT:     618781  MISS:         59
cpu0_L1I LOAD      ACCESS:     618840  HIT:     618781  MISS:         59
cpu0_L1I RFO       ACCESS:          0  HIT:          0  MISS:          0
cpu0_L1I PREFETCH  ACCESS:          0  HIT:          0  MISS:          0
cpu0_L1I WRITEBACK ACCESS:          0  HIT:          0  MISS:          0
cpu0_STLB TOTAL     ACCESS:     265093  HIT:     224158  MISS:      40935
cpu0_STLB LOAD      ACCESS:     223469  HIT:     183927  MISS:      39542
cpu0_STLB RFO       ACCESS:      41624  HIT:      40231  MISS:       1393
cpu0_STLB PREFETCH  ACCESS:          0  HIT:          0  MISS:          0
cpu0_STLB WRITEBACK ACCESS:          0  HIT:          0  MISS:          0
cpu0_L1D TOTAL     ACCESS:    9608921  HIT:    9311230  MISS:     297691
cpu0_L1D LOAD      ACCESS:    6278692  HIT:    6015145  MISS:     263547
cpu0_L1D RFO       ACCESS:    3289392  HIT:    3255585  MISS:      33807
cpu0_L1D PREFETCH  ACCESS:          0  HIT:          0  MISS:          0
cpu0_L1D WRITEBACK ACCESS:          0  HIT:          0  MISS:          0
cpu0_L2C TOTAL     ACCESS:     490575  HIT:     339095  MISS:     151480
cpu0_L2C LOAD      ACCESS:     263605  HIT:     124205  MISS:     139400
cpu0_L2C RFO       ACCESS:      33795  HIT:      22186  MISS:      11609
cpu0_L2C PREFETCH  ACCESS:          0  HIT:          0  MISS:          0
cpu0_L2C WRITEBACK ACCESS:     192838  HIT:     192397  MISS:        441
LLC TOTAL     ACCESS:     258421  HIT:     189785  MISS:      68636
LLC LOAD      ACCESS:     139400  HIT:      79815  MISS:      59585
LLC RFO       ACCESS:      11608  HIT:       4406  MISS:       7202
LLC PREFETCH  ACCESS:          0  HIT:          0  MISS:          0
LLC WRITEBACK ACCESS:     107383  HIT:     105544  MISS:       1839
Heartbeat CPU 0 instructions: 96000002 cycles: 58424031 heartbeat IPC: 0.949662 cumulative IPC: 1.00222 (Simulation time: 0 hr 42 min 0 sec) 

Region of Interest Statistics
cpu0_DTLB TOTAL     ACCESS:    8905982  HIT:    8629130  MISS:     276852
cpu0_DTLB LOAD      ACCESS:    6987876  HIT:    6754472  MISS:     233404
cpu0_DTLB RFO       ACCESS:    1918106  HIT:    1874658  MISS:      43448
cpu0_DTLB PREFETCH  ACCESS:          0  HIT:          0  MISS:          0
cpu0_DTLB WRITEBACK ACCESS:          0  HIT:          0  MISS:          0
cpu0_ITLB TOTAL     ACCESS:    4539666  HIT:    4539666  MISS:          0
cpu0_ITLB LOAD      ACCESS:    4539666  HIT:    4539666  MISS:          0
cpu0_ITLB RFO       ACCESS:          0  HIT:          0  MISS:          0
cpu0_ITLB PREFETCH  ACCESS:          0  HIT:          0  MISS:          0
cpu0_ITLB WRITEBACK ACCESS:          0  HIT:          0  MISS:          0
cpu0_L1I TOTAL     ACCESS:     645067  HIT:     644999  MISS:         68
cpu0_L1I LOAD      ACCESS:     645067  HIT:     644999  MISS:         68
cpu0_L1I RFO       ACCESS:          0  HIT:          0  MISS:          0
cpu0_L1I PREFETCH  ACCESS:          0  HIT:          0  MISS:          0
cpu0_L1I WRITEBACK ACCESS:          0  HIT:          0  MISS:          0
cpu0_STLB TOTAL     ACCESS:     276852  HIT:     233754  MISS:      43098
cpu0_STLB LOAD      ACCESS:     233404  HIT:     191726  MISS:      41678
cpu0_STLB RFO       ACCESS:      43448  HIT:      42028  MISS:       1420
cpu0_STLB PREFETCH  ACCESS:          0  HIT:          0  MISS:          0
cpu0_STLB WRITEBACK ACCESS:          0  HIT:          0  MISS:          0
cpu0_L1D TOTAL     ACCESS:   10069796  HIT:    9759128  MISS:     310668
cpu0_L1D LOAD      ACCESS:    6577934  HIT:    6302791  MISS:     275143
cpu0_L1D RFO       ACCESS:    3448871  HIT:    3413696  MISS:      35175
cpu0_L1D PREFETCH  ACCESS:          0  HIT:          0  MISS:          0
cpu0_L1D WRITEBACK ACCESS:          0  HIT:          0  MISS:          0
cpu0_L2C TOTAL     ACCESS:     511801  HIT:     353057  MISS:     158744
cpu0_L2C LOAD      ACCESS:     275210  HIT:     129090  MISS:     146120
cpu0_L2C RFO       ACCESS:      35163  HIT:      23044  MISS:      12119
cpu0_L2C PREFETCH  ACCESS:          0  HIT:          0  MISS:          0
cpu0_L2C WRITEBACK ACCESS:     201078  HIT:     200605  MISS:        473
LLC TOTAL     ACCESS:     270767  HIT:     198354  MISS:      72413
LLC LOAD      ACCESS:     146120  HIT:      83396  MISS:      62724
LLC RFO       ACCESS:      12118  HIT:       4501  MISS:       7617
LLC PREFETCH  ACCESS:          0  HIT:          0  MISS:          0
LLC WRITEBACK ACCESS:     112497  HIT:     110436  MISS:       2061
Heartbeat CPU 0 instructions: 98000004 cycles: 60277461 heartbeat IPC: 1.07908 cumulative IPC: 1.00521 (Simulation time: 0 hr 42 min 51 sec) 

Region of Interest Statistics
cpu0_DTLB TOTAL     ACCESS:    9274983  HIT:    8986726  MISS:     288257
cpu0_DTLB LOAD      ACCESS:    7275649  HIT:    7033178  MISS:     242471
cpu0_DTLB RFO       ACCESS:    1999334  HIT:    1953548  MISS:      45786
cpu0_DTLB PREFETCH  ACCESS:          0  HIT:          0  MISS:          0
cpu0_DTLB WRITEBACK ACCESS:          0  HIT:          0  MISS:          0
cpu0_ITLB TOTAL     ACCESS:    4730730  HIT:    4730730  MISS:          0
cpu0_ITLB LOAD      ACCESS:    4730730  HIT:    4730730  MISS:          0
cpu0_ITLB RFO       ACCESS:          0  HIT:          0  MISS:          0
cpu0_ITLB PREFETCH  ACCESS:          0  HIT:          0  MISS:          0
cpu0_ITLB WRITEBACK ACCESS:          0  HIT:          0  MISS:          0
cpu0_L1I TOTAL     ACCESS:     673955  HIT:     673887  MISS:         68
cpu0_L1I LOAD      ACCESS:     673955  HIT:     673887  MISS:         68
cpu0_L1I RFO       ACCESS:          0  HIT:          0  MISS:          0
cpu0_L1I PREFETCH  ACCESS:          0  HIT:          0  MISS:          0
cpu0_L1I WRITEBACK ACCESS:          0  HIT:          0  MISS:          0
cpu0_STLB TOTAL     ACCESS:     288257  HIT:     243437  MISS:      44820
cpu0_STLB LOAD      ACCESS:     242471  HIT:     199086  MISS:      43385
cpu0_STLB RFO       ACCESS:      45786  HIT:      44351  MISS:       1435
cpu0_STLB PREFETCH  ACCESS:          0  HIT:          0  MISS:          0
cpu0_STLB WRITEBACK ACCESS:          0  HIT:          0  MISS:          0
cpu0_L1D TOTAL     ACCESS:   10501605  HIT:   10178882  MISS:     322723
cpu0_L1D LOAD      ACCESS:    6857409  HIT:    6571798  MISS:     285611
cpu0_L1D RFO       ACCESS:    3599490  HIT:    3562739  MISS:      36751
cpu0_L1D PREFETCH  ACCESS:          0  HIT:          0  MISS:          0
cpu0_L1D WRITEBACK ACCESS:          0  HIT:          0  MISS:          0
cpu0_L2C TOTAL     ACCESS:     531768  HIT:     367346  MISS:     164422
cpu0_L2C LOAD      ACCESS:     285678  HIT:     134259  MISS:     151419
cpu0_L2C RFO       ACCESS:      36739  HIT:      24251  MISS:      12488
cpu0_L2C PREFETCH  ACCESS:          0  HIT:          0  MISS:          0
cpu0_L2C WRITEBACK ACCESS:     208990  HIT:     208507  MISS:        483
LLC TOTAL     ACCESS:     280226  HIT:     204766  MISS:      75460
LLC LOAD      ACCESS:     151419  HIT:      86147  MISS:      65272
LLC RFO       ACCESS:      12487  HIT:       4544  MISS:       7943
LLC PREFETCH  ACCESS:          0  HIT:          0  MISS:          0
LLC WRITEBACK ACCESS:     116288  HIT:     114054  MISS:       2234
Heartbeat CPU 0 instructions: 100000003 cycles: 62164334 heartbeat IPC: 1.05995 cumulative IPC: 1.00729 (Simulation time: 0 hr 43 min 44 sec) 

Region of Interest Statistics
cpu0_DTLB TOTAL     ACCESS:    9650721  HIT:    9350671  MISS:     300050
cpu0_DTLB LOAD      ACCESS:    7568316  HIT:    7316202  MISS:     252114
cpu0_DTLB RFO       ACCESS:    2082405  HIT:    2034469  MISS:      47936
cpu0_DTLB PREFETCH  ACCESS:          0  HIT:          0  MISS:          0
cpu0_DTLB WRITEBACK ACCESS:          0  HIT:          0  MISS:          0
cpu0_ITLB TOTAL     ACCESS:    4925214  HIT:    4925214  MISS:          0
cpu0_ITLB LOAD      ACCESS:    4925214  HIT:    4925214  MISS:          0
cpu0_ITLB RFO       ACCESS:          0  HIT:          0  MISS:          0
cpu0_ITLB PREFETCH  ACCESS:          0  HIT:          0  MISS:          0
cpu0_ITLB WRITEBACK ACCESS:          0  HIT:          0  MISS:          0
cpu0_L1I TOTAL     ACCESS:     703534  HIT:     703466  MISS:         68
cpu0_L1I LOAD      ACCESS:     703534  HIT:     703466  MISS:         68
cpu0_L1I RFO       ACCESS:          0  HIT:          0  MISS:          0
cpu0_L1I PREFETCH  ACCESS:          0  HIT:          0  MISS:          0
cpu0_L1I WRITEBACK ACCESS:          0  HIT:          0  MISS:          0
cpu0_STLB TOTAL     ACCESS:     300050  HIT:     253432  MISS:      46618
cpu0_STLB LOAD      ACCESS:     252114  HIT:     207011  MISS:      45103
cpu0_STLB RFO       ACCESS:      47936  HIT:      46421  MISS:       1515
cpu0_STLB PREFETCH  ACCESS:          0  HIT:          0  MISS:          0
cpu0_STLB WRITEBACK ACCESS:          0  HIT:          0  MISS:          0
cpu0_L1D TOTAL     ACCESS:   10948979  HIT:   10613873  MISS:     335106
cpu0_L1D LOAD      ACCESS:    7147429  HIT:    6850852  MISS:     296577
cpu0_L1D RFO       ACCESS:    3755051  HIT:    3716898  MISS:      38153
cpu0_L1D PREFETCH  ACCESS:          0  HIT:          0  MISS:          0
cpu0_L1D WRITEBACK ACCESS:          0  HIT:          0  MISS:          0
cpu0_L2C TOTAL     ACCESS:     552215  HIT:     382145  MISS:     170070
cpu0_L2C LOAD      ACCESS:     296644  HIT:     139951  MISS:     156693
cpu0_L2C RFO       ACCESS:      38141  HIT:      25292  MISS:      12849
cpu0_L2C PREFETCH  ACCESS:          0  HIT:          0  MISS:          0
cpu0_L2C WRITEBACK ACCESS:     217054  HIT:     216559  MISS:        495
LLC TOTAL     ACCESS:     289693  HIT:     211560  MISS:      78133
LLC LOAD      ACCESS:     156693  HIT:      89116  MISS:      67577
LLC RFO       ACCESS:      12848  HIT:       4629  MISS:       8219
LLC PREFETCH  ACCESS:          0  HIT:          0  MISS:          0
LLC WRITEBACK ACCESS:     120119  HIT:     117793  MISS:       2326
Heartbeat CPU 0 instructions: 102000001 cycles: 64087984 heartbeat IPC: 1.03969 cumulative IPC: 1.0085 (Simulation time: 0 hr 44 min 37 sec) 

Region of Interest Statistics
cpu0_DTLB TOTAL     ACCESS:   10033847  HIT:    9722442  MISS:     311405
cpu0_DTLB LOAD      ACCESS:    7865135  HIT:    7603487  MISS:     261648
cpu0_DTLB RFO       ACCESS:    2168712  HIT:    2118955  MISS:      49757
cpu0_DTLB PREFETCH  ACCESS:          0  HIT:          0  MISS:          0
cpu0_DTLB WRITEBACK ACCESS:          0  HIT:          0  MISS:          0
cpu0_ITLB TOTAL     ACCESS:    5121345  HIT:    5121345  MISS:          0
cpu0_ITLB LOAD      ACCESS:    5121345  HIT:    5121345  MISS:          0
cpu0_ITLB RFO       ACCESS:          0  HIT:          0  MISS:          0
cpu0_ITLB PREFETCH  ACCESS:          0  HIT:          0  MISS:          0
cpu0_ITLB WRITEBACK ACCESS:          0  HIT:          0  MISS:          0
cpu0_L1I TOTAL     ACCESS:     733397  HIT:     733329  MISS:         68
cpu0_L1I LOAD      ACCESS:     733397  HIT:     733329  MISS:         68
cpu0_L1I RFO       ACCESS:          0  HIT:          0  MISS:          0
cpu0_L1I PREFETCH  ACCESS:          0  HIT:          0  MISS:          0
cpu0_L1I WRITEBACK ACCESS:          0  HIT:          0  MISS:          0
cpu0_STLB TOTAL     ACCESS:     311405  HIT:     262772  MISS:      48633
cpu0_STLB LOAD      ACCESS:     261648  HIT:     214627  MISS:      47021
cpu0_STLB RFO       ACCESS:      49757  HIT:      48145  MISS:       1612
cpu0_STLB PREFETCH  ACCESS:          0  HIT:          0  MISS:          0
cpu0_STLB WRITEBACK ACCESS:          0  HIT:          0  MISS:          0
cpu0_L1D TOTAL     ACCESS:   11406163  HIT:   11058347  MISS:     347816
cpu0_L1D LOAD      ACCESS:    7440223  HIT:    7132379  MISS:     307844
cpu0_L1D RFO       ACCESS:    3917432  HIT:    3877849  MISS:      39583
cpu0_L1D PREFETCH  ACCESS:          0  HIT:          0  MISS:          0
cpu0_L1D WRITEBACK ACCESS:          0  HIT:          0  MISS:          0
cpu0_L2C TOTAL     ACCESS:     573139  HIT:     397156  MISS:     175983
cpu0_L2C LOAD      ACCESS:     307911  HIT:     145678  MISS:     162233
cpu0_L2C RFO       ACCESS:      39571  HIT:      26363  MISS:      13208
cpu0_L2C PREFETCH  ACCESS:          0  HIT:          0  MISS:          0
cpu0_L2C WRITEBACK ACCESS:     225268  HIT:     224759  MISS:        509
LLC TOTAL     ACCESS:     299718  HIT:     218851  MISS:      80867
LLC LOAD      ACCESS:     162233  HIT:      92248  MISS:      69985
LLC RFO       ACCESS:      13207  HIT:       4739  MISS:       8468
LLC PREFETCH  ACCESS:          0  HIT:          0  MISS:          0
LLC WRITEBACK ACCESS:     124245  HIT:     121842  MISS:       2403
Heartbeat CPU 0 instructions: 104000001 cycles: 66138852 heartbeat IPC: 0.975197 cumulative IPC: 1.00722 (Simulation time: 0 hr 45 min 35 sec) 

Region of Interest Statistics
cpu0_DTLB TOTAL     ACCESS:   10424474  HIT:   10101835  MISS:     322639
cpu0_DTLB LOAD      ACCESS:    8171038  HIT:    7899744  MISS:     271294
cpu0_DTLB RFO       ACCESS:    2253436  HIT:    2202091  MISS:      51345
cpu0_DTLB PREFETCH  ACCESS:          0  HIT:          0  MISS:          0
cpu0_DTLB WRITEBACK ACCESS:          0  HIT:          0  MISS:          0
cpu0_ITLB TOTAL     ACCESS:    5317845  HIT:    5317845  MISS:          0
cpu0_ITLB LOAD      ACCESS:    5317845  HIT:    5317845  MISS:          0
cpu0_ITLB RFO       ACCESS:          0  HIT:          0  MISS:          0
cpu0_ITLB PREFETCH  ACCESS:          0  HIT:          0  MISS:          0
cpu0_ITLB WRITEBACK ACCESS:          0  HIT:          0  MISS:          0
cpu0_L1I TOTAL     ACCESS:     759222  HIT:     759145  MISS:         77
cpu0_L1I LOAD      ACCESS:     759222  HIT:     759145  MISS:         77
cpu0_L1I RFO       ACCESS:          0  HIT:          0  MISS:          0
cpu0_L1I PREFETCH  ACCESS:          0  HIT:          0  MISS:          0
cpu0_L1I WRITEBACK ACCESS:          0  HIT:          0  MISS:          0
cpu0_STLB TOTAL     ACCESS:     322639  HIT:     271887  MISS:      50752
cpu0_STLB LOAD      ACCESS:     271294  HIT:     222189  MISS:      49105
cpu0_STLB RFO       ACCESS:      51345  HIT:      49698  MISS:       1647
cpu0_STLB PREFETCH  ACCESS:          0  HIT:          0  MISS:          0
cpu0_STLB WRITEBACK ACCESS:          0  HIT:          0  MISS:          0
cpu0_L1D TOTAL     ACCESS:   11868660  HIT:   11507314  MISS:     361346
cpu0_L1D LOAD      ACCESS:    7743499  HIT:    7423642  MISS:     319857
cpu0_L1D RFO       ACCESS:    4074540  HIT:    4033453  MISS:      41087
cpu0_L1D PREFETCH  ACCESS:          0  HIT:          0  MISS:          0
cpu0_L1D WRITEBACK ACCESS:          0  HIT:          0  MISS:          0
cpu0_L2C TOTAL     ACCESS:     595297  HIT:     412454  MISS:     182843
cpu0_L2C LOAD      ACCESS:     319933  HIT:     151359  MISS:     168574
cpu0_L2C RFO       ACCESS:      41075  HIT:      27367  MISS:      13708
cpu0_L2C PREFETCH  ACCESS:          0  HIT:          0  MISS:          0
cpu0_L2C WRITEBACK ACCESS:     233887  HIT:     233361  MISS:        526
LLC TOTAL     ACCESS:     311339  HIT:     227407  MISS:      83932
LLC LOAD      ACCESS:     168574  HIT:      96045  MISS:      72529
LLC RFO       ACCESS:      13707  HIT:       4852  MISS:       8855
LLC PREFETCH  ACCESS:          0  HIT:          0  MISS:          0
LLC WRITEBACK ACCESS:     129023  HIT:     126486  MISS:       2537
Heartbeat CPU 0 instructions: 106000003 cycles: 68055091 heartbeat IPC: 1.04371 cumulative IPC: 1.00848 (Simulation time: 0 hr 46 min 32 sec) 

Region of Interest Statistics
cpu0_DTLB TOTAL     ACCESS:   10797827  HIT:   10463380  MISS:     334447
cpu0_DTLB LOAD      ACCESS:    8467311  HIT:    8186690  MISS:     280621
cpu0_DTLB RFO       ACCESS:    2330516  HIT:    2276690  MISS:      53826
cpu0_DTLB PREFETCH  ACCESS:          0  HIT:          0  MISS:          0
cpu0_DTLB WRITEBACK ACCESS:          0  HIT:          0  MISS:          0
cpu0_ITLB TOTAL     ACCESS:    5500323  HIT:    5500323  MISS:          0
cpu0_ITLB LOAD      ACCESS:    5500323  HIT:    5500323  MISS:          0
cpu0_ITLB RFO       ACCESS:          0  HIT:          0  MISS:          0
cpu0_ITLB PREFETCH  ACCESS:          0  HIT:          0  MISS:          0
cpu0_ITLB WRITEBACK ACCESS:          0  HIT:          0  MISS:          0
cpu0_L1I TOTAL     ACCESS:     791066  HIT:     790987  MISS:         79
cpu0_L1I LOAD      ACCESS:     791066  HIT:     790987  MISS:         79
cpu0_L1I RFO       ACCESS:          0  HIT:          0  MISS:          0
cpu0_L1I PREFETCH  ACCESS:          0  HIT:          0  MISS:          0
cpu0_L1I WRITEBACK ACCESS:          0  HIT:          0  MISS:          0
cpu0_STLB TOTAL     ACCESS:     334447  HIT:     281605  MISS:      52842
cpu0_STLB LOAD      ACCESS:     280621  HIT:     229622  MISS:      50999
cpu0_STLB RFO       ACCESS:      53826  HIT:      51983  MISS:       1843
cpu0_STLB PREFETCH  ACCESS:          0  HIT:          0  MISS:          0
cpu0_STLB WRITEBACK ACCESS:          0  HIT:          0  MISS:          0
cpu0_L1D TOTAL     ACCESS:   12250354  HIT:   11875191  MISS:     375163
cpu0_L1D LOAD      ACCESS:    7991329  HIT:    7659883  MISS:     331446
cpu0_L1D RFO       ACCESS:    4206320  HIT:    4163024  MISS:      43296
cpu0_L1D PREFETCH  ACCESS:          0  HIT:          0  MISS:          0
cpu0_L1D WRITEBACK ACCESS:          0  HIT:          0  MISS:          0
cpu0_L2C TOTAL     ACCESS:     618376  HIT:     427649  MISS:     190727
cpu0_L2C LOAD      ACCESS:     331518  HIT:     156077  MISS:     175441
cpu0_L2C RFO       ACCESS:      43282  HIT:      28583  MISS:      14699
cpu0_L2C PREFETCH  ACCESS:          0  HIT:          0  MISS:          0
cpu0_L2C WRITEBACK ACCESS:     243155  HIT:     242606  MISS:        549
LLC TOTAL     ACCESS:     324641  HIT:     236438  MISS:      88203
[...]
cpu0_ITLB PREFETCH  ACCESS:          0  HIT:          0  MISS:          0
cpu0_ITLB WRITEBACK ACCESS:          0  HIT:          0  MISS:          0
cpu0_ITLB TRANSLATION ACCESS:          0  HIT:          0  MISS:          0
cpu0_ITLB PREFETCH  REQUESTED:          0  ISSUED:          0  USEFUL:          0  USELESS:          0
cpu0_ITLB AVERAGE MISS LATENCY: 219.75 cycles
cpu0_L1I TOTAL     ACCESS:   24190119  HIT:   24188282  MISS:       1837
cpu0_L1I LOAD      ACCESS:   24190119  HIT:   24188282  MISS:       1837
cpu0_L1I RFO       ACCESS:          0  HIT:          0  MISS:          0
cpu0_L1I PREFETCH  ACCESS:          0  HIT:          0  MISS:          0
cpu0_L1I WRITEBACK ACCESS:          0  HIT:          0  MISS:          0
cpu0_L1I TRANSLATION ACCESS:          0  HIT:          0  MISS:          0
cpu0_L1I PREFETCH  REQUESTED:          0  ISSUED:          0  USEFUL:          0  USELESS:          0
cpu0_L1I AVERAGE MISS LATENCY: 71.5362 cycles
cpu0_STLB TOTAL     ACCESS:    7651973  HIT:    6476219  MISS:    1175754
cpu0_STLB LOAD      ACCESS:    6294629  HIT:    5157621  MISS:    1137008
cpu0_STLB RFO       ACCESS:    1357344  HIT:    1318598  MISS:      38746
cpu0_STLB PREFETCH  ACCESS:          0  HIT:          0  MISS:          0
cpu0_STLB WRITEBACK ACCESS:          0  HIT:          0  MISS:          0
cpu0_STLB TRANSLATION ACCESS:          0  HIT:          0  MISS:          0
cpu0_STLB PREFETCH  REQUESTED:          0  ISSUED:          0  USEFUL:          0  USELESS:          0
cpu0_STLB AVERAGE MISS LATENCY: 11.239 cycles
cpu0_L1D TOTAL     ACCESS:  324704446  HIT:  316213228  MISS:    8491218
cpu0_L1D LOAD      ACCESS:  211226904  HIT:  203812972  MISS:    7413932
cpu0_L1D RFO       ACCESS:  112305472  HIT:  111236567  MISS:    1068905
cpu0_L1D PREFETCH  ACCESS:          0  HIT:          0  MISS:          0
cpu0_L1D WRITEBACK ACCESS:          0  HIT:          0  MISS:          0
cpu0_L1D TRANSLATION ACCESS:    1172070  HIT:    1163689  MISS:       8381
cpu0_L1D PREFETCH  REQUESTED:          0  ISSUED:          0  USEFUL:          0  USELESS:          0
cpu0_L1D AVERAGE MISS LATENCY: 74.533 cycles
cpu0_L2C TOTAL     ACCESS:   14083208  HIT:    9902244  MISS:    4180964
cpu0_L2C LOAD      ACCESS:    7415705  HIT:    3681171  MISS:    3734534
cpu0_L2C RFO       ACCESS:    1068554  HIT:     633793  MISS:     434761
cpu0_L2C PREFETCH  ACCESS:          0  HIT:          0  MISS:          0
cpu0_L2C WRITEBACK ACCESS:    5590568  HIT:    5579689  MISS:      10879
cpu0_L2C TRANSLATION ACCESS:       8381  HIT:       7591  MISS:        790
cpu0_L2C PREFETCH  REQUESTED:          0  ISSUED:          0  USEFUL:          0  USELESS:          0
cpu0_L2C AVERAGE MISS LATENCY: 129.003 cycles
LLC TOTAL     ACCESS:    7081362  HIT:    4924796  MISS:    2156566
LLC LOAD      ACCESS:    3734531  HIT:    1960812  MISS:    1773719
LLC RFO       ACCESS:     434753  HIT:     123410  MISS:     311343
LLC PREFETCH  ACCESS:          0  HIT:          0  MISS:          0
LLC WRITEBACK ACCESS:    2911288  HIT:    2839897  MISS:      71391
LLC TRANSLATION ACCESS:        790  HIT:        677  MISS:        113
LLC PREFETCH  REQUESTED:          0  ISSUED:          0  USEFUL:          0  USELESS:          0
LLC AVERAGE MISS LATENCY: 209.492 cycles
~~~~~~~~~~Reuse Distance Profiler output~~~~~~~~~~
0	37586768	9869296
1	42879200	26937616
2	26901616	17457344
3	23725952	15292912
4	18482256	12513856
5	16186512	9817168
6	11999056	8540768
7	9095776	6258848
8	7131440	5056640
9	6467600	4650144
10	6378320	5070512
11	4975712	3598832
12	4597680	3056080
13	4147840	2892768
14	4134432	3028128
15	3801968	2559008
16	3115904	1993600
17	2621376	1813952
18	2811216	1710688
19	2675536	1833600
20	2053952	1267200
21	1783456	1105504
22	1798448	1082736
23	1820320	1314544
24	1597280	1122544
25	1331760	890208
26	1077136	678240
27	1362608	812784
28	1119632	738672
29	956576	604096
30	894720	506592
31	797840	488368
32	756400	485728
33	835488	614320
34	718960	479328
35	720960	521520
36	594448	421472
37	568400	420944
38	525536	388064
39	598832	453680
40	533680	378240
41	501616	345472
42	495120	373312
43	457968	348400
44	444256	345920
45	439232	355616
46	473792	392448
47	440864	370128
48	411952	337840
49	430864	360784
50	395312	326096
51	373744	307056
52	373776	304704
53	383232	319680
54	377664	320288
55	346992	287376
56	339568	279776
57	338928	276624
58	343328	282336
59	369088	308272
60	348384	290112
61	338608	275680
62	323168	257360
63	322112	256560
64	632112	491440
66	605296	462544
68	638400	503968
70	556288	435088
72	510688	398416
74	503008	398192
76	466080	364224
78	502400	396672
80	460304	349744
82	443984	338736
84	464256	360208
86	441872	324256
88	465120	349984
90	410960	313152
92	447312	302608
94	433376	327184
96	368560	294080
98	379760	314336
100	337648	280976
102	329168	277776
104	347376	298256
106	324512	274960
108	338048	290592
110	315344	268336
112	318368	270496
114	326128	278592
116	288896	242112
118	299760	251776
120	271600	227616
122	262336	218848
124	277648	234176
126	253360	209712
128	518720	435040
132	512288	431392
136	509216	429008
140	480272	397312
144	489168	407104
148	478816	391600
152	445728	362976
156	433344	345088
160	389152	307488
164	391200	311072
168	384336	307216
172	386096	305968
176	377376	296768
180	353776	271792
184	357456	276224
188	361168	277760
192	350080	269280
196	347808	264080
200	335024	251552
204	348288	265552
208	352640	263488
212	345792	256848
216	344976	253760
220	340656	247120
224	358112	264176
228	367632	272880
232	369616	273776
236	367808	274080
240	361536	267024
244	372048	278832
248	372144	281120
252	373232	283952
256	726128	557312
264	733536	566224
272	738816	580256
280	743104	583392
288	746224	603280
296	734256	601536
304	737984	610384
312	728080	614896
320	707968	601808
328	711376	612400
336	694672	603440
344	680432	595904
352	662016	583936
360	635680	565776
368	626528	561440
376	598032	537472
384	579712	524064
392	553904	504704
400	522736	475840
408	504240	462224
416	473840	435120
424	445680	409392
432	413520	382656
440	381232	352080
448	350208	322320
456	317280	294320
464	291232	268992
472	259440	241024
480	233488	216064
488	214928	199552
496	192944	177776
504	173776	160736
512	299008	274704
528	242544	220960
544	200000	182256
560	166848	151232
576	144192	130544
592	124080	112080
608	106832	96128
624	99088	88304
640	86032	76032
656	84000	74432
672	81280	72192
688	77088	67888
704	79040	69008
720	79920	71424
736	74704	65584
752	73616	64464
768	71200	62288
784	70192	61312
800	68816	59904
816	67984	59920
832	64240	55808
848	64304	56096
864	63056	55344
880	62448	53920
896	62400	53872
912	60720	52704
928	57504	49744
944	58688	50384
960	55344	48544
976	56048	49008
992	54784	47520
1008	55440	48112
1024	110368	95024
1056	108464	94288
1088	108640	94048
1120	111152	95776
1152	111936	95776
1184	112016	96624
1216	113952	99328
1248	108608	94816
1280	109296	94672
1312	109104	94736
1344	106576	92544
1376	107024	91952
1408	104224	90496
1440	101248	86800
1472	101424	86320
1504	99424	84704
1536	92864	79216
1568	91984	78080
1600	91456	78064
1632	89280	75344
1664	84192	70880
1696	85472	70640
1728	82928	68112
1760	79520	65888
1792	77136	64672
1824	74080	60304
1856	73280	59936
1888	69024	56384
1920	68416	55760
1952	67760	55168
1984	65408	52384
2016	64224	50976
2048	121280	95648
2112	118528	93888
2176	109376	85792
2240	106272	84144
2304	100800	79344
2368	98336	78368
2432	90976	71872
2496	87120	69024
2560	87104	69408
2624	81456	64720
2688	80736	64864
2752	76848	61664
2816	74448	60096
2880	72464	58496
2944	70656	56864
3008	69264	55664
3072	65840	53296
3136	64848	52512
3200	61696	50112
3264	63376	51504
3328	61696	50704
3392	59792	48752
3456	57840	47056
3520	58736	46864
3584	55840	45776
3648	56624	46272
3712	53664	44064
3776	53040	43360
3840	51296	41504
3904	51872	42048
3968	48352	39504
4032	47648	38944
4096	99872	80208
4224	92880	74288
4352	90432	72080
4480	87056	69600
4608	89696	72000
4736	82704	67072
4864	81328	65024
4992	78560	62832
5120	78480	62112
5248	76688	60880
5376	75488	59728
5504	72352	57232
5632	71632	57152
5760	71472	56464
5888	68208	54240
6016	66704	54176
6144	66768	53952
6272	63904	50752
6400	63376	51280
6528	61168	48800
6656	58768	47344
6784	56032	44496
6912	55728	44928
7040	54224	42688
7168	53296	42528
7296	51472	41056
7424	49024	39792
7552	48960	39168
7680	45568	36544
7808	44336	35808
7936	42128	33616
8064	40784	32768
8192	80224	62608
8448	77040	61456
8704	73280	57984
8960	71280	55488
9216	69888	55024
9472	65584	51472
9728	66752	52832
9984	65472	50448
10240	61696	48480
10496	57680	46016
10752	56384	44528
11008	58368	46080
11264	56224	44112
11520	53856	43056
11776	52416	42624
12032	47904	37840
12288	47856	38176
12544	46528	36912
12800	45312	35696
13056	43376	34256
13312	43744	34944
13568	42960	33440
13824	42464	33488
14080	40336	31920
14336	40656	32208
14592	39792	31040
14848	39008	30480
15104	37120	29152
15360	37280	29136
15616	37520	29488
15872	36896	28464
16128	35664	27728
16384	69472	54304
16896	69072	54560
17408	61456	48272
17920	62960	50368
18432	57040	45504
18944	57056	45792
19456	53840	43264
19968	51680	41248
20480	50144	39840
20992	48048	38256
21504	45872	36496
22016	45104	36432
22528	46688	37344
23040	43568	35136
23552	42336	34272
24064	39952	32080
24576	39616	31712
25088	37520	30080
25600	36496	29632
26112	36672	28976
26624	34848	27792
27136	33344	26144
27648	33104	26928
28160	31472	25712
28672	30416	24976
29184	29440	23824
29696	29792	23584
30208	29952	24032
30720	29296	23376
31232	27600	22640
31744	26960	22000
32256	26736	21872
32768	49488	40912
33792	48272	39360
34816	45168	36512
35840	47264	37904
36864	45776	36928
37888	43312	34800
38912	42880	34864
39936	43072	34864
40960	42544	34736
41984	42000	34304
43008	44624	35712
44032	43824	34960
45056	41184	33376
46080	37936	30448
47104	35216	29168
48128	32992	26928
49152	32640	26944
50176	32208	26400
51200	29104	24160
52224	28848	23472
53248	27984	23392
54272	27648	23072
55296	27264	23184
56320	25312	21072
57344	26688	22736
58368	24720	21344
59392	24560	20800
60416	25472	21888
61440	23056	19728
62464	23552	20368
63488	22240	19008
64512	22352	19376
65536	44576	37808
67584	41376	35808
69632	39792	34064
71680	38320	32896
73728	38512	32944
75776	37424	32432
77824	35760	30688
79872	35488	30672
81920	35040	30288
83968	32528	28064
86016	31712	27616
88064	31232	27296
90112	38768	27520
92160	40464	26992
94208	30800	26672
96256	28960	24944
98304	28992	25408
100352	28640	25040
102400	28080	24384
104448	27584	23840
106496	27200	24016
108544	27376	24096
110592	24736	21920
112640	26064	22960
114688	24992	22608
116736	24368	21568
118784	23376	20624
120832	22192	19872
122880	22512	19776
124928	21952	19664
126976	20880	18336
129024	21872	19312
131072	43104	37952
135168	40176	35552
139264	38560	33648
143360	39376	35024
147456	36688	32880
151552	34160	30848
155648	33936	30032
159744	33280	29776
163840	32368	29296
167936	33184	29648
172032	31040	27856
176128	29648	26192
180224	30800	27280
184320	28640	25552
188416	27888	25136
192512	27280	24416
196608	26560	24048
200704	26048	23408
204800	26560	24256
208896	26464	23968
212992	26064	23328
217088	24688	22080
221184	24512	22224
225280	23680	21584
229376	23712	21392
233472	22816	20656
237568	22352	20304
241664	21408	19568
245760	21792	19680
249856	21248	19040
253952	20160	18160
258048	19648	17888
262144	38960	35440
270336	40272	35984
278528	36080	32656
286720	36896	33744
294912	33440	30080
303104	34752	31712
311296	32848	29648
319488	32928	29440
327680	32176	29280
335872	30416	28128
344064	30928	28064
352256	28224	25904
360448	29408	27328
368640	28752	26432
376832	26560	24736
385024	25344	23168
393216	24640	22736
401408	25248	23136
409600	25312	23168
417792	23840	21632
425984	22432	20624
434176	23152	21568
442368	23424	21568
450560	20704	18880
458752	22032	20416
466944	21104	19488
475136	20000	18480
483328	21008	19296
491520	20560	18480
499712	18208	17040
507904	19728	18560
516096	20320	18064
524288	36592	33712
540672	35728	33040
557056	34352	31584
573440	32512	30528
589824	34240	32080
606208	30112	27920
622592	30928	28896
638976	29648	27680
655360	28112	26272
671744	28432	26880
688128	28400	26768
704512	27280	25760
720896	25264	23424
737280	26496	24960
753664	24416	22800
770048	23504	22224
786432	24528	22800
802816	23952	22160
819200	21328	20000
835584	22080	20992
851968	21920	20832
868352	21392	20192
884736	21440	20224
901120	20032	18784
917504	19216	18160
933888	19408	17984
950272	18272	17488
966656	18048	17104
983040	17392	16368
999424	18144	17392
1015808	16160	15216
1032192	17424	16448
1048576	35872	33744
1081344	32096	30304
1114112	30304	29152
1146880	30288	29104
1179648	27792	26528
1212416	27648	26384
1245184	30400	28784
1277952	27328	26112
1310720	27200	25792
1343488	25184	24240
1376256	23648	22896
1409024	26832	25504
1441792	25232	24096
1474560	24400	23536
1507328	22432	21584
1540096	20224	19296
1572864	21456	20560
1605632	21040	19952
1638400	21184	19792
1671168	19968	19280
1703936	20272	19584
1736704	19936	19072
1769472	19456	18768
1802240	18304	17760
1835008	17392	16560
1867776	17984	17280
1900544	17472	16960
1933312	17008	16480
1966080	16448	15792
1998848	16400	15936
2031616	17088	16624
2064384	15600	15232
2097152	31232	30256
2162688	29664	28800
2228224	30016	29344
2293760	27840	26848
2359296	24192	23296
2424832	22896	22272
2490368	24288	23440
2555904	22880	21952
2621440	22592	21744
2686976	21600	20656
2752512	22592	21584
2818048	22336	21184
2883584	20000	18992
2949120	22816	21744
3014656	20720	19792
3080192	18704	17952
3145728	20064	18896
3211264	18224	17280
3276800	17040	16656
3342336	15456	15136
3407872	14608	14224
3473408	15072	14688
3538944	18064	16992
3604480	15248	14768
3670016	13888	13488
3735552	14256	14032
3801088	13344	13120
3866624	13312	12816
3932160	12704	12464
3997696	13040	12688
4063232	12096	11792
4128768	11856	11472
4194304	27328	26000
4325376	22976	22208
4456448	21920	21072
4587520	21488	21008
4718592	20864	20272
4849664	23808	22560
4980736	18768	18320
5111808	17328	16960
5242880	16960	16688
5373952	16800	16416
5505024	15712	15152
5636096	15776	15328
5767168	15936	15232
5898240	16128	15696
6029312	14528	14144
6160384	13952	13616
6291456	14144	13728
6422528	13984	13664
6553600	13968	13584
6684672	13216	12992
6815744	12288	11792
6946816	11456	11168
7077888	11264	11024
7208960	11024	10816
7340032	11968	11776
7471104	11536	11168
7602176	13616	12944
7733248	10288	10112
7864320	9440	9296
7995392	10288	10000
8126464	10192	10096
8257536	9728	9328
8388608	18256	18080
8650752	19136	18848
8912896	16784	16528
9175040	16096	15888
9437184	15824	15296
9699328	14848	14528
9961472	15168	14736
10223616	14048	13760
10485760	13264	13104
10747904	13808	13520
11010048	13216	12896
11272192	11904	11568
11534336	11424	11312
11796480	11200	11104
12058624	11056	10800
12320768	10464	10336
12582912	9632	9568
12845056	10528	10400
13107200	9040	8864
13369344	10768	10624
13631488	10016	9696
13893632	9856	9440
14155776	10112	9920
14417920	8496	8320
14680064	8448	8304
14942208	8368	8048
15204352	6432	6336
15466496	7008	6816
15728640	6720	6608
15990784	6704	6560
16252928	6800	6608
16515072	6368	6208
16777216	11968	11712
17301504	11984	11504
17825792	12352	12016
18350080	11296	10960
18874368	10208	10016
19398656	9312	8976
19922944	9936	9568
20447232	8944	8672
20971520	8944	8752
21495808	8752	8416
22020096	8560	8496
22544384	7360	7280
23068672	7264	7024
23592960	7616	7472
24117248	7440	7248
24641536	7344	7104
25165824	6752	6592
25690112	6976	6752
26214400	6096	5888
26738688	5616	5392
27262976	5648	5504
27787264	5760	5520
28311552	5072	4880
28835840	5120	4928
29360128	4880	4736
29884416	5024	4960
30408704	4464	4256
30932992	4816	4704
31457280	5008	4832
31981568	5136	4912
32505856	4912	4784
33030144	5136	4960
33554432	8896	8704
34603008	8672	8368
35651584	8352	8128
36700160	7088	6928
37748736	7392	7024
38797312	6656	6448
39845888	7056	6880
40894464	7744	7456
41943040	6976	6848
42991616	6176	5872
44040192	6464	6384
45088768	6016	5936
46137344	5408	5136
47185920	5600	5280
48234496	4928	4704
49283072	4688	4592
50331648	4192	4048
51380224	4352	3520
52428800	3792	3424
53477376	4064	3536
54525952	3536	3136
55574528	3104	3008
56623104	3040	2848
57671680	3152	2992
58720256	3184	2976
59768832	2672	2592
60817408	3024	2848
61865984	3024	2784
62914560	2912	2560
63963136	2384	2336
65011712	2896	2608
66060288	2128	2064
67108864	6704	6048
69206016	3712	3312
71303168	3760	3472
73400320	3920	3392
75497472	3504	3280
77594624	3168	2992
79691776	4144	3920
81788928	5504	5232
83886080	4688	4448
85983232	4032	3696
88080384	3904	3248
90177536	4320	3552
92274688	3168	2608
94371840	2608	2240
96468992	2544	2400
98566144	2288	2112
100663296	2032	1920
102760448	2064	1920
104857600	1856	1552
106954752	1792	1632
109051904	1872	1648
111149056	1824	1424
113246208	1424	1248
115343360	1392	1088
117440512	1152	992
119537664	1312	1184
121634816	1392	1216
123731968	2672	2368
125829120	4464	4288
127926272	4576	4416
130023424	4256	4048
132120576	3728	3520
134217728	8688	8368
138412032	6816	6560
142606336	6320	5984
146800640	6480	6048
150994944	4896	4480
155189248	4464	4016
159383552	3840	3440
163577856	2928	2720
167772160	2512	2240
171966464	2592	2192
176160768	2304	2000
180355072	2080	1760
184549376	1968	1712
188743680	1728	1408
192937984	1984	1584
197132288	1152	944
201326592	1616	1248
205520896	1360	928
209715200	1136	720
213909504	1040	768
218103808	992	704
222298112	1360	976
226492416	816	528
230686720	912	560
234881024	976	672
239075328	576	432
243269632	720	416
247463936	752	480
251658240	752	400
255852544	608	464
260046848	304	304
264241152	592	544
268435456	768	768
276824064	624	576
285212672	208	192
293601280	368	352
301989888	240	192
310378496	112	96
318767104	112	96
327155712	16	16
335544320	0	0
343932928	0	0
352321536	0	0
360710144	0	0
369098752	0	0
377487360	0	0
385875968	0	0
394264576	0	0
402653184	0	0
411041792	0	0
419430400	0	0
427819008	0	0
436207616	0	0
444596224	0	0
452984832	0	0
461373440	0	0
469762048	0	0
478150656	0	0
486539264	0	0
494927872	0	0
503316480	0	0
511705088	0	0
520093696	0	0
528482304	0	0
536870912	0	0
553648128	0	0
570425344	0	0
587202560	0	0
603979776	0	0
620756992	0	0
637534208	0	0
654311424	0	0
671088640	0	0
687865856	0	0
704643072	0	0
721420288	0	0
738197504	0	0
754974720	0	0
771751936	0	0
788529152	0	0
805306368	0	0
822083584	0	0
838860800	0	0
855638016	0	0
872415232	0	0
889192448	0	0
905969664	0	0
922746880	0	0
939524096	0	0
956301312	0	0
973078528	0	0
989855744	0	0
1006632960	0	0
1023410176	0	0
1040187392	0	0
1056964608	0	0
1073741824	0	0
1107296256	0	0
1140850688	0	0
1174405120	0	0
1207959552	0	0
1241513984	0	0
1275068416	0	0
1308622848	0	0
1342177280	0	0
1375731712	0	0
1409286144	0	0
1442840576	0	0
1476395008	0	0
1509949440	0	0
1543503872	0	0
1577058304	0	0
1610612736	0	0
1644167168	0	0
1677721600	0	0
1711276032	0	0
1744830464	0	0
1778384896	0	0
1811939328	0	0
1845493760	0	0
1879048192	0	0
1912602624	0	0
1946157056	0	0
1979711488	0	0
2013265920	0	0
2046820352	0	0
2080374784	0	0
2113929216	0	0
2147483648	0	0
2214592512	0	0
2281701376	0	0
2348810240	0	0
2415919104	0	0
2483027968	0	0
2550136832	0	0
2617245696	0	0
2684354560	0	0
2751463424	0	0
2818572288	0	0
2885681152	0	0
2952790016	0	0
3019898880	0	0
3087007744	0	0
3154116608	0	0
3221225472	0	0
3288334336	0	0
3355443200	0	0
3422552064	0	0
3489660928	0	0
3556769792	0	0
3623878656	0	0
3690987520	0	0
3758096384	0	0
3825205248	0	0
3892314112	0	0
3959422976	0	0
4026531840	0	0
4093640704	0	0
4160749568	0	0
4227858432	0	0
~~~~~~~~~~Reuse Distance Profiler output end~~~~~~~~~~

Sampler size:32429

DRAM Statistics
 CHANNEL 0
 RQ ROW_BUFFER_HIT:      59321  ROW_BUFFER_MISS:    2025827
 DBUS AVG_CONGESTED_CYCLE:    3.86046
 WQ ROW_BUFFER_HIT:     370459  ROW_BUFFER_MISS:    1217075  FULL:          0


CPU 0 Branch Prediction Accuracy: 84.2883% MPKI: 20.8779 Average ROB Occupancy at Mispredict: 28.5791
Branch type MPKI
BRANCH_DIRECT_JUMP: 2e-06
BRANCH_INDIRECT: 0.950121
BRANCH_CONDITIONAL: 19.9257
BRANCH_DIRECT_CALL: 6.66667e-07
BRANCH_INDIRECT_CALL: 0.002056
BRANCH_RETURN: 6.66667e-07

