
*** ChampSim Multicore Out-of-Order Simulator ***

Warmup Instructions: 50000000
Simulation Instructions: 1500000000
Number of CPUs: 1
Off-chip DRAM Size: 4 GiB Channels: 1 Width: 64-bit Data Rate: 3200 MT/s

VirtualMemory physical capacity: 8588881920 num_ppages: 2096895
VirtualMemory page size: 4096 log2_page_size: 12

CPU 0 runs traces/436.cactusADM-1804B.champsimtrace.xz
CPU 0 Bimodal branch predictor
Basic BTB sets: 1024 ways: 8 indirect buffer size: 4096 RAS size: 64
Initializing LRU.
Initializing LRU.
Initializing LRU.
Initializing LRU.
Initializing rdLRU.
Initializing LRU.
Initializing LRU.
Heartbeat CPU 0 instructions: 2000003 cycles: 822287 heartbeat IPC: 2.43224 cumulative IPC: 2.43224 (Simulation time: 0 hr 1 min 46 sec) 
Heartbeat CPU 0 instructions: 4000000 cycles: 1644418 heartbeat IPC: 2.4327 cumulative IPC: 2.43247 (Simulation time: 0 hr 3 min 39 sec) 
Heartbeat CPU 0 instructions: 6000001 cycles: 2466505 heartbeat IPC: 2.43283 cumulative IPC: 2.43259 (Simulation time: 0 hr 5 min 21 sec) 
Heartbeat CPU 0 instructions: 8000004 cycles: 3288744 heartbeat IPC: 2.43239 cumulative IPC: 2.43254 (Simulation time: 0 hr 6 min 57 sec) 
Heartbeat CPU 0 instructions: 10000001 cycles: 4110874 heartbeat IPC: 2.4327 cumulative IPC: 2.43257 (Simulation time: 0 hr 8 min 48 sec) 
Heartbeat CPU 0 instructions: 12000003 cycles: 4932969 heartbeat IPC: 2.43281 cumulative IPC: 2.43261 (Simulation time: 0 hr 10 min 32 sec) 
Heartbeat CPU 0 instructions: 14000001 cycles: 5755138 heartbeat IPC: 2.43259 cumulative IPC: 2.43261 (Simulation time: 0 hr 12 min 22 sec) 
Heartbeat CPU 0 instructions: 16000003 cycles: 6577221 heartbeat IPC: 2.43285 cumulative IPC: 2.43264 (Simulation time: 0 hr 14 min 11 sec) 
Heartbeat CPU 0 instructions: 18000001 cycles: 7369246 heartbeat IPC: 2.52517 cumulative IPC: 2.44258 (Simulation time: 0 hr 15 min 53 sec) 
Heartbeat CPU 0 instructions: 20000001 cycles: 8143489 heartbeat IPC: 2.58317 cumulative IPC: 2.45595 (Simulation time: 0 hr 17 min 37 sec) 
Heartbeat CPU 0 instructions: 22000003 cycles: 8966032 heartbeat IPC: 2.43149 cumulative IPC: 2.45371 (Simulation time: 0 hr 19 min 21 sec) 
Heartbeat CPU 0 instructions: 24000000 cycles: 9788490 heartbeat IPC: 2.43173 cumulative IPC: 2.45186 (Simulation time: 0 hr 21 min 7 sec) 
Heartbeat CPU 0 instructions: 26000004 cycles: 10611016 heartbeat IPC: 2.43154 cumulative IPC: 2.45028 (Simulation time: 0 hr 22 min 52 sec) 
Heartbeat CPU 0 instructions: 28000000 cycles: 11433525 heartbeat IPC: 2.43158 cumulative IPC: 2.44894 (Simulation time: 0 hr 24 min 36 sec) 
Heartbeat CPU 0 instructions: 30000002 cycles: 12255930 heartbeat IPC: 2.43189 cumulative IPC: 2.44779 (Simulation time: 0 hr 26 min 27 sec) 
Heartbeat CPU 0 instructions: 32000000 cycles: 13078426 heartbeat IPC: 2.43162 cumulative IPC: 2.44678 (Simulation time: 0 hr 28 min 18 sec) 
Heartbeat CPU 0 instructions: 34000000 cycles: 13900948 heartbeat IPC: 2.43155 cumulative IPC: 2.44588 (Simulation time: 0 hr 30 min 7 sec) 
Heartbeat CPU 0 instructions: 36000001 cycles: 14723499 heartbeat IPC: 2.43146 cumulative IPC: 2.44507 (Simulation time: 0 hr 31 min 56 sec) 
Heartbeat CPU 0 instructions: 38000000 cycles: 15546022 heartbeat IPC: 2.43154 cumulative IPC: 2.44436 (Simulation time: 0 hr 33 min 34 sec) 
Heartbeat CPU 0 instructions: 40000003 cycles: 16368532 heartbeat IPC: 2.43159 cumulative IPC: 2.44371 (Simulation time: 0 hr 35 min 17 sec) 
Heartbeat CPU 0 instructions: 42000001 cycles: 17112449 heartbeat IPC: 2.68847 cumulative IPC: 2.45435 (Simulation time: 0 hr 36 min 34 sec) 
Heartbeat CPU 0 instructions: 44000003 cycles: 17934623 heartbeat IPC: 2.43258 cumulative IPC: 2.45336 (Simulation time: 0 hr 38 min 13 sec) 
Heartbeat CPU 0 instructions: 46000003 cycles: 18756821 heartbeat IPC: 2.4325 cumulative IPC: 2.45244 (Simulation time: 0 hr 39 min 57 sec) 
Heartbeat CPU 0 instructions: 48000001 cycles: 19578870 heartbeat IPC: 2.43294 cumulative IPC: 2.45162 (Simulation time: 0 hr 41 min 44 sec) 
Heartbeat CPU 0 instructions: 50000000 cycles: 20401038 heartbeat IPC: 2.43259 cumulative IPC: 2.45086 (Simulation time: 0 hr 43 min 31 sec) 

Warmup complete CPU 0 instructions: 50000003 cycles: 20401039 (Simulation time: 0 hr 43 min 31 sec) 

Heartbeat CPU 0 instructions: 52000001 cycles: 22127960 heartbeat IPC: 1.15813 cumulative IPC: 1.15813 (Simulation time: 0 hr 45 min 57 sec) 

Region of Interest Statistics
cpu0_DTLB TOTAL     ACCESS:     564444  HIT:     528514  MISS:      35930
cpu0_DTLB LOAD      ACCESS:     446233  HIT:     418652  MISS:      27581
cpu0_DTLB RFO       ACCESS:     118211  HIT:     109862  MISS:       8349
cpu0_DTLB PREFETCH  ACCESS:          0  HIT:          0  MISS:          0
cpu0_DTLB WRITEBACK ACCESS:          0  HIT:          0  MISS:          0
cpu0_ITLB TOTAL     ACCESS:      28813  HIT:      28813  MISS:          0
cpu0_ITLB LOAD      ACCESS:      28813  HIT:      28813  MISS:          0
cpu0_ITLB RFO       ACCESS:          0  HIT:          0  MISS:          0
cpu0_ITLB PREFETCH  ACCESS:          0  HIT:          0  MISS:          0
cpu0_ITLB WRITEBACK ACCESS:          0  HIT:          0  MISS:          0
cpu0_L1I TOTAL     ACCESS:     193605  HIT:     193605  MISS:          0
cpu0_L1I LOAD      ACCESS:     193605  HIT:     193605  MISS:          0
cpu0_L1I RFO       ACCESS:          0  HIT:          0  MISS:          0
cpu0_L1I PREFETCH  ACCESS:          0  HIT:          0  MISS:          0
cpu0_L1I WRITEBACK ACCESS:          0  HIT:          0  MISS:          0
cpu0_STLB TOTAL     ACCESS:      35930  HIT:      22707  MISS:      13223
cpu0_STLB LOAD      ACCESS:      27581  HIT:      19790  MISS:       7791
cpu0_STLB RFO       ACCESS:       8349  HIT:       2917  MISS:       5432
cpu0_STLB PREFETCH  ACCESS:          0  HIT:          0  MISS:          0
cpu0_STLB WRITEBACK ACCESS:          0  HIT:          0  MISS:          0
cpu0_L1D TOTAL     ACCESS:     883152  HIT:     871532  MISS:      11620
cpu0_L1D LOAD      ACCESS:     583684  HIT:     573131  MISS:      10553
cpu0_L1D RFO       ACCESS:     286245  HIT:     285249  MISS:        996
cpu0_L1D PREFETCH  ACCESS:          0  HIT:          0  MISS:          0
cpu0_L1D WRITEBACK ACCESS:          0  HIT:          0  MISS:          0
cpu0_L2C TOTAL     ACCESS:      12735  HIT:       6258  MISS:       6477
cpu0_L2C LOAD      ACCESS:      10553  HIT:       5072  MISS:       5481
cpu0_L2C RFO       ACCESS:        996  HIT:          0  MISS:        996
cpu0_L2C PREFETCH  ACCESS:          0  HIT:          0  MISS:          0
cpu0_L2C WRITEBACK ACCESS:       1115  HIT:       1115  MISS:          0
LLC TOTAL     ACCESS:       7169  HIT:          0  MISS:       7169
LLC LOAD      ACCESS:       5481  HIT:          0  MISS:       5481
LLC RFO       ACCESS:        996  HIT:          0  MISS:        996
LLC PREFETCH  ACCESS:          0  HIT:          0  MISS:          0
LLC WRITEBACK ACCESS:        692  HIT:          0  MISS:        692
Heartbeat CPU 0 instructions: 54000001 cycles: 23856829 heartbeat IPC: 1.15683 cumulative IPC: 1.15748 (Simulation time: 0 hr 48 min 23 sec) 

Region of Interest Statistics
cpu0_DTLB TOTAL     ACCESS:    1127728  HIT:    1058239  MISS:      69489
cpu0_DTLB LOAD      ACCESS:     891285  HIT:     837921  MISS:      53364
cpu0_DTLB RFO       ACCESS:     236443  HIT:     220318  MISS:      16125
cpu0_DTLB PREFETCH  ACCESS:          0  HIT:          0  MISS:          0
cpu0_DTLB WRITEBACK ACCESS:          0  HIT:          0  MISS:          0
cpu0_ITLB TOTAL     ACCESS:      57618  HIT:      57618  MISS:          0
cpu0_ITLB LOAD      ACCESS:      57618  HIT:      57618  MISS:          0
cpu0_ITLB RFO       ACCESS:          0  HIT:          0  MISS:          0
cpu0_ITLB PREFETCH  ACCESS:          0  HIT:          0  MISS:          0
cpu0_ITLB WRITEBACK ACCESS:          0  HIT:          0  MISS:          0
cpu0_L1I TOTAL     ACCESS:     386966  HIT:     386966  MISS:          0
cpu0_L1I LOAD      ACCESS:     386966  HIT:     386966  MISS:          0
cpu0_L1I RFO       ACCESS:          0  HIT:          0  MISS:          0
cpu0_L1I PREFETCH  ACCESS:          0  HIT:          0  MISS:          0
cpu0_L1I WRITEBACK ACCESS:          0  HIT:          0  MISS:          0
cpu0_STLB TOTAL     ACCESS:      69489  HIT:      40913  MISS:      28576
cpu0_STLB LOAD      ACCESS:      53364  HIT:      36392  MISS:      16972
cpu0_STLB RFO       ACCESS:      16125  HIT:       4521  MISS:      11604
cpu0_STLB PREFETCH  ACCESS:          0  HIT:          0  MISS:          0
cpu0_STLB WRITEBACK ACCESS:          0  HIT:          0  MISS:          0
cpu0_L1D TOTAL     ACCESS:    1767626  HIT:    1744393  MISS:      23233
cpu0_L1D LOAD      ACCESS:    1166503  HIT:    1145401  MISS:      21102
cpu0_L1D RFO       ACCESS:     572547  HIT:     570555  MISS:       1992
cpu0_L1D PREFETCH  ACCESS:          0  HIT:          0  MISS:          0
cpu0_L1D WRITEBACK ACCESS:          0  HIT:          0  MISS:          0
cpu0_L2C TOTAL     ACCESS:      25459  HIT:      12508  MISS:      12951
cpu0_L2C LOAD      ACCESS:      21102  HIT:      10143  MISS:      10959
cpu0_L2C RFO       ACCESS:       1992  HIT:          0  MISS:       1992
cpu0_L2C PREFETCH  ACCESS:          0  HIT:          0  MISS:          0
cpu0_L2C WRITEBACK ACCESS:       2226  HIT:       2226  MISS:          0
LLC TOTAL     ACCESS:      14810  HIT:          0  MISS:      14810
LLC LOAD      ACCESS:      10959  HIT:          0  MISS:      10959
LLC RFO       ACCESS:       1992  HIT:          0  MISS:       1992
LLC PREFETCH  ACCESS:          0  HIT:          0  MISS:          0
LLC WRITEBACK ACCESS:       1859  HIT:          0  MISS:       1859
Heartbeat CPU 0 instructions: 56000004 cycles: 25586195 heartbeat IPC: 1.15649 cumulative IPC: 1.15715 (Simulation time: 0 hr 50 min 48 sec) 

Region of Interest Statistics
cpu0_DTLB TOTAL     ACCESS:    1691877  HIT:    1589631  MISS:     102246
cpu0_DTLB LOAD      ACCESS:    1337128  HIT:    1258748  MISS:      78380
cpu0_DTLB RFO       ACCESS:     354749  HIT:     330883  MISS:      23866
cpu0_DTLB PREFETCH  ACCESS:          0  HIT:          0  MISS:          0
cpu0_DTLB WRITEBACK ACCESS:          0  HIT:          0  MISS:          0
cpu0_ITLB TOTAL     ACCESS:      86472  HIT:      86472  MISS:          0
cpu0_ITLB LOAD      ACCESS:      86472  HIT:      86472  MISS:          0
cpu0_ITLB RFO       ACCESS:          0  HIT:          0  MISS:          0
cpu0_ITLB PREFETCH  ACCESS:          0  HIT:          0  MISS:          0
cpu0_ITLB WRITEBACK ACCESS:          0  HIT:          0  MISS:          0
cpu0_L1I TOTAL     ACCESS:     580793  HIT:     580793  MISS:          0
cpu0_L1I LOAD      ACCESS:     580793  HIT:     580793  MISS:          0
cpu0_L1I RFO       ACCESS:          0  HIT:          0  MISS:          0
cpu0_L1I PREFETCH  ACCESS:          0  HIT:          0  MISS:          0
cpu0_L1I WRITEBACK ACCESS:          0  HIT:          0  MISS:          0
cpu0_STLB TOTAL     ACCESS:     102246  HIT:      60712  MISS:      41534
cpu0_STLB LOAD      ACCESS:      78380  HIT:      53844  MISS:      24536
cpu0_STLB RFO       ACCESS:      23866  HIT:       6868  MISS:      16998
cpu0_STLB PREFETCH  ACCESS:          0  HIT:          0  MISS:          0
cpu0_STLB WRITEBACK ACCESS:          0  HIT:          0  MISS:          0
cpu0_L1D TOTAL     ACCESS:    2650781  HIT:    2615960  MISS:      34821
cpu0_L1D LOAD      ACCESS:    1750471  HIT:    1718853  MISS:      31618
cpu0_L1D RFO       ACCESS:     858776  HIT:     855788  MISS:       2988
cpu0_L1D PREFETCH  ACCESS:          0  HIT:          0  MISS:          0
cpu0_L1D WRITEBACK ACCESS:          0  HIT:          0  MISS:          0
cpu0_L2C TOTAL     ACCESS:      38162  HIT:      18736  MISS:      19426
cpu0_L2C LOAD      ACCESS:      31618  HIT:      15180  MISS:      16438
cpu0_L2C RFO       ACCESS:       2988  HIT:          0  MISS:       2988
cpu0_L2C PREFETCH  ACCESS:          0  HIT:          0  MISS:          0
cpu0_L2C WRITEBACK ACCESS:       3341  HIT:       3341  MISS:          0
LLC TOTAL     ACCESS:      22318  HIT:          0  MISS:      22318
LLC LOAD      ACCESS:      16438  HIT:          0  MISS:      16438
LLC RFO       ACCESS:       2988  HIT:          0  MISS:       2988
LLC PREFETCH  ACCESS:          0  HIT:          0  MISS:          0
LLC WRITEBACK ACCESS:       2892  HIT:          0  MISS:       2892
Heartbeat CPU 0 instructions: 58000000 cycles: 27311801 heartbeat IPC: 1.15901 cumulative IPC: 1.15761 (Simulation time: 0 hr 53 min 15 sec) 

Region of Interest Statistics
cpu0_DTLB TOTAL     ACCESS:    2256151  HIT:    2119780  MISS:     136371
cpu0_DTLB LOAD      ACCESS:    1783451  HIT:    1678689  MISS:     104762
cpu0_DTLB RFO       ACCESS:     472700  HIT:     441091  MISS:      31609
cpu0_DTLB PREFETCH  ACCESS:          0  HIT:          0  MISS:          0
cpu0_DTLB WRITEBACK ACCESS:          0  HIT:          0  MISS:          0
cpu0_ITLB TOTAL     ACCESS:     115284  HIT:     115284  MISS:          0
cpu0_ITLB LOAD      ACCESS:     115284  HIT:     115284  MISS:          0
cpu0_ITLB RFO       ACCESS:          0  HIT:          0  MISS:          0
cpu0_ITLB PREFETCH  ACCESS:          0  HIT:          0  MISS:          0
cpu0_ITLB WRITEBACK ACCESS:          0  HIT:          0  MISS:          0
cpu0_L1I TOTAL     ACCESS:     774412  HIT:     774412  MISS:          0
cpu0_L1I LOAD      ACCESS:     774412  HIT:     774412  MISS:          0
cpu0_L1I RFO       ACCESS:          0  HIT:          0  MISS:          0
cpu0_L1I PREFETCH  ACCESS:          0  HIT:          0  MISS:          0
cpu0_L1I WRITEBACK ACCESS:          0  HIT:          0  MISS:          0
cpu0_STLB TOTAL     ACCESS:     136371  HIT:      80084  MISS:      56287
cpu0_STLB LOAD      ACCESS:     104762  HIT:      71443  MISS:      33319
cpu0_STLB RFO       ACCESS:      31609  HIT:       8641  MISS:      22968
cpu0_STLB PREFETCH  ACCESS:          0  HIT:          0  MISS:          0
cpu0_STLB WRITEBACK ACCESS:          0  HIT:          0  MISS:          0
cpu0_L1D TOTAL     ACCESS:    3535648  HIT:    3489198  MISS:      46450
cpu0_L1D LOAD      ACCESS:    2334310  HIT:    2292116  MISS:      42194
cpu0_L1D RFO       ACCESS:    1145051  HIT:    1141067  MISS:       3984
cpu0_L1D PREFETCH  ACCESS:          0  HIT:          0  MISS:          0
cpu0_L1D WRITEBACK ACCESS:          0  HIT:          0  MISS:          0
cpu0_L2C TOTAL     ACCESS:      50900  HIT:      24997  MISS:      25903
cpu0_L2C LOAD      ACCESS:      42194  HIT:      20275  MISS:      21919
cpu0_L2C RFO       ACCESS:       3984  HIT:          0  MISS:       3984
cpu0_L2C PREFETCH  ACCESS:          0  HIT:          0  MISS:          0
cpu0_L2C WRITEBACK ACCESS:       4450  HIT:       4450  MISS:          0
LLC TOTAL     ACCESS:      29797  HIT:          0  MISS:      29797
LLC LOAD      ACCESS:      21919  HIT:          0  MISS:      21919
LLC RFO       ACCESS:       3984  HIT:          0  MISS:       3984
LLC PREFETCH  ACCESS:          0  HIT:          0  MISS:          0
LLC WRITEBACK ACCESS:       3894  HIT:          0  MISS:       3894
Heartbeat CPU 0 instructions: 60000002 cycles: 29041788 heartbeat IPC: 1.15608 cumulative IPC: 1.15731 (Simulation time: 0 hr 55 min 36 sec) 

Region of Interest Statistics
cpu0_DTLB TOTAL     ACCESS:    2819682  HIT:    2650280  MISS:     169402
cpu0_DTLB LOAD      ACCESS:    2228613  HIT:    2098592  MISS:     130021
cpu0_DTLB RFO       ACCESS:     591069  HIT:     551688  MISS:      39381
cpu0_DTLB PREFETCH  ACCESS:          0  HIT:          0  MISS:          0
cpu0_DTLB WRITEBACK ACCESS:          0  HIT:          0  MISS:          0
cpu0_ITLB TOTAL     ACCESS:     144118  HIT:     144118  MISS:          0
cpu0_ITLB LOAD      ACCESS:     144118  HIT:     144118  MISS:          0
cpu0_ITLB RFO       ACCESS:          0  HIT:          0  MISS:          0
cpu0_ITLB PREFETCH  ACCESS:          0  HIT:          0  MISS:          0
cpu0_ITLB WRITEBACK ACCESS:          0  HIT:          0  MISS:          0
cpu0_L1I TOTAL     ACCESS:     967984  HIT:     967984  MISS:          0
cpu0_L1I LOAD      ACCESS:     967984  HIT:     967984  MISS:          0
cpu0_L1I RFO       ACCESS:          0  HIT:          0  MISS:          0
cpu0_L1I PREFETCH  ACCESS:          0  HIT:          0  MISS:          0
cpu0_L1I WRITEBACK ACCESS:          0  HIT:          0  MISS:          0
cpu0_STLB TOTAL     ACCESS:     169402  HIT:      99326  MISS:      70076
cpu0_STLB LOAD      ACCESS:     130021  HIT:      88544  MISS:      41477
cpu0_STLB RFO       ACCESS:      39381  HIT:      10782  MISS:      28599
cpu0_STLB PREFETCH  ACCESS:          0  HIT:          0  MISS:          0
cpu0_STLB WRITEBACK ACCESS:          0  HIT:          0  MISS:          0
cpu0_L1D TOTAL     ACCESS:    4419306  HIT:    4361264  MISS:      58042
cpu0_L1D LOAD      ACCESS:    2917884  HIT:    2865171  MISS:      52713
cpu0_L1D RFO       ACCESS:    1431346  HIT:    1426366  MISS:       4980
cpu0_L1D PREFETCH  ACCESS:          0  HIT:          0  MISS:          0
cpu0_L1D WRITEBACK ACCESS:          0  HIT:          0  MISS:          0
cpu0_L2C TOTAL     ACCESS:      63612  HIT:      31235  MISS:      32377
cpu0_L2C LOAD      ACCESS:      52713  HIT:      25316  MISS:      27397
cpu0_L2C RFO       ACCESS:       4980  HIT:          0  MISS:       4980
cpu0_L2C PREFETCH  ACCESS:          0  HIT:          0  MISS:          0
cpu0_L2C WRITEBACK ACCESS:       5570  HIT:       5570  MISS:          0
LLC TOTAL     ACCESS:      37253  HIT:          0  MISS:      37253
LLC LOAD      ACCESS:      27397  HIT:          0  MISS:      27397
LLC RFO       ACCESS:       4980  HIT:          0  MISS:       4980
LLC PREFETCH  ACCESS:          0  HIT:          0  MISS:          0
LLC WRITEBACK ACCESS:       4876  HIT:          0  MISS:       4876
Heartbeat CPU 0 instructions: 62000004 cycles: 30771055 heartbeat IPC: 1.15656 cumulative IPC: 1.15718 (Simulation time: 0 hr 58 min 1 sec) 

Region of Interest Statistics
cpu0_DTLB TOTAL     ACCESS:    3382973  HIT:    3179108  MISS:     203865
cpu0_DTLB LOAD      ACCESS:    2673703  HIT:    2517611  MISS:     156092
cpu0_DTLB RFO       ACCESS:     709270  HIT:     661497  MISS:      47773
cpu0_DTLB PREFETCH  ACCESS:          0  HIT:          0  MISS:          0
cpu0_DTLB WRITEBACK ACCESS:          0  HIT:          0  MISS:          0
cpu0_ITLB TOTAL     ACCESS:     172940  HIT:     172940  MISS:          0
cpu0_ITLB LOAD      ACCESS:     172940  HIT:     172940  MISS:          0
cpu0_ITLB RFO       ACCESS:          0  HIT:          0  MISS:          0
cpu0_ITLB PREFETCH  ACCESS:          0  HIT:          0  MISS:          0
cpu0_ITLB WRITEBACK ACCESS:          0  HIT:          0  MISS:          0
cpu0_L1I TOTAL     ACCESS:    1161695  HIT:    1161695  MISS:          0
cpu0_L1I LOAD      ACCESS:    1161695  HIT:    1161695  MISS:          0
cpu0_L1I RFO       ACCESS:          0  HIT:          0  MISS:          0
cpu0_L1I PREFETCH  ACCESS:          0  HIT:          0  MISS:          0
cpu0_L1I WRITEBACK ACCESS:          0  HIT:          0  MISS:          0
cpu0_STLB TOTAL     ACCESS:     203865  HIT:     120436  MISS:      83429
cpu0_STLB LOAD      ACCESS:     156092  HIT:     106710  MISS:      49382
cpu0_STLB RFO       ACCESS:      47773  HIT:      13726  MISS:      34047
cpu0_STLB PREFETCH  ACCESS:          0  HIT:          0  MISS:          0
cpu0_STLB WRITEBACK ACCESS:          0  HIT:          0  MISS:          0
cpu0_L1D TOTAL     ACCESS:    5302394  HIT:    5232735  MISS:      69659
cpu0_L1D LOAD      ACCESS:    3501305  HIT:    3438039  MISS:      63266
cpu0_L1D RFO       ACCESS:    1717660  HIT:    1711684  MISS:       5976
cpu0_L1D PREFETCH  ACCESS:          0  HIT:          0  MISS:          0
cpu0_L1D WRITEBACK ACCESS:          0  HIT:          0  MISS:          0
cpu0_L2C TOTAL     ACCESS:      76340  HIT:      37487  MISS:      38853
cpu0_L2C LOAD      ACCESS:      63266  HIT:      30389  MISS:      32877
cpu0_L2C RFO       ACCESS:       5976  HIT:          0  MISS:       5976
cpu0_L2C PREFETCH  ACCESS:          0  HIT:          0  MISS:          0
cpu0_L2C WRITEBACK ACCESS:       6681  HIT:       6681  MISS:          0
LLC TOTAL     ACCESS:      44904  HIT:          0  MISS:      44904
LLC LOAD      ACCESS:      32877  HIT:          0  MISS:      32877
LLC RFO       ACCESS:       5976  HIT:          0  MISS:       5976
LLC PREFETCH  ACCESS:          0  HIT:          0  MISS:          0
LLC WRITEBACK ACCESS:       6051  HIT:          0  MISS:       6051
Heartbeat CPU 0 instructions: 64000001 cycles: 36217389 heartbeat IPC: 0.367219 cumulative IPC: 0.88516 (Simulation time: 1 hr 2 min 43 sec) 

Region of Interest Statistics
cpu0_DTLB TOTAL     ACCESS:    4093327  HIT:    3638169  MISS:     455158
cpu0_DTLB LOAD      ACCESS:    3075020  HIT:    2760247  MISS:     314773
cpu0_DTLB RFO       ACCESS:    1018307  HIT:     877922  MISS:     140385
cpu0_DTLB PREFETCH  ACCESS:          0  HIT:          0  MISS:          0
cpu0_DTLB WRITEBACK ACCESS:          0  HIT:          0  MISS:          0
cpu0_ITLB TOTAL     ACCESS:     188320  HIT:     188320  MISS:          0
cpu0_ITLB LOAD      ACCESS:     188320  HIT:     188320  MISS:          0
cpu0_ITLB RFO       ACCESS:          0  HIT:          0  MISS:          0
cpu0_ITLB PREFETCH  ACCESS:          0  HIT:          0  MISS:          0
cpu0_ITLB WRITEBACK ACCESS:          0  HIT:          0  MISS:          0
cpu0_L1I TOTAL     ACCESS:    1250433  HIT:    1250433  MISS:          0
cpu0_L1I LOAD      ACCESS:    1250433  HIT:    1250433  MISS:          0
cpu0_L1I RFO       ACCESS:          0  HIT:          0  MISS:          0
cpu0_L1I PREFETCH  ACCESS:          0  HIT:          0  MISS:          0
cpu0_L1I WRITEBACK ACCESS:          0  HIT:          0  MISS:          0
cpu0_STLB TOTAL     ACCESS:     455158  HIT:     245383  MISS:     209775
cpu0_STLB LOAD      ACCESS:     314773  HIT:     178606  MISS:     136167
cpu0_STLB RFO       ACCESS:     140385  HIT:      66777  MISS:      73608
cpu0_STLB PREFETCH  ACCESS:          0  HIT:          0  MISS:          0
cpu0_STLB WRITEBACK ACCESS:          0  HIT:          0  MISS:          0
cpu0_L1D TOTAL     ACCESS:    6312291  HIT:    6190385  MISS:     121906
cpu0_L1D LOAD      ACCESS:    3967313  HIT:    3875848  MISS:      91465
cpu0_L1D RFO       ACCESS:    2135204  HIT:    2105350  MISS:      29854
cpu0_L1D PREFETCH  ACCESS:          0  HIT:          0  MISS:          0
cpu0_L1D WRITEBACK ACCESS:          0  HIT:          0  MISS:          0
cpu0_L2C TOTAL     ACCESS:     152524  HIT:      63352  MISS:      89172
cpu0_L2C LOAD      ACCESS:      91465  HIT:      32208  MISS:      59257
cpu0_L2C RFO       ACCESS:      29854  HIT:          1  MISS:      29853
cpu0_L2C PREFETCH  ACCESS:          0  HIT:          0  MISS:          0
cpu0_L2C WRITEBACK ACCESS:      30618  HIT:      30583  MISS:         35
LLC TOTAL     ACCESS:     117021  HIT:          0  MISS:     117021
LLC LOAD      ACCESS:      59257  HIT:          0  MISS:      59257
LLC RFO       ACCESS:      29853  HIT:          0  MISS:      29853
LLC PREFETCH  ACCESS:          0  HIT:          0  MISS:          0
LLC WRITEBACK ACCESS:      27884  HIT:          0  MISS:      27884
Heartbeat CPU 0 instructions: 66000002 cycles: 37944900 heartbeat IPC: 1.15774 cumulative IPC: 0.912 (Simulation time: 1 hr 5 min 11 sec) 

Region of Interest Statistics
cpu0_DTLB TOTAL     ACCESS:    4656121  HIT:    4167804  MISS:     488317
cpu0_DTLB LOAD      ACCESS:    3519438  HIT:    3179394  MISS:     340044
cpu0_DTLB RFO       ACCESS:    1136683  HIT:     988410  MISS:     148273
cpu0_DTLB PREFETCH  ACCESS:          0  HIT:          0  MISS:          0
cpu0_DTLB WRITEBACK ACCESS:          0  HIT:          0  MISS:          0
cpu0_ITLB TOTAL     ACCESS:     217142  HIT:     217142  MISS:          0
cpu0_ITLB LOAD      ACCESS:     217142  HIT:     217142  MISS:          0
cpu0_ITLB RFO       ACCESS:          0  HIT:          0  MISS:          0
cpu0_ITLB PREFETCH  ACCESS:          0  HIT:          0  MISS:          0
cpu0_ITLB WRITEBACK ACCESS:          0  HIT:          0  MISS:          0
cpu0_L1I TOTAL     ACCESS:    1444137  HIT:    1444137  MISS:          0
cpu0_L1I LOAD      ACCESS:    1444137  HIT:    1444137  MISS:          0
cpu0_L1I RFO       ACCESS:          0  HIT:          0  MISS:          0
cpu0_L1I PREFETCH  ACCESS:          0  HIT:          0  MISS:          0
cpu0_L1I WRITEBACK ACCESS:          0  HIT:          0  MISS:          0
cpu0_STLB TOTAL     ACCESS:     488317  HIT:     265568  MISS:     222749
cpu0_STLB LOAD      ACCESS:     340044  HIT:     196297  MISS:     143747
cpu0_STLB RFO       ACCESS:     148273  HIT:      69271  MISS:      79002
cpu0_STLB PREFETCH  ACCESS:          0  HIT:          0  MISS:          0
cpu0_STLB WRITEBACK ACCESS:          0  HIT:          0  MISS:          0
cpu0_L1D TOTAL     ACCESS:    7194620  HIT:    7061366  MISS:     133254
cpu0_L1D LOAD      ACCESS:    4550400  HIT:    4448659  MISS:     101741
cpu0_L1D RFO       ACCESS:    2421472  HIT:    2390622  MISS:      30850
cpu0_L1D PREFETCH  ACCESS:          0  HIT:          0  MISS:          0
cpu0_L1D WRITEBACK ACCESS:          0  HIT:          0  MISS:          0
cpu0_L2C TOTAL     ACCESS:     164985  HIT:      69337  MISS:      95648
cpu0_L2C LOAD      ACCESS:     101741  HIT:      37006  MISS:      64735
cpu0_L2C RFO       ACCESS:      30850  HIT:          1  MISS:      30849
cpu0_L2C PREFETCH  ACCESS:          0  HIT:          0  MISS:          0
cpu0_L2C WRITEBACK ACCESS:      31731  HIT:      31696  MISS:         35
LLC TOTAL     ACCESS:     126074  HIT:          0  MISS:     126074
LLC LOAD      ACCESS:      64735  HIT:          0  MISS:      64735
LLC RFO       ACCESS:      30849  HIT:          0  MISS:      30849
LLC PREFETCH  ACCESS:          0  HIT:          0  MISS:          0
LLC WRITEBACK ACCESS:      30461  HIT:          0  MISS:      30461
Heartbeat CPU 0 instructions: 68000000 cycles: 39672996 heartbeat IPC: 1.15734 cumulative IPC: 0.933999 (Simulation time: 1 hr 7 min 40 sec) 

Region of Interest Statistics
cpu0_DTLB TOTAL     ACCESS:    5218827  HIT:    4697174  MISS:     521653
cpu0_DTLB LOAD      ACCESS:    3963865  HIT:    3598229  MISS:     365636
cpu0_DTLB RFO       ACCESS:    1254962  HIT:    1098945  MISS:     156017
cpu0_DTLB PREFETCH  ACCESS:          0  HIT:          0  MISS:          0
cpu0_DTLB WRITEBACK ACCESS:          0  HIT:          0  MISS:          0
cpu0_ITLB TOTAL     ACCESS:     245978  HIT:     245978  MISS:          0
cpu0_ITLB LOAD      ACCESS:     245978  HIT:     245978  MISS:          0
cpu0_ITLB RFO       ACCESS:          0  HIT:          0  MISS:          0
cpu0_ITLB PREFETCH  ACCESS:          0  HIT:          0  MISS:          0
cpu0_ITLB WRITEBACK ACCESS:          0  HIT:          0  MISS:          0
cpu0_L1I TOTAL     ACCESS:    1637658  HIT:    1637658  MISS:          0
cpu0_L1I LOAD      ACCESS:    1637658  HIT:    1637658  MISS:          0
cpu0_L1I RFO       ACCESS:          0  HIT:          0  MISS:          0
cpu0_L1I PREFETCH  ACCESS:          0  HIT:          0  MISS:          0
cpu0_L1I WRITEBACK ACCESS:          0  HIT:          0  MISS:          0
cpu0_STLB TOTAL     ACCESS:     521653  HIT:     284137  MISS:     237516
cpu0_STLB LOAD      ACCESS:     365636  HIT:     213097  MISS:     152539
cpu0_STLB RFO       ACCESS:     156017  HIT:      71040  MISS:      84977
cpu0_STLB PREFETCH  ACCESS:          0  HIT:          0  MISS:          0
cpu0_STLB WRITEBACK ACCESS:          0  HIT:          0  MISS:          0
cpu0_L1D TOTAL     ACCESS:    8078370  HIT:    7933716  MISS:     144654
cpu0_L1D LOAD      ACCESS:    5133135  HIT:    5021047  MISS:     112088
cpu0_L1D RFO       ACCESS:    2707720  HIT:    2675874  MISS:      31846
cpu0_L1D PREFETCH  ACCESS:          0  HIT:          0  MISS:          0
cpu0_L1D WRITEBACK ACCESS:          0  HIT:          0  MISS:          0
cpu0_L2C TOTAL     ACCESS:     177499  HIT:      75375  MISS:     102124
cpu0_L2C LOAD      ACCESS:     112088  HIT:      41873  MISS:      70215
cpu0_L2C RFO       ACCESS:      31846  HIT:          1  MISS:      31845
cpu0_L2C PREFETCH  ACCESS:          0  HIT:          0  MISS:          0
cpu0_L2C WRITEBACK ACCESS:      32845  HIT:      32810  MISS:         35
LLC TOTAL     ACCESS:     133810  HIT:          0  MISS:     133810
LLC LOAD      ACCESS:      70215  HIT:          0  MISS:      70215
LLC RFO       ACCESS:      31845  HIT:          0  MISS:      31845
LLC PREFETCH  ACCESS:          0  HIT:          0  MISS:          0
LLC WRITEBACK ACCESS:      31721  HIT:          0  MISS:      31721
Heartbeat CPU 0 instructions: 70000000 cycles: 41405068 heartbeat IPC: 1.15469 cumulative IPC: 0.952198 (Simulation time: 1 hr 10 min 6 sec) 

Region of Interest Statistics
cpu0_DTLB TOTAL     ACCESS:    5780957  HIT:    5226518  MISS:     554439
cpu0_DTLB LOAD      ACCESS:    4407744  HIT:    4017093  MISS:     390651
cpu0_DTLB RFO       ACCESS:    1373213  HIT:    1209425  MISS:     163788
cpu0_DTLB PREFETCH  ACCESS:          0  HIT:          0  MISS:          0
cpu0_DTLB WRITEBACK ACCESS:          0  HIT:          0  MISS:          0
cpu0_ITLB TOTAL     ACCESS:     274798  HIT:     274798  MISS:          0
cpu0_ITLB LOAD      ACCESS:     274798  HIT:     274798  MISS:          0
cpu0_ITLB RFO       ACCESS:          0  HIT:          0  MISS:          0
cpu0_ITLB PREFETCH  ACCESS:          0  HIT:          0  MISS:          0
cpu0_ITLB WRITEBACK ACCESS:          0  HIT:          0  MISS:          0
cpu0_L1I TOTAL     ACCESS:    1831147  HIT:    1831147  MISS:          0
cpu0_L1I LOAD      ACCESS:    1831147  HIT:    1831147  MISS:          0
cpu0_L1I RFO       ACCESS:          0  HIT:          0  MISS:          0
cpu0_L1I PREFETCH  ACCESS:          0  HIT:          0  MISS:          0
cpu0_L1I WRITEBACK ACCESS:          0  HIT:          0  MISS:          0
cpu0_STLB TOTAL     ACCESS:     554439  HIT:     303125  MISS:     251314
cpu0_STLB LOAD      ACCESS:     390651  HIT:     229940  MISS:     160711
cpu0_STLB RFO       ACCESS:     163788  HIT:      73185  MISS:      90603
cpu0_STLB PREFETCH  ACCESS:          0  HIT:          0  MISS:          0
cpu0_STLB WRITEBACK ACCESS:          0  HIT:          0  MISS:          0
cpu0_L1D TOTAL     ACCESS:    8960790  HIT:    8804814  MISS:     155976
cpu0_L1D LOAD      ACCESS:    5715478  HIT:    5593139  MISS:     122339
cpu0_L1D RFO       ACCESS:    2993999  HIT:    2961157  MISS:      32842
cpu0_L1D PREFETCH  ACCESS:          0  HIT:          0  MISS:          0
cpu0_L1D WRITEBACK ACCESS:          0  HIT:          0  MISS:          0
cpu0_L2C TOTAL     ACCESS:     189937  HIT:      81335  MISS:     108602
cpu0_L2C LOAD      ACCESS:     122339  HIT:      46644  MISS:      75695
cpu0_L2C RFO       ACCESS:      32842  HIT:          1  MISS:      32841
cpu0_L2C PREFETCH  ACCESS:          0  HIT:          0  MISS:          0
cpu0_L2C WRITEBACK ACCESS:      33961  HIT:      33926  MISS:         35
LLC TOTAL     ACCESS:     141239  HIT:          0  MISS:     141239
LLC LOAD      ACCESS:      75695  HIT:          0  MISS:      75695
LLC RFO       ACCESS:      32841  HIT:          0  MISS:      32841
LLC PREFETCH  ACCESS:          0  HIT:          0  MISS:          0
LLC WRITEBACK ACCESS:      32672  HIT:          0  MISS:      32672
Heartbeat CPU 0 instructions: 72000003 cycles: 43134151 heartbeat IPC: 1.15668 cumulative IPC: 0.967751 (Simulation time: 1 hr 12 min 33 sec) 

Region of Interest Statistics
cpu0_DTLB TOTAL     ACCESS:    6343852  HIT:    5756533  MISS:     587319
cpu0_DTLB LOAD      ACCESS:    4852276  HIT:    4436489  MISS:     415787
cpu0_DTLB RFO       ACCESS:    1491576  HIT:    1320044  MISS:     171532
cpu0_DTLB PREFETCH  ACCESS:          0  HIT:          0  MISS:          0
cpu0_DTLB WRITEBACK ACCESS:          0  HIT:          0  MISS:          0
cpu0_ITLB TOTAL     ACCESS:     303633  HIT:     303633  MISS:          0
cpu0_ITLB LOAD      ACCESS:     303633  HIT:     303633  MISS:          0
cpu0_ITLB RFO       ACCESS:          0  HIT:          0  MISS:          0
cpu0_ITLB PREFETCH  ACCESS:          0  HIT:          0  MISS:          0
cpu0_ITLB WRITEBACK ACCESS:          0  HIT:          0  MISS:          0
cpu0_L1I TOTAL     ACCESS:    2024909  HIT:    2024909  MISS:          0
cpu0_L1I LOAD      ACCESS:    2024909  HIT:    2024909  MISS:          0
cpu0_L1I RFO       ACCESS:          0  HIT:          0  MISS:          0
cpu0_L1I PREFETCH  ACCESS:          0  HIT:          0  MISS:          0
cpu0_L1I WRITEBACK ACCESS:          0  HIT:          0  MISS:          0
cpu0_STLB TOTAL     ACCESS:     587319  HIT:     322702  MISS:     264617
cpu0_STLB LOAD      ACCESS:     415787  HIT:     247224  MISS:     168563
cpu0_STLB RFO       ACCESS:     171532  HIT:      75478  MISS:      96054
cpu0_STLB PREFETCH  ACCESS:          0  HIT:          0  MISS:          0
cpu0_STLB WRITEBACK ACCESS:          0  HIT:          0  MISS:          0
cpu0_L1D TOTAL     ACCESS:    9843532  HIT:    9676141  MISS:     167391
cpu0_L1D LOAD      ACCESS:    6298686  HIT:    6165994  MISS:     132692
cpu0_L1D RFO       ACCESS:    3280230  HIT:    3246392  MISS:      33838
cpu0_L1D PREFETCH  ACCESS:          0  HIT:          0  MISS:          0
cpu0_L1D WRITEBACK ACCESS:          0  HIT:          0  MISS:          0
cpu0_L2C TOTAL     ACCESS:     202467  HIT:      87391  MISS:     115076
cpu0_L2C LOAD      ACCESS:     132692  HIT:      51519  MISS:      81173
cpu0_L2C RFO       ACCESS:      33838  HIT:          1  MISS:      33837
cpu0_L2C PREFETCH  ACCESS:          0  HIT:          0  MISS:          0
cpu0_L2C WRITEBACK ACCESS:      35076  HIT:      35041  MISS:         35
LLC TOTAL     ACCESS:     148681  HIT:          0  MISS:     148681
LLC LOAD      ACCESS:      81173  HIT:          0  MISS:      81173
LLC RFO       ACCESS:      33837  HIT:          0  MISS:      33837
LLC PREFETCH  ACCESS:          0  HIT:          0  MISS:          0
LLC WRITEBACK ACCESS:      33640  HIT:          0  MISS:      33640
Heartbeat CPU 0 instructions: 74000003 cycles: 44863789 heartbeat IPC: 1.15631 cumulative IPC: 0.981084 (Simulation time: 1 hr 15 min 5 sec) 

Region of Interest Statistics
cpu0_DTLB TOTAL     ACCESS:    6905664  HIT:    6284728  MISS:     620936
cpu0_DTLB LOAD      ACCESS:    5295788  HIT:    4854157  MISS:     441631
cpu0_DTLB RFO       ACCESS:    1609876  HIT:    1430571  MISS:     179305
cpu0_DTLB PREFETCH  ACCESS:          0  HIT:          0  MISS:          0
cpu0_DTLB WRITEBACK ACCESS:          0  HIT:          0  MISS:          0
cpu0_ITLB TOTAL     ACCESS:     332442  HIT:     332442  MISS:          0
cpu0_ITLB LOAD      ACCESS:     332442  HIT:     332442  MISS:          0
cpu0_ITLB RFO       ACCESS:          0  HIT:          0  MISS:          0
cpu0_ITLB PREFETCH  ACCESS:          0  HIT:          0  MISS:          0
cpu0_ITLB WRITEBACK ACCESS:          0  HIT:          0  MISS:          0
cpu0_L1I TOTAL     ACCESS:    2218229  HIT:    2218229  MISS:          0
cpu0_L1I LOAD      ACCESS:    2218229  HIT:    2218229  MISS:          0
cpu0_L1I RFO       ACCESS:          0  HIT:          0  MISS:          0
cpu0_L1I PREFETCH  ACCESS:          0  HIT:          0  MISS:          0
cpu0_L1I WRITEBACK ACCESS:          0  HIT:          0  MISS:          0
cpu0_STLB TOTAL     ACCESS:     620936  HIT:     341062  MISS:     279874
cpu0_STLB LOAD      ACCESS:     441631  HIT:     263961  MISS:     177670
cpu0_STLB RFO       ACCESS:     179305  HIT:      77101  MISS:     102204
cpu0_STLB PREFETCH  ACCESS:          0  HIT:          0  MISS:          0
cpu0_STLB WRITEBACK ACCESS:          0  HIT:          0  MISS:          0
cpu0_L1D TOTAL     ACCESS:   10726791  HIT:   10548038  MISS:     178753
cpu0_L1D LOAD      ACCESS:    6880409  HIT:    6737416  MISS:     142993
cpu0_L1D RFO       ACCESS:    3566509  HIT:    3531675  MISS:      34834
cpu0_L1D PREFETCH  ACCESS:          0  HIT:          0  MISS:          0
cpu0_L1D WRITEBACK ACCESS:          0  HIT:          0  MISS:          0
cpu0_L2C TOTAL     ACCESS:     214942  HIT:      93390  MISS:     121552
cpu0_L2C LOAD      ACCESS:     142993  HIT:      56340  MISS:      86653
cpu0_L2C RFO       ACCESS:      34834  HIT:          1  MISS:      34833
cpu0_L2C PREFETCH  ACCESS:          0  HIT:          0  MISS:          0
cpu0_L2C WRITEBACK ACCESS:      36189  HIT:      36154  MISS:         35
LLC TOTAL     ACCESS:     156237  HIT:          0  MISS:     156237
LLC LOAD      ACCESS:      86653  HIT:          0  MISS:      86653
LLC RFO       ACCESS:      34833  HIT:          0  MISS:      34833
LLC PREFETCH  ACCESS:          0  HIT:          0  MISS:          0
LLC WRITEBACK ACCESS:      34720  HIT:          0  MISS:      34720
Heartbeat CPU 0 instructions: 76000001 cycles: 46598732 heartbeat IPC: 1.15277 cumulative IPC: 0.992454 (Simulation time: 1 hr 17 min 32 sec) 

Region of Interest Statistics
cpu0_DTLB TOTAL     ACCESS:    7465405  HIT:    6808258  MISS:     657147
cpu0_DTLB LOAD      ACCESS:    5737839  HIT:    5268703  MISS:     469136
cpu0_DTLB RFO       ACCESS:    1727566  HIT:    1539555  MISS:     188011
cpu0_DTLB PREFETCH  ACCESS:          0  HIT:          0  MISS:          0
cpu0_DTLB WRITEBACK ACCESS:          0  HIT:          0  MISS:          0
cpu0_ITLB TOTAL     ACCESS:     361020  HIT:     361020  MISS:          0
cpu0_ITLB LOAD      ACCESS:     361020  HIT:     361020  MISS:          0
cpu0_ITLB RFO       ACCESS:          0  HIT:          0  MISS:          0
cpu0_ITLB PREFETCH  ACCESS:          0  HIT:          0  MISS:          0
cpu0_ITLB WRITEBACK ACCESS:          0  HIT:          0  MISS:          0
cpu0_L1I TOTAL     ACCESS:    2411613  HIT:    2411613  MISS:          0
cpu0_L1I LOAD      ACCESS:    2411613  HIT:    2411613  MISS:          0
cpu0_L1I RFO       ACCESS:          0  HIT:          0  MISS:          0
cpu0_L1I PREFETCH  ACCESS:          0  HIT:          0  MISS:          0
cpu0_L1I WRITEBACK ACCESS:          0  HIT:          0  MISS:          0
cpu0_STLB TOTAL     ACCESS:     657147  HIT:     361833  MISS:     295314
cpu0_STLB LOAD      ACCESS:     469136  HIT:     282156  MISS:     186980
cpu0_STLB RFO       ACCESS:     188011  HIT:      79677  MISS:     108334
cpu0_STLB PREFETCH  ACCESS:          0  HIT:          0  MISS:          0
cpu0_STLB WRITEBACK ACCESS:          0  HIT:          0  MISS:          0
cpu0_L1D TOTAL     ACCESS:   11610262  HIT:   11420138  MISS:     190124
cpu0_L1D LOAD      ACCESS:    7462578  HIT:    7309282  MISS:     153296
cpu0_L1D RFO       ACCESS:    3852371  HIT:    3816541  MISS:      35830
cpu0_L1D PREFETCH  ACCESS:          0  HIT:          0  MISS:          0
cpu0_L1D WRITEBACK ACCESS:          0  HIT:          0  MISS:          0
cpu0_L2C TOTAL     ACCESS:     227432  HIT:      99405  MISS:     128027
cpu0_L2C LOAD      ACCESS:     153296  HIT:      61165  MISS:      92131
cpu0_L2C RFO       ACCESS:      35830  HIT:          1  MISS:      35829
cpu0_L2C PREFETCH  ACCESS:          0  HIT:          0  MISS:          0
cpu0_L2C WRITEBACK ACCESS:      37308  HIT:      37273  MISS:         35
LLC TOTAL     ACCESS:     163684  HIT:          0  MISS:     163684
LLC LOAD      ACCESS:      92131  HIT:          0  MISS:      92131
LLC RFO       ACCESS:      35829  HIT:          0  MISS:      35829
LLC PREFETCH  ACCESS:          0  HIT:          0  MISS:          0
LLC WRITEBACK ACCESS:      35692  HIT:          0  MISS:      35692
Heartbeat CPU 0 instructions: 78000003 cycles: 48331193 heartbeat IPC: 1.15443 cumulative IPC: 1.0025 (Simulation time: 1 hr 20 min 1 sec) 

Region of Interest Statistics
cpu0_DTLB TOTAL     ACCESS:    8028379  HIT:    7337233  MISS:     691146
cpu0_DTLB LOAD      ACCESS:    6182283  HIT:    5687249  MISS:     495034
cpu0_DTLB RFO       ACCESS:    1846096  HIT:    1649984  MISS:     196112
cpu0_DTLB PREFETCH  ACCESS:          0  HIT:          0  MISS:          0
cpu0_DTLB WRITEBACK ACCESS:          0  HIT:          0  MISS:          0
cpu0_ITLB TOTAL     ACCESS:     389836  HIT:     389836  MISS:          0
cpu0_ITLB LOAD      ACCESS:     389836  HIT:     389836  MISS:          0
cpu0_ITLB RFO       ACCESS:          0  HIT:          0  MISS:          0
cpu0_ITLB PREFETCH  ACCESS:          0  HIT:          0  MISS:          0
cpu0_ITLB WRITEBACK ACCESS:          0  HIT:          0  MISS:          0
cpu0_L1I TOTAL     ACCESS:    2605057  HIT:    2605057  MISS:          0
cpu0_L1I LOAD      ACCESS:    2605057  HIT:    2605057  MISS:          0
cpu0_L1I RFO       ACCESS:          0  HIT:          0  MISS:          0
cpu0_L1I PREFETCH  ACCESS:          0  HIT:          0  MISS:          0
cpu0_L1I WRITEBACK ACCESS:          0  HIT:          0  MISS:          0
cpu0_STLB TOTAL     ACCESS:     691146  HIT:     380406  MISS:     310740
cpu0_STLB LOAD      ACCESS:     495034  HIT:     298747  MISS:     196287
cpu0_STLB RFO       ACCESS:     196112  HIT:      81659  MISS:     114453
cpu0_STLB PREFETCH  ACCESS:          0  HIT:          0  MISS:          0
cpu0_STLB WRITEBACK ACCESS:          0  HIT:          0  MISS:          0
cpu0_L1D TOTAL     ACCESS:   12494893  HIT:   12293339  MISS:     201554
cpu0_L1D LOAD      ACCESS:    8045404  HIT:    7881732  MISS:     163672
cpu0_L1D RFO       ACCESS:    4138750  HIT:    4101924  MISS:      36826
cpu0_L1D PREFETCH  ACCESS:          0  HIT:          0  MISS:          0
cpu0_L1D WRITEBACK ACCESS:          0  HIT:          0  MISS:          0
cpu0_L2C TOTAL     ACCESS:     239976  HIT:     105469  MISS:     134507
cpu0_L2C LOAD      ACCESS:     163672  HIT:      66057  MISS:      97615
cpu0_L2C RFO       ACCESS:      36826  HIT:          1  MISS:      36825
cpu0_L2C PREFETCH  ACCESS:          0  HIT:          0  MISS:          0
cpu0_L2C WRITEBACK ACCESS:      38422  HIT:      38387  MISS:         35
LLC TOTAL     ACCESS:     171304  HIT:          0  MISS:     171304
LLC LOAD      ACCESS:      97615  HIT:          0  MISS:      97615
LLC RFO       ACCESS:      36825  HIT:          0  MISS:      36825
LLC PREFETCH  ACCESS:          0  HIT:          0  MISS:          0
LLC WRITEBACK ACCESS:      36832  HIT:          0  MISS:      36832
Heartbeat CPU 0 instructions: 80000000 cycles: 50060020 heartbeat IPC: 1.15685 cumulative IPC: 1.0115 (Simulation time: 1 hr 22 min 27 sec) 

Region of Interest Statistics
cpu0_DTLB TOTAL     ACCESS:    8590768  HIT:    7865876  MISS:     724892
cpu0_DTLB LOAD      ACCESS:    6626457  HIT:    6105449  MISS:     521008
cpu0_DTLB RFO       ACCESS:    1964311  HIT:    1760427  MISS:     203884
cpu0_DTLB PREFETCH  ACCESS:          0  HIT:          0  MISS:          0
cpu0_DTLB WRITEBACK ACCESS:          0  HIT:          0  MISS:          0
cpu0_ITLB TOTAL     ACCESS:     418682  HIT:     418682  MISS:          0
cpu0_ITLB LOAD      ACCESS:     418682  HIT:     418682  MISS:          0
cpu0_ITLB RFO       ACCESS:          0  HIT:          0  MISS:          0
cpu0_ITLB PREFETCH  ACCESS:          0  HIT:          0  MISS:          0
cpu0_ITLB WRITEBACK ACCESS:          0  HIT:          0  MISS:          0
cpu0_L1I TOTAL     ACCESS:    2798598  HIT:    2798598  MISS:          0
cpu0_L1I LOAD      ACCESS:    2798598  HIT:    2798598  MISS:          0
cpu0_L1I RFO       ACCESS:          0  HIT:          0  MISS:          0
cpu0_L1I PREFETCH  ACCESS:          0  HIT:          0  MISS:          0
cpu0_L1I WRITEBACK ACCESS:          0  HIT:          0  MISS:          0
cpu0_STLB TOTAL     ACCESS:     724892  HIT:     400563  MISS:     324329
cpu0_STLB LOAD      ACCESS:     521008  HIT:     316681  MISS:     204327
cpu0_STLB RFO       ACCESS:     203884  HIT:      83882  MISS:     120002
cpu0_STLB PREFETCH  ACCESS:          0  HIT:          0  MISS:          0
cpu0_STLB WRITEBACK ACCESS:          0  HIT:          0  MISS:          0
cpu0_L1D TOTAL     ACCESS:   13377716  HIT:   13164842  MISS:     212874
cpu0_L1D LOAD      ACCESS:    8628385  HIT:    8454464  MISS:     173921
cpu0_L1D RFO       ACCESS:    4425003  HIT:    4387181  MISS:      37822
cpu0_L1D PREFETCH  ACCESS:          0  HIT:          0  MISS:          0
cpu0_L1D WRITEBACK ACCESS:          0  HIT:          0  MISS:          0
cpu0_L2C TOTAL     ACCESS:     252409  HIT:     111427  MISS:     140982
cpu0_L2C LOAD      ACCESS:     173921  HIT:      70827  MISS:     103094
cpu0_L2C RFO       ACCESS:      37822  HIT:          1  MISS:      37821
cpu0_L2C PREFETCH  ACCESS:          0  HIT:          0  MISS:          0
cpu0_L2C WRITEBACK ACCESS:      39535  HIT:      39500  MISS:         35
LLC TOTAL     ACCESS:     178634  HIT:          0  MISS:     178634
LLC LOAD      ACCESS:     103094  HIT:          0  MISS:     103094
LLC RFO       ACCESS:      37821  HIT:          0  MISS:      37821
LLC PREFETCH  ACCESS:          0  HIT:          0  MISS:          0
LLC WRITEBACK ACCESS:      37687  HIT:          0  MISS:      37687
Heartbeat CPU 0 instructions: 82000001 cycles: 51789740 heartbeat IPC: 1.15626 cumulative IPC: 1.01948 (Simulation time: 1 hr 24 min 57 sec) 

Region of Interest Statistics
cpu0_DTLB TOTAL     ACCESS:    9153837  HIT:    8396896  MISS:     756941
cpu0_DTLB LOAD      ACCESS:    7071090  HIT:    6525776  MISS:     545314
cpu0_DTLB RFO       ACCESS:    2082747  HIT:    1871120  MISS:     211627
cpu0_DTLB PREFETCH  ACCESS:          0  HIT:          0  MISS:          0
cpu0_DTLB WRITEBACK ACCESS:          0  HIT:          0  MISS:          0
cpu0_ITLB TOTAL     ACCESS:     447503  HIT:     447503  MISS:          0
cpu0_ITLB LOAD      ACCESS:     447503  HIT:     447503  MISS:          0
cpu0_ITLB RFO       ACCESS:          0  HIT:          0  MISS:          0
cpu0_ITLB PREFETCH  ACCESS:          0  HIT:          0  MISS:          0
cpu0_ITLB WRITEBACK ACCESS:          0  HIT:          0  MISS:          0
cpu0_L1I TOTAL     ACCESS:    2992317  HIT:    2992317  MISS:          0
cpu0_L1I LOAD      ACCESS:    2992317  HIT:    2992317  MISS:          0
cpu0_L1I RFO       ACCESS:          0  HIT:          0  MISS:          0
cpu0_L1I PREFETCH  ACCESS:          0  HIT:          0  MISS:          0
cpu0_L1I WRITEBACK ACCESS:          0  HIT:          0  MISS:          0
cpu0_STLB TOTAL     ACCESS:     756941  HIT:     419180  MISS:     337761
cpu0_STLB LOAD      ACCESS:     545314  HIT:     333030  MISS:     212284
cpu0_STLB RFO       ACCESS:     211627  HIT:      86150  MISS:     125477
cpu0_STLB PREFETCH  ACCESS:          0  HIT:          0  MISS:          0
cpu0_STLB WRITEBACK ACCESS:          0  HIT:          0  MISS:          0
cpu0_L1D TOTAL     ACCESS:   14259954  HIT:   14035647  MISS:     224307
cpu0_L1D LOAD      ACCESS:    9210933  HIT:    9026635  MISS:     184298
cpu0_L1D RFO       ACCESS:    4711261  HIT:    4672443  MISS:      38818
cpu0_L1D PREFETCH  ACCESS:          0  HIT:          0  MISS:          0
cpu0_L1D WRITEBACK ACCESS:          0  HIT:          0  MISS:          0
cpu0_L2C TOTAL     ACCESS:     264955  HIT:     117484  MISS:     147471
cpu0_L2C LOAD      ACCESS:     184298  HIT:      75711  MISS:     108587
cpu0_L2C RFO       ACCESS:      38818  HIT:          1  MISS:      38817
cpu0_L2C PREFETCH  ACCESS:          0  HIT:          0  MISS:          0
cpu0_L2C WRITEBACK ACCESS:      40648  HIT:      40613  MISS:         35
LLC TOTAL     ACCESS:     186152  HIT:          0  MISS:     186152
LLC LOAD      ACCESS:     108587  HIT:          0  MISS:     108587
LLC RFO       ACCESS:      38817  HIT:          0  MISS:      38817
LLC PREFETCH  ACCESS:          0  HIT:          0  MISS:          0
LLC WRITEBACK ACCESS:      38716  HIT:          0  MISS:      38716
Heartbeat CPU 0 instructions: 84000003 cycles: 53522162 heartbeat IPC: 1.15445 cumulative IPC: 1.02654 (Simulation time: 1 hr 27 min 31 sec) 

Region of Interest Statistics
cpu0_DTLB TOTAL     ACCESS:    9715658  HIT:    8925087  MISS:     790571
cpu0_DTLB LOAD      ACCESS:    7514723  HIT:    6943551  MISS:     571172
cpu0_DTLB RFO       ACCESS:    2200935  HIT:    1981536  MISS:     219399
cpu0_DTLB PREFETCH  ACCESS:          0  HIT:          0  MISS:          0
cpu0_DTLB WRITEBACK ACCESS:          0  HIT:          0  MISS:          0
cpu0_ITLB TOTAL     ACCESS:     476326  HIT:     476326  MISS:          0
cpu0_ITLB LOAD      ACCESS:     476326  HIT:     476326  MISS:          0
cpu0_ITLB RFO       ACCESS:          0  HIT:          0  MISS:          0
cpu0_ITLB PREFETCH  ACCESS:          0  HIT:          0  MISS:          0
cpu0_ITLB WRITEBACK ACCESS:          0  HIT:          0  MISS:          0
cpu0_L1I TOTAL     ACCESS:    3185683  HIT:    3185683  MISS:          0
cpu0_L1I LOAD      ACCESS:    3185683  HIT:    3185683  MISS:          0
cpu0_L1I RFO       ACCESS:          0  HIT:          0  MISS:          0
cpu0_L1I PREFETCH  ACCESS:          0  HIT:          0  MISS:          0
cpu0_L1I WRITEBACK ACCESS:          0  HIT:          0  MISS:          0
cpu0_STLB TOTAL     ACCESS:     790571  HIT:     437699  MISS:     352872
cpu0_STLB LOAD      ACCESS:     571172  HIT:     349903  MISS:     221269
cpu0_STLB RFO       ACCESS:     219399  HIT:      87796  MISS:     131603
cpu0_STLB PREFETCH  ACCESS:          0  HIT:          0  MISS:          0
cpu0_STLB WRITEBACK ACCESS:          0  HIT:          0  MISS:          0
cpu0_L1D TOTAL     ACCESS:   15143810  HIT:   14908149  MISS:     235661
cpu0_L1D LOAD      ACCESS:    9793403  HIT:    9598819  MISS:     194584
cpu0_L1D RFO       ACCESS:    4997536  HIT:    4957722  MISS:      39814
cpu0_L1D PREFETCH  ACCESS:          0  HIT:          0  MISS:          0
cpu0_L1D WRITEBACK ACCESS:          0  HIT:          0  MISS:          0
cpu0_L2C TOTAL     ACCESS:     277423  HIT:     123476  MISS:     153947
cpu0_L2C LOAD      ACCESS:     194584  HIT:      80517  MISS:     114067
cpu0_L2C RFO       ACCESS:      39814  HIT:          1  MISS:      39813
cpu0_L2C PREFETCH  ACCESS:          0  HIT:          0  MISS:          0
cpu0_L2C WRITEBACK ACCESS:      41762  HIT:      41727  MISS:         35
LLC TOTAL     ACCESS:     193838  HIT:          0  MISS:     193838
LLC LOAD      ACCESS:     114067  HIT:          0  MISS:     114067
LLC RFO       ACCESS:      39813  HIT:          0  MISS:      39813
LLC PREFETCH  ACCESS:          0  HIT:          0  MISS:          0
LLC WRITEBACK ACCESS:      39926  HIT:          0  MISS:      39926
Heartbeat CPU 0 instructions: 86000000 cycles: 58903938 heartbeat IPC: 0.371624 cumulative IPC: 0.934994 (Simulation time: 1 hr 32 min 16 sec) 

Region of Interest Statistics
cpu0_DTLB TOTAL     ACCESS:   10427339  HIT:    9388135  MISS:    1039204
cpu0_DTLB LOAD      ACCESS:    7917200  HIT:    7189609  MISS:     727591
cpu0_DTLB RFO       ACCESS:    2510139  HIT:    2198526  MISS:     311613
cpu0_DTLB PREFETCH  ACCESS:          0  HIT:          0  MISS:          0
cpu0_DTLB WRITEBACK ACCESS:          0  HIT:          0  MISS:          0
cpu0_ITLB TOTAL     ACCESS:     491680  HIT:     491680  MISS:          0
cpu0_ITLB LOAD      ACCESS:     491680  HIT:     491680  MISS:          0
cpu0_ITLB RFO       ACCESS:          0  HIT:          0  MISS:          0
cpu0_ITLB PREFETCH  ACCESS:          0  HIT:          0  MISS:          0
cpu0_ITLB WRITEBACK ACCESS:          0  HIT:          0  MISS:          0
cpu0_L1I TOTAL     ACCESS:    3274976  HIT:    3274976  MISS:          0
cpu0_L1I LOAD      ACCESS:    3274976  HIT:    3274976  MISS:          0
cpu0_L1I RFO       ACCESS:          0  HIT:          0  MISS:          0
cpu0_L1I PREFETCH  ACCESS:          0  HIT:          0  MISS:          0
cpu0_L1I WRITEBACK ACCESS:          0  HIT:          0  MISS:          0
cpu0_STLB TOTAL     ACCESS:    1039204  HIT:     562463  MISS:     476741
cpu0_STLB LOAD      ACCESS:     727591  HIT:     421190  MISS:     306401
cpu0_STLB RFO       ACCESS:     311613  HIT:     141273  MISS:     170340
cpu0_STLB PREFETCH  ACCESS:          0  HIT:          0  MISS:          0
cpu0_STLB WRITEBACK ACCESS:          0  HIT:          0  MISS:          0
cpu0_L1D TOTAL     ACCESS:   16151467  HIT:   15863697  MISS:     287770
cpu0_L1D LOAD      ACCESS:   10259531  HIT:   10036894  MISS:     222637
cpu0_L1D RFO       ACCESS:    5415199  HIT:    5351508  MISS:      63691
cpu0_L1D PREFETCH  ACCESS:          0  HIT:          0  MISS:          0
cpu0_L1D WRITEBACK ACCESS:          0  HIT:          0  MISS:          0
cpu0_L2C TOTAL     ACCESS:     353292  HIT:     149445  MISS:     203847
cpu0_L2C LOAD      ACCESS:     222637  HIT:      82597  MISS:     140040
cpu0_L2C RFO       ACCESS:      63691  HIT:          2  MISS:      63689
cpu0_L2C PREFETCH  ACCESS:          0  HIT:          0  MISS:          0
cpu0_L2C WRITEBACK ACCESS:      65522  HIT:      65463  MISS:         59
LLC TOTAL     ACCESS:     264485  HIT:          0  MISS:     264485
LLC LOAD      ACCESS:     140040  HIT:          0  MISS:     140040
LLC RFO       ACCESS:      63689  HIT:          0  MISS:      63689
LLC PREFETCH  ACCESS:          0  HIT:          0  MISS:          0
LLC WRITEBACK ACCESS:      60697  HIT:          0  MISS:      60697
Heartbeat CPU 0 instructions: 88000002 cycles: 60669056 heartbeat IPC: 1.13307 cumulative IPC: 0.943677 (Simulation time: 1 hr 34 min 48 sec) 

Region of Interest Statistics
cpu0_DTLB TOTAL     ACCESS:   10991468  HIT:    9920828  MISS:    1070640
cpu0_DTLB LOAD      ACCESS:    8362997  HIT:    7612192  MISS:     750805
cpu0_DTLB RFO       ACCESS:    2628471  HIT:    2308636  MISS:     319835
cpu0_DTLB PREFETCH  ACCESS:          0  HIT:          0  MISS:          0
cpu0_DTLB WRITEBACK ACCESS:          0  HIT:          0  MISS:          0
cpu0_ITLB TOTAL     ACCESS:     520491  HIT:     520491  MISS:          0
cpu0_ITLB LOAD      ACCESS:     520491  HIT:     520491  MISS:          0
cpu0_ITLB RFO       ACCESS:          0  HIT:          0  MISS:          0
cpu0_ITLB PREFETCH  ACCESS:          0  HIT:          0  MISS:          0
cpu0_ITLB WRITEBACK ACCESS:          0  HIT:          0  MISS:          0
cpu0_L1I TOTAL     ACCESS:    3468638  HIT:    3468638  MISS:          0
cpu0_L1I LOAD      ACCESS:    3468638  HIT:    3468638  MISS:          0
cpu0_L1I RFO       ACCESS:          0  HIT:          0  MISS:          0
cpu0_L1I PREFETCH  ACCESS:          0  HIT:          0  MISS:          0
cpu0_L1I WRITEBACK ACCESS:          0  HIT:          0  MISS:          0
cpu0_STLB TOTAL     ACCESS:    1070640  HIT:     578891  MISS:     491749
cpu0_STLB LOAD      ACCESS:     750805  HIT:     435443  MISS:     315362
cpu0_STLB RFO       ACCESS:     319835  HIT:     143448  MISS:     176387
cpu0_STLB PREFETCH  ACCESS:          0  HIT:          0  MISS:          0
cpu0_STLB WRITEBACK ACCESS:          0  HIT:          0  MISS:          0
cpu0_L1D TOTAL     ACCESS:   17036487  HIT:   16736947  MISS:     299540
cpu0_L1D LOAD      ACCESS:   10843279  HIT:   10609917  MISS:     233362
cpu0_L1D RFO       ACCESS:    5701463  HIT:    5636776  MISS:      64687
cpu0_L1D PREFETCH  ACCESS:          0  HIT:          0  MISS:          0
cpu0_L1D WRITEBACK ACCESS:          0  HIT:          0  MISS:          0
cpu0_L2C TOTAL     ACCESS:     366354  HIT:     155624  MISS:     210730
cpu0_L2C LOAD      ACCESS:     233362  HIT:      87449  MISS:     145913
cpu0_L2C RFO       ACCESS:      64687  HIT:          2  MISS:      64685
cpu0_L2C PREFETCH  ACCESS:          0  HIT:          0  MISS:          0
cpu0_L2C WRITEBACK ACCESS:      66814  HIT:      66744  MISS:         70
LLC TOTAL     ACCESS:     274779  HIT:          0  MISS:     274779
LLC LOAD      ACCESS:     145913  HIT:          0  MISS:     145913
LLC RFO       ACCESS:      64685  HIT:          0  MISS:      64685
LLC PREFETCH  ACCESS:          0  HIT:          0  MISS:          0
LLC WRITEBACK ACCESS:      64119  HIT:          0  MISS:      64119
Heartbeat CPU 0 instructions: 90000003 cycles: 62399672 heartbeat IPC: 1.15566 cumulative IPC: 0.952412 (Simulation time: 1 hr 37 min 16 sec) 

Region of Interest Statistics
cpu0_DTLB TOTAL     ACCESS:   11553994  HIT:   10448705  MISS:    1105289
cpu0_DTLB LOAD      ACCESS:    8807695  HIT:    8030744  MISS:     776951
cpu0_DTLB RFO       ACCESS:    2746299  HIT:    2417961  MISS:     328338
cpu0_DTLB PREFETCH  ACCESS:          0  HIT:          0  MISS:          0
cpu0_DTLB WRITEBACK ACCESS:          0  HIT:          0  MISS:          0
cpu0_ITLB TOTAL     ACCESS:     549292  HIT:     549292  MISS:          0
cpu0_ITLB LOAD      ACCESS:     549292  HIT:     549292  MISS:          0
cpu0_ITLB RFO       ACCESS:          0  HIT:          0  MISS:          0
cpu0_ITLB PREFETCH  ACCESS:          0  HIT:          0  MISS:          0
cpu0_ITLB WRITEBACK ACCESS:          0  HIT:          0  MISS:          0
cpu0_L1I TOTAL     ACCESS:    3662057  HIT:    3662057  MISS:          0
cpu0_L1I LOAD      ACCESS:    3662057  HIT:    3662057  MISS:          0
cpu0_L1I RFO       ACCESS:          0  HIT:          0  MISS:          0
cpu0_L1I PREFETCH  ACCESS:          0  HIT:          0  MISS:          0
cpu0_L1I WRITEBACK ACCESS:          0  HIT:          0  MISS:          0
cpu0_STLB TOTAL     ACCESS:    1105289  HIT:     599894  MISS:     505395
cpu0_STLB LOAD      ACCESS:     776951  HIT:     453500  MISS:     323451
cpu0_STLB RFO       ACCESS:     328338  HIT:     146394  MISS:     181944
cpu0_STLB PREFETCH  ACCESS:          0  HIT:          0  MISS:          0
cpu0_STLB WRITEBACK ACCESS:          0  HIT:          0  MISS:          0
cpu0_L1D TOTAL     ACCESS:   17919124  HIT:   17607956  MISS:     311168
cpu0_L1D LOAD      ACCESS:   11425994  HIT:   11182075  MISS:     243919
cpu0_L1D RFO       ACCESS:    5987739  HIT:    5922056  MISS:      65683
cpu0_L1D PREFETCH  ACCESS:          0  HIT:          0  MISS:          0
cpu0_L1D WRITEBACK ACCESS:          0  HIT:          0  MISS:          0
cpu0_L2C TOTAL     ACCESS:     379097  HIT:     161893  MISS:     217204
cpu0_L2C LOAD      ACCESS:     243919  HIT:      92528  MISS:     151391
cpu0_L2C RFO       ACCESS:      65683  HIT:          2  MISS:      65681
cpu0_L2C PREFETCH  ACCESS:          0  HIT:          0  MISS:          0
cpu0_L2C WRITEBACK ACCESS:      67929  HIT:      67859  MISS:         70
LLC TOTAL     ACCESS:     282808  HIT:          0  MISS:     282808
LLC LOAD      ACCESS:     151391  HIT:          0  MISS:     151391
LLC RFO       ACCESS:      65681  HIT:          0  MISS:      65681
LLC PREFETCH  ACCESS:          0  HIT:          0  MISS:          0
LLC WRITEBACK ACCESS:      65674  HIT:          0  MISS:      65674
Heartbeat CPU 0 instructions: 92000001 cycles: 64130872 heartbeat IPC: 1.15527 cumulative IPC: 0.960443 (Simulation time: 1 hr 39 min 36 sec) 

Region of Interest Statistics
cpu0_DTLB TOTAL     ACCESS:   12117882  HIT:   10983569  MISS:    1134313
cpu0_DTLB LOAD      ACCESS:    9253418  HIT:    8455135  MISS:     798283
cpu0_DTLB RFO       ACCESS:    2864464  HIT:    2528434  MISS:     336030
cpu0_DTLB PREFETCH  ACCESS:          0  HIT:          0  MISS:          0
cpu0_DTLB WRITEBACK ACCESS:          0  HIT:          0  MISS:          0
cpu0_ITLB TOTAL     ACCESS:     578139  HIT:     578139  MISS:          0
cpu0_ITLB LOAD      ACCESS:     578139  HIT:     578139  MISS:          0
cpu0_ITLB RFO       ACCESS:          0  HIT:          0  MISS:          0
cpu0_ITLB PREFETCH  ACCESS:          0  HIT:          0  MISS:          0
cpu0_ITLB WRITEBACK ACCESS:          0  HIT:          0  MISS:          0
cpu0_L1I TOTAL     ACCESS:    3856078  HIT:    3856078  MISS:          0
cpu0_L1I LOAD      ACCESS:    3856078  HIT:    3856078  MISS:          0
cpu0_L1I RFO       ACCESS:          0  HIT:          0  MISS:          0
cpu0_L1I PREFETCH  ACCESS:          0  HIT:          0  MISS:          0
cpu0_L1I WRITEBACK ACCESS:          0  HIT:          0  MISS:          0
cpu0_STLB TOTAL     ACCESS:    1134313  HIT:     615429  MISS:     518884
cpu0_STLB LOAD      ACCESS:     798283  HIT:     466820  MISS:     331463
cpu0_STLB RFO       ACCESS:     336030  HIT:     148609  MISS:     187421
cpu0_STLB PREFETCH  ACCESS:          0  HIT:          0  MISS:          0
cpu0_STLB WRITEBACK ACCESS:          0  HIT:          0  MISS:          0
cpu0_L1D TOTAL     ACCESS:   18800873  HIT:   18477974  MISS:     322899
cpu0_L1D LOAD      ACCESS:   12008074  HIT:   11753473  MISS:     254601
cpu0_L1D RFO       ACCESS:    6273919  HIT:    6207240  MISS:      66679
cpu0_L1D PREFETCH  ACCESS:          0  HIT:          0  MISS:          0
cpu0_L1D WRITEBACK ACCESS:          0  HIT:          0  MISS:          0
cpu0_L2C TOTAL     ACCESS:     391939  HIT:     168258  MISS:     223681
cpu0_L2C LOAD      ACCESS:     254601  HIT:      97731  MISS:     156870
cpu0_L2C RFO       ACCESS:      66679  HIT:          2  MISS:      66677
cpu0_L2C PREFETCH  ACCESS:          0  HIT:          0  MISS:          0
cpu0_L2C WRITEBACK ACCESS:      69040  HIT:      68970  MISS:         70
LLC TOTAL     ACCESS:     290046  HIT:          0  MISS:     290046
LLC LOAD      ACCESS:     156870  HIT:          0  MISS:     156870
LLC RFO       ACCESS:      66677  HIT:          0  MISS:      66677
LLC PREFETCH  ACCESS:          0  HIT:          0  MISS:          0
LLC WRITEBACK ACCESS:      66435  HIT:          0  MISS:      66435
Heartbeat CPU 0 instructions: 94000001 cycles: 65866199 heartbeat IPC: 1.15252 cumulative IPC: 0.967774 (Simulation time: 1 hr 41 min 57 sec) 

Region of Interest Statistics
cpu0_DTLB TOTAL     ACCESS:   12681582  HIT:   11516513  MISS:    1165069
cpu0_DTLB LOAD      ACCESS:    9699034  HIT:    8877735  MISS:     821299
cpu0_DTLB RFO       ACCESS:    2982548  HIT:    2638778  MISS:     343770
cpu0_DTLB PREFETCH  ACCESS:          0  HIT:          0  MISS:          0
cpu0_DTLB WRITEBACK ACCESS:          0  HIT:          0  MISS:          0
cpu0_ITLB TOTAL     ACCESS:     606945  HIT:     606945  MISS:          0
cpu0_ITLB LOAD      ACCESS:     606945  HIT:     606945  MISS:          0
cpu0_ITLB RFO       ACCESS:          0  HIT:          0  MISS:          0
cpu0_ITLB PREFETCH  ACCESS:          0  HIT:          0  MISS:          0
cpu0_ITLB WRITEBACK ACCESS:          0  HIT:          0  MISS:          0
cpu0_L1I TOTAL     ACCESS:    4049592  HIT:    4049592  MISS:          0
cpu0_L1I LOAD      ACCESS:    4049592  HIT:    4049592  MISS:          0
cpu0_L1I RFO       ACCESS:          0  HIT:          0  MISS:          0
cpu0_L1I PREFETCH  ACCESS:          0  HIT:          0  MISS:          0
cpu0_L1I WRITEBACK ACCESS:          0  HIT:          0  MISS:          0
cpu0_STLB TOTAL     ACCESS:    1165069  HIT:     630982  MISS:     534087
cpu0_STLB LOAD      ACCESS:     821299  HIT:     480756  MISS:     340543
cpu0_STLB RFO       ACCESS:     343770  HIT:     150226  MISS:     193544
cpu0_STLB PREFETCH  ACCESS:          0  HIT:          0  MISS:          0
cpu0_STLB WRITEBACK ACCESS:          0  HIT:          0  MISS:          0
cpu0_L1D TOTAL     ACCESS:   19684183  HIT:   19349627  MISS:     334556
cpu0_L1D LOAD      ACCESS:   12589919  HIT:   12324725  MISS:     265194
cpu0_L1D RFO       ACCESS:    6560181  HIT:    6492506  MISS:      67675
cpu0_L1D PREFETCH  ACCESS:          0  HIT:          0  MISS:          0
cpu0_L1D WRITEBACK ACCESS:          0  HIT:          0  MISS:          0
cpu0_L2C TOTAL     ACCESS:     404713  HIT:     174543  MISS:     230170
cpu0_L2C LOAD      ACCESS:     265194  HIT:     102831  MISS:     162363
cpu0_L2C RFO       ACCESS:      67675  HIT:          2  MISS:      67673
cpu0_L2C PREFETCH  ACCESS:          0  HIT:          0  MISS:          0
cpu0_L2C WRITEBACK ACCESS:      70157  HIT:      70087  MISS:         70
LLC TOTAL     ACCESS:     297750  HIT:          0  MISS:     297750
LLC LOAD      ACCESS:     162363  HIT:          0  MISS:     162363
LLC RFO       ACCESS:      67673  HIT:          0  MISS:      67673
LLC PREFETCH  ACCESS:          0  HIT:          0  MISS:          0
LLC WRITEBACK ACCESS:      67650  HIT:          0  MISS:      67650
Heartbeat CPU 0 instructions: 96000003 cycles: 67596341 heartbeat IPC: 1.15598 cumulative IPC: 0.974673 (Simulation time: 1 hr 44 min 9 sec) 

Region of Interest Statistics
cpu0_DTLB TOTAL     ACCESS:   13245686  HIT:   12050194  MISS:    1195492
cpu0_DTLB LOAD      ACCESS:   10144869  HIT:    9300839  MISS:     844030
cpu0_DTLB RFO       ACCESS:    3100817  HIT:    2749355  MISS:     351462
cpu0_DTLB PREFETCH  ACCESS:          0  HIT:          0  MISS:          0
cpu0_DTLB WRITEBACK ACCESS:          0  HIT:          0  MISS:          0
cpu0_ITLB TOTAL     ACCESS:     635785  HIT:     635785  MISS:          0
cpu0_ITLB LOAD      ACCESS:     635785  HIT:     635785  MISS:          0
cpu0_ITLB RFO       ACCESS:          0  HIT:          0  MISS:          0
cpu0_ITLB PREFETCH  ACCESS:          0  HIT:          0  MISS:          0
cpu0_ITLB WRITEBACK ACCESS:          0  HIT:          0  MISS:          0
cpu0_L1I TOTAL     ACCESS:    4243608  HIT:    4243608  MISS:          0
cpu0_L1I LOAD      ACCESS:    4243608  HIT:    4243608  MISS:          0
cpu0_L1I RFO       ACCESS:          0  HIT:          0  MISS:          0
cpu0_L1I PREFETCH  ACCESS:          0  HIT:          0  MISS:          0
cpu0_L1I WRITEBACK ACCESS:          0  HIT:          0  MISS:          0
cpu0_STLB TOTAL     ACCESS:    1195492  HIT:     648388  MISS:     547104
cpu0_STLB LOAD      ACCESS:     844030  HIT:     495864  MISS:     348166
cpu0_STLB RFO       ACCESS:     351462  HIT:     152524  MISS:     198938
cpu0_STLB PREFETCH  ACCESS:          0  HIT:          0  MISS:          0
cpu0_STLB WRITEBACK ACCESS:          0  HIT:          0  MISS:          0
cpu0_L1D TOTAL     ACCESS:   20565689  HIT:   20219449  MISS:     346240
cpu0_L1D LOAD      ACCESS:   13172228  HIT:   12896417  MISS:     275811
cpu0_L1D RFO       ACCESS:    6846361  HIT:    6777689  MISS:      68672
cpu0_L1D PREFETCH  ACCESS:          0  HIT:          0  MISS:          0
cpu0_L1D WRITEBACK ACCESS:          0  HIT:          0  MISS:          0
cpu0_L2C TOTAL     ACCESS:     417514  HIT:     180867  MISS:     236647
cpu0_L2C LOAD      ACCESS:     275811  HIT:     107968  MISS:     167843
cpu0_L2C RFO       ACCESS:      68672  HIT:          2  MISS:      68670
cpu0_L2C PREFETCH  ACCESS:          0  HIT:          0  MISS:          0
cpu0_L2C WRITEBACK ACCESS:      71274  HIT:      71204  MISS:         70
LLC TOTAL     ACCESS:     305084  HIT:          0  MISS:     305084
LLC LOAD      ACCESS:     167843  HIT:          0  MISS:     167843
LLC RFO       ACCESS:      68670  HIT:          0  MISS:      68670
LLC PREFETCH  ACCESS:          0  HIT:          0  MISS:          0
LLC WRITEBACK ACCESS:      68507  HIT:          0  MISS:      68507
Heartbeat CPU 0 instructions: 98000001 cycles: 69328032 heartbeat IPC: 1.15494 cumulative IPC: 0.981054 (Simulation time: 1 hr 46 min 30 sec) 

Region of Interest Statistics
cpu0_DTLB TOTAL     ACCESS:   13808916  HIT:   12584117  MISS:    1224799
cpu0_DTLB LOAD      ACCESS:   10590060  HIT:    9724415  MISS:     865645
cpu0_DTLB RFO       ACCESS:    3218856  HIT:    2859702  MISS:     359154
cpu0_DTLB PREFETCH  ACCESS:          0  HIT:          0  MISS:          0
cpu0_DTLB WRITEBACK ACCESS:          0  HIT:          0  MISS:          0
cpu0_ITLB TOTAL     ACCESS:     664592  HIT:     664592  MISS:          0
cpu0_ITLB LOAD      ACCESS:     664592  HIT:     664592  MISS:          0
cpu0_ITLB RFO       ACCESS:          0  HIT:          0  MISS:          0
cpu0_ITLB PREFETCH  ACCESS:          0  HIT:          0  MISS:          0
cpu0_ITLB WRITEBACK ACCESS:          0  HIT:          0  MISS:          0
cpu0_L1I TOTAL     ACCESS:    4437387  HIT:    4437387  MISS:          0
cpu0_L1I LOAD      ACCESS:    4437387  HIT:    4437387  MISS:          0
cpu0_L1I RFO       ACCESS:          0  HIT:          0  MISS:          0
cpu0_L1I PREFETCH  ACCESS:          0  HIT:          0  MISS:          0
cpu0_L1I WRITEBACK ACCESS:          0  HIT:          0  MISS:          0
cpu0_STLB TOTAL     ACCESS:    1224799  HIT:     662496  MISS:     562303
cpu0_STLB LOAD      ACCESS:     865645  HIT:     508403  MISS:     357242
cpu0_STLB RFO       ACCESS:     359154  HIT:     154093  MISS:     205061
cpu0_STLB PREFETCH  ACCESS:          0  HIT:          0  MISS:          0
cpu0_STLB WRITEBACK ACCESS:          0  HIT:          0  MISS:          0
cpu0_L1D TOTAL     ACCESS:   21448590  HIT:   21090647  MISS:     357943
cpu0_L1D LOAD      ACCESS:   13753700  HIT:   13467238  MISS:     286462
cpu0_L1D RFO       ACCESS:    7132591  HIT:    7062918  MISS:      69673
cpu0_L1D PREFETCH  ACCESS:          0  HIT:          0  MISS:          0
cpu0_L1D WRITEBACK ACCESS:          0  HIT:          0  MISS:          0
cpu0_L2C TOTAL     ACCESS:     430333  HIT:     187205  MISS:     243128
cpu0_L2C LOAD      ACCESS:     286462  HIT:     113139  MISS:     173323
cpu0_L2C RFO       ACCESS:      69673  HIT:          2  MISS:      69671
cpu0_L2C PREFETCH  ACCESS:          0  HIT:          0  MISS:          0
cpu0_L2C WRITEBACK ACCESS:      72390  HIT:      72320  MISS:         70
LLC TOTAL     ACCESS:     312506  HIT:          0  MISS:     312506
LLC LOAD      ACCESS:     173323  HIT:          0  MISS:     173323
LLC RFO       ACCESS:      69671  HIT:          0  MISS:      69671
LLC PREFETCH  ACCESS:          0  HIT:          0  MISS:          0
LLC WRITEBACK ACCESS:      69448  HIT:          0  MISS:      69448
Heartbeat CPU 0 instructions: 100000001 cycles: 71056285 heartbeat IPC: 1.15724 cumulative IPC: 0.987065 (Simulation time: 1 hr 48 min 47 sec) 

Region of Interest Statistics
cpu0_DTLB TOTAL     ACCESS:   14373591  HIT:   13117367  MISS:    1256224
cpu0_DTLB LOAD      ACCESS:   11036731  HIT:   10147707  MISS:     889024
cpu0_DTLB RFO       ACCESS:    3336860  HIT:    2969660  MISS:     367200
cpu0_DTLB PREFETCH  ACCESS:          0  HIT:          0  MISS:          0
cpu0_DTLB WRITEBACK ACCESS:          0  HIT:          0  MISS:          0
cpu0_ITLB TOTAL     ACCESS:     693413  HIT:     693413  MISS:          0
cpu0_ITLB LOAD      ACCESS:     693413  HIT:     693413  MISS:          0
cpu0_ITLB RFO       ACCESS:          0  HIT:          0  MISS:          0
cpu0_ITLB PREFETCH  ACCESS:          0  HIT:          0  MISS:          0
cpu0_ITLB WRITEBACK ACCESS:          0  HIT:          0  MISS:          0
cpu0_L1I TOTAL     ACCESS:    4631065  HIT:    4631065  MISS:          0
cpu0_L1I LOAD      ACCESS:    4631065  HIT:    4631065  MISS:          0
cpu0_L1I RFO       ACCESS:          0  HIT:          0  MISS:          0
cpu0_L1I PREFETCH  ACCESS:          0  HIT:          0  MISS:          0
cpu0_L1I WRITEBACK ACCESS:          0  HIT:          0  MISS:          0
cpu0_STLB TOTAL     ACCESS:    1256224  HIT:     680451  MISS:     575773
cpu0_STLB LOAD      ACCESS:     889024  HIT:     523791  MISS:     365233
cpu0_STLB RFO       ACCESS:     367200  HIT:     156660  MISS:     210540
cpu0_STLB PREFETCH  ACCESS:          0  HIT:          0  MISS:          0
cpu0_STLB WRITEBACK ACCESS:          0  HIT:          0  MISS:          0
cpu0_L1D TOTAL     ACCESS:   22332052  HIT:   21962476  MISS:     369576
cpu0_L1D LOAD      ACCESS:   14337477  HIT:   14040448  MISS:     297029
cpu0_L1D RFO       ACCESS:    7418806  HIT:    7348137  MISS:      70669
cpu0_L1D PREFETCH  ACCESS:          0  HIT:          0  MISS:          0
cpu0_L1D WRITEBACK ACCESS:          0  HIT:          0  MISS:          0
cpu0_L2C TOTAL     ACCESS:     443085  HIT:     193482  MISS:     249603
cpu0_L2C LOAD      ACCESS:     297029  HIT:     118227  MISS:     178802
cpu0_L2C RFO       ACCESS:      70669  HIT:          2  MISS:      70667
cpu0_L2C PREFETCH  ACCESS:          0  HIT:          0  MISS:          0
cpu0_L2C WRITEBACK ACCESS:      73509  HIT:      73439  MISS:         70
LLC TOTAL     ACCESS:     320092  HIT:          0  MISS:     320092
LLC LOAD      ACCESS:     178802  HIT:          0  MISS:     178802
LLC RFO       ACCESS:      70667  HIT:          0  MISS:      70667
LLC PREFETCH  ACCESS:          0  HIT:          0  MISS:          0
LLC WRITEBACK ACCESS:      70559  HIT:          0  MISS:      70559
Heartbeat CPU 0 instructions: 102000004 cycles: 72785074 heartbeat IPC: 1.15688 cumulative IPC: 0.992669 (Simulation time: 1 hr 51 min 5 sec) 

Region of Interest Statistics
cpu0_DTLB TOTAL     ACCESS:   14935923  HIT:   13645846  MISS:    1290077
cpu0_DTLB LOAD      ACCESS:   11480977  HIT:   10566772  MISS:     914205
cpu0_DTLB RFO       ACCESS:    3454946  HIT:    3079074  MISS:     375872
cpu0_DTLB PREFETCH  ACCESS:          0  HIT:          0  MISS:          0
cpu0_DTLB WRITEBACK ACCESS:          0  HIT:          0  MISS:          0
cpu0_ITLB TOTAL     ACCESS:     722218  HIT:     722218  MISS:          0
cpu0_ITLB LOAD      ACCESS:     722218  HIT:     722218  MISS:          0
cpu0_ITLB RFO       ACCESS:          0  HIT:          0  MISS:          0
cpu0_ITLB PREFETCH  ACCESS:          0  HIT:          0  MISS:          0
cpu0_ITLB WRITEBACK ACCESS:          0  HIT:          0  MISS:          0
cpu0_L1I TOTAL     ACCESS:    4824604  HIT:    4824604  MISS:          0
cpu0_L1I LOAD      ACCESS:    4824604  HIT:    4824604  MISS:          0
cpu0_L1I RFO       ACCESS:          0  HIT:          0  MISS:          0
cpu0_L1I PREFETCH  ACCESS:          0  HIT:          0  MISS:          0
cpu0_L1I WRITEBACK ACCESS:          0  HIT:          0  MISS:          0
cpu0_STLB TOTAL     ACCESS:    1290077  HIT:     700647  MISS:     589430
cpu0_STLB LOAD      ACCESS:     914205  HIT:     540872  MISS:     373333
cpu0_STLB RFO       ACCESS:     375872  HIT:     159775  MISS:     216097
cpu0_STLB PREFETCH  ACCESS:          0  HIT:          0  MISS:          0
cpu0_STLB WRITEBACK ACCESS:          0  HIT:          0  MISS:          0
cpu0_L1D TOTAL     ACCESS:   23214941  HIT:   22833631  MISS:     381310
cpu0_L1D LOAD      ACCESS:   14920433  HIT:   14612724  MISS:     307709
cpu0_L1D RFO       ACCESS:    7705082  HIT:    7633417  MISS:      71665
cpu0_L1D PREFETCH  ACCESS:          0  HIT:          0  MISS:          0
cpu0_L1D WRITEBACK ACCESS:          0  HIT:          0  MISS:          0
cpu0_L2C TOTAL     ACCESS:     455928  HIT:     199851  MISS:     256077
cpu0_L2C LOAD      ACCESS:     307709  HIT:     123429  MISS:     184280
cpu0_L2C RFO       ACCESS:      71665  HIT:          2  MISS:      71663
cpu0_L2C PREFETCH  ACCESS:          0  HIT:          0  MISS:          0
cpu0_L2C WRITEBACK ACCESS:      74618  HIT:      74548  MISS:         70
LLC TOTAL     ACCESS:     327563  HIT:          0  MISS:     327563
LLC LOAD      ACCESS:     184280  HIT:          0  MISS:     184280
LLC RFO       ACCESS:      71663  HIT:          0  MISS:      71663
LLC PREFETCH  ACCESS:          0  HIT:          0  MISS:          0
LLC WRITEBACK ACCESS:      71556  HIT:          0  MISS:      71556
Heartbeat CPU 0 instructions: 104000004 cycles: 74519073 heartbeat IPC: 1.1534 cumulative IPC: 0.997819 (Simulation time: 1 hr 53 min 26 sec) 

Region of Interest Statistics
cpu0_DTLB TOTAL     ACCESS:   15499247  HIT:   14178978  MISS:    1320269
cpu0_DTLB LOAD      ACCESS:   11926242  HIT:   10989588  MISS:     936654
cpu0_DTLB RFO       ACCESS:    3573005  HIT:    3189390  MISS:     383615
cpu0_DTLB PREFETCH  ACCESS:          0  HIT:          0  MISS:          0
cpu0_DTLB WRITEBACK ACCESS:          0  HIT:          0  MISS:          0
cpu0_ITLB TOTAL     ACCESS:     751050  HIT:     751050  MISS:          0
cpu0_ITLB LOAD      ACCESS:     751050  HIT:     751050  MISS:          0
cpu0_ITLB RFO       ACCESS:          0  HIT:          0  MISS:          0
cpu0_ITLB PREFETCH  ACCESS:          0  HIT:          0  MISS:          0
cpu0_ITLB WRITEBACK ACCESS:          0  HIT:          0  MISS:          0
cpu0_L1I TOTAL     ACCESS:    5018198  HIT:    5018198  MISS:          0
cpu0_L1I LOAD      ACCESS:    5018198  HIT:    5018198  MISS:          0
cpu0_L1I RFO       ACCESS:          0  HIT:          0  MISS:          0
cpu0_L1I PREFETCH  ACCESS:          0  HIT:          0  MISS:          0
cpu0_L1I WRITEBACK ACCESS:          0  HIT:          0  MISS:          0
cpu0_STLB TOTAL     ACCESS:    1320269  HIT:     715846  MISS:     604423
cpu0_STLB LOAD      ACCESS:     936654  HIT:     554375  MISS:     382279
cpu0_STLB RFO       ACCESS:     383615  HIT:     161471  MISS:     222144
cpu0_STLB PREFETCH  ACCESS:          0  HIT:          0  MISS:          0
cpu0_STLB WRITEBACK ACCESS:          0  HIT:          0  MISS:          0
cpu0_L1D TOTAL     ACCESS:   24097754  HIT:   23704813  MISS:     392941
cpu0_L1D LOAD      ACCESS:   15502047  HIT:   15183771  MISS:     318276
cpu0_L1D RFO       ACCESS:    7991288  HIT:    7918627  MISS:      72661
cpu0_L1D PREFETCH  ACCESS:          0  HIT:          0  MISS:          0
cpu0_L1D WRITEBACK ACCESS:          0  HIT:          0  MISS:          0
cpu0_L2C TOTAL     ACCESS:     468674  HIT:     206121  MISS:     262553
cpu0_L2C LOAD      ACCESS:     318276  HIT:     128516  MISS:     189760
cpu0_L2C RFO       ACCESS:      72661  HIT:          2  MISS:      72659
cpu0_L2C PREFETCH  ACCESS:          0  HIT:          0  MISS:          0
cpu0_L2C WRITEBACK ACCESS:      75733  HIT:      75663  MISS:         70
LLC TOTAL     ACCESS:     335054  HIT:          0  MISS:     335054
LLC LOAD      ACCESS:     189760  HIT:          0  MISS:     189760
LLC RFO       ACCESS:      72659  HIT:          0  MISS:      72659
LLC PREFETCH  ACCESS:          0  HIT:          0  MISS:          0
LLC WRITEBACK ACCESS:      72571  HIT:          0  MISS:      72571
Heartbeat CPU 0 instructions: 106000002 cycles: 76250273 heartbeat IPC: 1.15527 cumulative IPC: 1.0027 (Simulation time: 1 hr 55 min 45 sec) 

Region of Interest Statistics
cpu0_DTLB TOTAL     ACCESS:   16063838  HIT:   14713059  MISS:    1350779
cpu0_DTLB LOAD      ACCESS:   12372554  HIT:   11413081  MISS:     959473
cpu0_DTLB RFO       ACCESS:    3691284  HIT:    3299978  MISS:     391306
cpu0_DTLB PREFETCH  ACCESS:          0  HIT:          0  MISS:          0
cpu0_DTLB WRITEBACK ACCESS:          0  HIT:          0  MISS:          0
cpu0_ITLB TOTAL     ACCESS:     779878  HIT:     779878  MISS:          0
cpu0_ITLB LOAD      ACCESS:     779878  HIT:     779878  MISS:          0
cpu0_ITLB RFO       ACCESS:          0  HIT:          0  MISS:          0
cpu0_ITLB PREFETCH  ACCESS:          0  HIT:          0  MISS:          0
cpu0_ITLB WRITEBACK ACCESS:          0  HIT:          0  MISS:          0
cpu0_L1I TOTAL     ACCESS:    5212137  HIT:    5212137  MISS:          0
cpu0_L1I LOAD      ACCESS:    5212137  HIT:    5212137  MISS:          0
cpu0_L1I RFO       ACCESS:          0  HIT:          0  MISS:          0
cpu0_L1I PREFETCH  ACCESS:          0  HIT:          0  MISS:          0
cpu0_L1I WRITEBACK ACCESS:          0  HIT:          0  MISS:          0
cpu0_STLB TOTAL     ACCESS:    1350779  HIT:     733335  MISS:     617444
cpu0_STLB LOAD      ACCESS:     959473  HIT:     569565  MISS:     389908
cpu0_STLB RFO       ACCESS:     391306  HIT:     163770  MISS:     227536
cpu0_STLB PREFETCH  ACCESS:          0  HIT:          0  MISS:          0
cpu0_STLB WRITEBACK ACCESS:          0  HIT:          0  MISS:          0
cpu0_L1D TOTAL     ACCESS:   24979664  HIT:   24575032  MISS:     404632
cpu0_L1D LOAD      ACCESS:   16084694  HIT:   15755792  MISS:     328902
cpu0_L1D RFO       ACCESS:    8277530  HIT:    8203873  MISS:      73657
cpu0_L1D PREFETCH  ACCESS:          0  HIT:          0  MISS:          0
cpu0_L1D WRITEBACK ACCESS:          0  HIT:          0  MISS:          0
cpu0_L2C TOTAL     ACCESS:     481483  HIT:     212454  MISS:     269029
cpu0_L2C LOAD      ACCESS:     328902  HIT:     133662  MISS:     195240
cpu0_L2C RFO       ACCESS:      73657  HIT:          2  MISS:      73655
cpu0_L2C PREFETCH  ACCESS:          0  HIT:          0  MISS:          0
[...]
cpu0_DTLB TOTAL     ACCESS:  432101320  HIT:  392462433  MISS:   39638887
cpu0_DTLB LOAD      ACCESS:  330740628  HIT:  303104362  MISS:   27636266
cpu0_DTLB RFO       ACCESS:  101360692  HIT:   89358071  MISS:   12002621
cpu0_DTLB PREFETCH  ACCESS:          0  HIT:          0  MISS:          0
cpu0_DTLB WRITEBACK ACCESS:          0  HIT:          0  MISS:          0
cpu0_ITLB TOTAL     ACCESS:   20683121  HIT:   20683121  MISS:          0
cpu0_ITLB LOAD      ACCESS:   20683121  HIT:   20683121  MISS:          0
cpu0_ITLB RFO       ACCESS:          0  HIT:          0  MISS:          0
cpu0_ITLB PREFETCH  ACCESS:          0  HIT:          0  MISS:          0
cpu0_ITLB WRITEBACK ACCESS:          0  HIT:          0  MISS:          0
cpu0_L1I TOTAL     ACCESS:  137933858  HIT:  137933858  MISS:          0
cpu0_L1I LOAD      ACCESS:  137933858  HIT:  137933858  MISS:          0
cpu0_L1I RFO       ACCESS:          0  HIT:          0  MISS:          0
cpu0_L1I PREFETCH  ACCESS:          0  HIT:          0  MISS:          0
cpu0_L1I WRITEBACK ACCESS:          0  HIT:          0  MISS:          0
cpu0_STLB TOTAL     ACCESS:   39638887  HIT:   20821092  MISS:   18817795
cpu0_STLB LOAD      ACCESS:   27636266  HIT:   15655297  MISS:   11980969
cpu0_STLB RFO       ACCESS:   12002621  HIT:    5165795  MISS:    6836826
cpu0_STLB PREFETCH  ACCESS:          0  HIT:          0  MISS:          0
cpu0_STLB WRITEBACK ACCESS:          0  HIT:          0  MISS:          0
cpu0_L1D TOTAL     ACCESS:  671781767  HIT:  660204022  MISS:   11577745
cpu0_L1D LOAD      ACCESS:  429549740  HIT:  420303647  MISS:    9246093
cpu0_L1D RFO       ACCESS:  223414697  HIT:  221135440  MISS:    2279257
cpu0_L1D PREFETCH  ACCESS:          0  HIT:          0  MISS:          0
cpu0_L1D WRITEBACK ACCESS:          0  HIT:          0  MISS:          0
cpu0_L2C TOTAL     ACCESS:   13942335  HIT:    6153600  MISS:    7788735
cpu0_L2C LOAD      ACCESS:    9246093  HIT:    3741119  MISS:    5504974
cpu0_L2C RFO       ACCESS:    2279257  HIT:         78  MISS:    2279179
cpu0_L2C PREFETCH  ACCESS:          0  HIT:          0  MISS:          0
cpu0_L2C WRITEBACK ACCESS:    2364590  HIT:    2362228  MISS:       2362
LLC TOTAL     ACCESS:   10066803  HIT:          3  MISS:   10066800
LLC LOAD      ACCESS:    5504974  HIT:          3  MISS:    5504971
LLC RFO       ACCESS:    2279179  HIT:          0  MISS:    2279179
LLC PREFETCH  ACCESS:          0  HIT:          0  MISS:          0
LLC WRITEBACK ACCESS:    2280430  HIT:          0  MISS:    2280430
Heartbeat CPU 0 instructions: 1550000003 cycles: 1567921270 heartbeat IPC: 1.15035 cumulative IPC: 0.969293 (Simulation time: 18 hr 19 min 59 sec) 

Region of Interest Statistics
cpu0_DTLB TOTAL     ACCESS:  432662259  HIT:  392991193  MISS:   39671066
cpu0_DTLB LOAD      ACCESS:  331183293  HIT:  303522623  MISS:   27660670
cpu0_DTLB RFO       ACCESS:  101478966  HIT:   89468570  MISS:   12010396
cpu0_DTLB PREFETCH  ACCESS:          0  HIT:          0  MISS:          0
cpu0_DTLB WRITEBACK ACCESS:          0  HIT:          0  MISS:          0
cpu0_ITLB TOTAL     ACCESS:   20711958  HIT:   20711958  MISS:          0
cpu0_ITLB LOAD      ACCESS:   20711958  HIT:   20711958  MISS:          0
cpu0_ITLB RFO       ACCESS:          0  HIT:          0  MISS:          0
cpu0_ITLB PREFETCH  ACCESS:          0  HIT:          0  MISS:          0
cpu0_ITLB WRITEBACK ACCESS:          0  HIT:          0  MISS:          0
cpu0_L1I TOTAL     ACCESS:  138127359  HIT:  138127359  MISS:          0
cpu0_L1I LOAD      ACCESS:  138127359  HIT:  138127359  MISS:          0
cpu0_L1I RFO       ACCESS:          0  HIT:          0  MISS:          0
cpu0_L1I PREFETCH  ACCESS:          0  HIT:          0  MISS:          0
cpu0_L1I WRITEBACK ACCESS:          0  HIT:          0  MISS:          0
cpu0_STLB TOTAL     ACCESS:   39671066  HIT:   20838104  MISS:   18832962
cpu0_STLB LOAD      ACCESS:   27660670  HIT:   15670383  MISS:   11990287
cpu0_STLB RFO       ACCESS:   12010396  HIT:    5167721  MISS:    6842675
cpu0_STLB PREFETCH  ACCESS:          0  HIT:          0  MISS:          0
cpu0_STLB WRITEBACK ACCESS:          0  HIT:          0  MISS:          0
cpu0_L1D TOTAL     ACCESS:  672666777  HIT:  661077048  MISS:   11589729
cpu0_L1D LOAD      ACCESS:  430133231  HIT:  420876215  MISS:    9257016
cpu0_L1D RFO       ACCESS:  223701049  HIT:  221420796  MISS:    2280253
cpu0_L1D PREFETCH  ACCESS:          0  HIT:          0  MISS:          0
cpu0_L1D WRITEBACK ACCESS:          0  HIT:          0  MISS:          0
cpu0_L2C TOTAL     ACCESS:   13955439  HIT:    6160230  MISS:    7795209
cpu0_L2C LOAD      ACCESS:    9257016  HIT:    3746564  MISS:    5510452
cpu0_L2C RFO       ACCESS:    2280253  HIT:         78  MISS:    2280175
cpu0_L2C PREFETCH  ACCESS:          0  HIT:          0  MISS:          0
cpu0_L2C WRITEBACK ACCESS:    2365710  HIT:    2363348  MISS:       2362
LLC TOTAL     ACCESS:   10074005  HIT:          3  MISS:   10074002
LLC LOAD      ACCESS:    5510452  HIT:          3  MISS:    5510449
LLC RFO       ACCESS:    2280175  HIT:          0  MISS:    2280175
LLC PREFETCH  ACCESS:          0  HIT:          0  MISS:          0
LLC WRITEBACK ACCESS:    2281158  HIT:          0  MISS:    2281158
Finished CPU 0 instructions: 1500000000 cycles: 1547520231 cumulative IPC: 0.969293 (Simulation time: 18 hr 19 min 59 sec) 

ChampSim completed all CPUs

Region of Interest Statistics

CPU 0 cumulative IPC: 0.969293 instructions: 1500000000 cycles: 1547520231
cpu0_DTLB TOTAL     ACCESS:  432662259  HIT:  392991193  MISS:   39671066
cpu0_DTLB LOAD      ACCESS:  331183293  HIT:  303522623  MISS:   27660670
cpu0_DTLB RFO       ACCESS:  101478966  HIT:   89468570  MISS:   12010396
cpu0_DTLB PREFETCH  ACCESS:          0  HIT:          0  MISS:          0
cpu0_DTLB WRITEBACK ACCESS:          0  HIT:          0  MISS:          0
cpu0_DTLB TRANSLATION ACCESS:          0  HIT:          0  MISS:          0
cpu0_DTLB PREFETCH  REQUESTED:          0  ISSUED:          0  USEFUL:          0  USELESS:          0
cpu0_DTLB AVERAGE MISS LATENCY: 13.6221 cycles
cpu0_ITLB TOTAL     ACCESS:   20711958  HIT:   20711958  MISS:          0
cpu0_ITLB LOAD      ACCESS:   20711958  HIT:   20711958  MISS:          0
cpu0_ITLB RFO       ACCESS:          0  HIT:          0  MISS:          0
cpu0_ITLB PREFETCH  ACCESS:          0  HIT:          0  MISS:          0
cpu0_ITLB WRITEBACK ACCESS:          0  HIT:          0  MISS:          0
cpu0_ITLB TRANSLATION ACCESS:          0  HIT:          0  MISS:          0
cpu0_ITLB PREFETCH  REQUESTED:          0  ISSUED:          0  USEFUL:          0  USELESS:          0
cpu0_ITLB AVERAGE MISS LATENCY: -nan cycles
cpu0_L1I TOTAL     ACCESS:  138127359  HIT:  138127359  MISS:          0
cpu0_L1I LOAD      ACCESS:  138127359  HIT:  138127359  MISS:          0
cpu0_L1I RFO       ACCESS:          0  HIT:          0  MISS:          0
cpu0_L1I PREFETCH  ACCESS:          0  HIT:          0  MISS:          0
cpu0_L1I WRITEBACK ACCESS:          0  HIT:          0  MISS:          0
cpu0_L1I TRANSLATION ACCESS:          0  HIT:          0  MISS:          0
cpu0_L1I PREFETCH  REQUESTED:          0  ISSUED:          0  USEFUL:          0  USELESS:          0
cpu0_L1I AVERAGE MISS LATENCY: -nan cycles
cpu0_STLB TOTAL     ACCESS:   39671066  HIT:   20838104  MISS:   18832962
cpu0_STLB LOAD      ACCESS:   27660670  HIT:   15670383  MISS:   11990287
cpu0_STLB RFO       ACCESS:   12010396  HIT:    5167721  MISS:    6842675
cpu0_STLB PREFETCH  ACCESS:          0  HIT:          0  MISS:          0
cpu0_STLB WRITEBACK ACCESS:          0  HIT:          0  MISS:          0
cpu0_STLB TRANSLATION ACCESS:          0  HIT:          0  MISS:          0
cpu0_STLB PREFETCH  REQUESTED:          0  ISSUED:          0  USEFUL:          0  USELESS:          0
cpu0_STLB AVERAGE MISS LATENCY: 8.72473 cycles
cpu0_L1D TOTAL     ACCESS:  672666777  HIT:  661077048  MISS:   11589729
cpu0_L1D LOAD      ACCESS:  430133231  HIT:  420876215  MISS:    9257016
cpu0_L1D RFO       ACCESS:  223701049  HIT:  221420796  MISS:    2280253
cpu0_L1D PREFETCH  ACCESS:          0  HIT:          0  MISS:          0
cpu0_L1D WRITEBACK ACCESS:          0  HIT:          0  MISS:          0
cpu0_L1D TRANSLATION ACCESS:   18832497  HIT:   18780037  MISS:      52460
cpu0_L1D PREFETCH  REQUESTED:          0  ISSUED:          0  USEFUL:          0  USELESS:          0
cpu0_L1D AVERAGE MISS LATENCY: 282.374 cycles
cpu0_L2C TOTAL     ACCESS:   13955439  HIT:    6160230  MISS:    7795209
cpu0_L2C LOAD      ACCESS:    9257016  HIT:    3746564  MISS:    5510452
cpu0_L2C RFO       ACCESS:    2280253  HIT:         78  MISS:    2280175
cpu0_L2C PREFETCH  ACCESS:          0  HIT:          0  MISS:          0
cpu0_L2C WRITEBACK ACCESS:    2365710  HIT:    2363348  MISS:       2362
cpu0_L2C TRANSLATION ACCESS:      52460  HIT:      50240  MISS:       2220
cpu0_L2C PREFETCH  REQUESTED:          0  ISSUED:          0  USEFUL:          0  USELESS:          0
cpu0_L2C AVERAGE MISS LATENCY: 403.114 cycles
LLC TOTAL     ACCESS:   10074005  HIT:          3  MISS:   10074002
LLC LOAD      ACCESS:    5510452  HIT:          3  MISS:    5510449
LLC RFO       ACCESS:    2280175  HIT:          0  MISS:    2280175
LLC PREFETCH  ACCESS:          0  HIT:          0  MISS:          0
LLC WRITEBACK ACCESS:    2281158  HIT:          0  MISS:    2281158
LLC TRANSLATION ACCESS:       2220  HIT:          0  MISS:       2220
LLC PREFETCH  REQUESTED:          0  ISSUED:          0  USEFUL:          0  USELESS:          0
LLC AVERAGE MISS LATENCY: 295.683 cycles
~~~~~~~~~~Reuse Distance Profiler output~~~~~~~~~~
0	0	0
1	0	0
2	0	0
3	0	0
4	0	0
5	0	0
6	0	0
7	0	0
8	0	0
9	0	0
10	0	0
11	0	0
12	0	0
13	0	0
14	0	0
15	0	0
16	0	0
17	0	0
18	0	0
19	0	0
20	0	0
21	0	0
22	0	0
23	0	0
24	0	0
25	0	0
26	0	0
27	0	0
28	0	0
29	0	0
30	0	0
31	0	0
32	0	0
33	0	0
34	0	0
35	0	0
36	0	0
37	0	0
38	0	0
39	0	0
40	0	0
41	0	0
42	0	0
43	0	0
44	0	0
45	0	0
46	0	0
47	0	0
48	0	0
49	0	0
50	0	0
51	0	0
52	0	0
53	0	0
54	0	0
55	0	0
56	0	0
57	0	0
58	0	0
59	0	0
60	0	0
61	0	0
62	0	0
63	0	0
64	0	0
66	0	0
68	0	0
70	0	0
72	0	0
74	0	0
76	0	0
78	0	0
80	0	0
82	0	0
84	0	0
86	0	0
88	0	0
90	0	0
92	0	0
94	0	0
96	0	0
98	0	0
100	0	0
102	0	0
104	0	0
106	0	0
108	0	0
110	0	0
112	0	0
114	0	0
116	0	0
118	0	0
120	0	0
122	0	0
124	0	0
126	0	0
128	0	0
132	0	0
136	0	0
140	0	0
144	0	0
148	0	0
152	0	0
156	0	0
160	0	0
164	0	0
168	0	0
172	0	0
176	0	0
180	0	0
184	0	0
188	0	0
192	0	0
196	0	0
200	0	0
204	0	0
208	0	0
212	0	0
216	0	0
220	0	0
224	0	0
228	0	0
232	0	0
236	0	0
240	0	0
244	0	0
248	0	0
252	0	0
256	0	0
264	0	0
272	0	0
280	0	0
288	0	0
296	0	0
304	0	0
312	0	0
320	0	0
328	0	0
336	0	0
344	0	0
352	0	0
360	0	0
368	0	0
376	0	0
384	0	0
392	0	0
400	0	0
408	0	0
416	0	0
424	0	0
432	0	0
440	0	0
448	0	0
456	0	0
464	0	0
472	0	0
480	0	0
488	0	0
496	0	0
504	0	0
512	0	0
528	0	0
544	0	0
560	0	0
576	0	0
592	0	0
608	0	0
624	0	0
640	0	0
656	0	0
672	0	0
688	0	0
704	0	0
720	0	0
736	0	0
752	0	0
768	0	0
784	0	0
800	0	0
816	0	0
832	0	0
848	0	0
864	0	0
880	0	0
896	0	0
912	0	0
928	0	0
944	0	0
960	0	0
976	0	0
992	0	0
1008	0	0
1024	0	0
1056	0	0
1088	0	0
1120	0	0
1152	0	0
1184	0	0
1216	0	0
1248	0	0
1280	0	0
1312	0	0
1344	0	0
1376	0	0
1408	0	0
1440	0	0
1472	0	0
1504	0	0
1536	0	0
1568	0	0
1600	0	0
1632	0	0
1664	0	0
1696	0	0
1728	0	0
1760	0	0
1792	0	0
1824	0	0
1856	0	0
1888	0	0
1920	0	0
1952	0	0
1984	0	0
2016	0	0
2048	0	0
2112	0	0
2176	0	0
2240	0	0
2304	0	0
2368	0	0
2432	0	0
2496	0	0
2560	0	0
2624	0	0
2688	0	0
2752	0	0
2816	0	0
2880	0	0
2944	0	0
3008	0	0
3072	0	0
3136	0	0
3200	0	0
3264	0	0
3328	0	0
3392	0	0
3456	0	0
3520	0	0
3584	0	0
3648	0	0
3712	0	0
3776	0	0
3840	0	0
3904	0	0
3968	0	0
4032	0	0
4096	0	0
4224	0	0
4352	0	0
4480	0	0
4608	0	0
4736	0	0
4864	0	0
4992	0	0
5120	0	0
5248	0	0
5376	0	0
5504	0	0
5632	0	0
5760	0	0
5888	0	0
6016	0	0
6144	0	0
6272	0	0
6400	0	0
6528	0	0
6656	0	0
6784	0	0
6912	0	0
7040	0	0
7168	0	0
7296	0	0
7424	0	0
7552	0	0
7680	0	0
7808	0	0
7936	0	0
8064	0	0
8192	0	0
8448	0	0
8704	0	0
8960	0	0
9216	0	0
9472	0	0
9728	0	0
9984	0	0
10240	0	0
10496	0	0
10752	0	0
11008	0	0
11264	0	0
11520	0	0
11776	0	0
12032	0	0
12288	0	0
12544	0	0
12800	0	0
13056	0	0
13312	0	0
13568	0	0
13824	0	0
14080	0	0
14336	0	0
14592	0	0
14848	0	0
15104	0	0
15360	0	0
15616	0	0
15872	0	0
16128	0	0
16384	0	0
16896	0	0
17408	0	0
17920	0	0
18432	0	0
18944	0	0
19456	0	0
19968	0	0
20480	0	0
20992	0	0
21504	0	0
22016	0	0
22528	0	0
23040	0	0
23552	0	0
24064	0	0
24576	0	0
25088	0	0
25600	0	0
26112	0	0
26624	0	0
27136	0	0
27648	0	0
28160	0	0
28672	0	0
29184	0	0
29696	0	0
30208	0	0
30720	0	0
31232	0	0
31744	0	0
32256	0	0
32768	0	0
33792	0	0
34816	0	0
35840	0	0
36864	0	0
37888	0	0
38912	0	0
39936	0	0
40960	0	0
41984	0	0
43008	0	0
44032	0	0
45056	0	0
46080	0	0
47104	0	0
48128	0	0
49152	0	0
50176	0	0
51200	0	0
52224	0	0
53248	0	0
54272	0	0
55296	0	0
56320	0	0
57344	0	0
58368	0	0
59392	0	0
60416	0	0
61440	0	0
62464	0	0
63488	0	0
64512	0	0
65536	0	0
67584	0	0
69632	0	0
71680	0	0
73728	0	0
75776	0	0
77824	0	0
79872	0	0
81920	0	0
83968	0	0
86016	0	0
88064	0	0
90112	0	0
92160	0	0
94208	0	0
96256	0	0
98304	0	0
100352	0	0
102400	0	0
104448	0	0
106496	0	0
108544	0	0
110592	0	0
112640	0	0
114688	0	0
116736	0	0
118784	0	0
120832	0	0
122880	0	0
124928	0	0
126976	0	0
129024	0	0
131072	0	0
135168	0	0
139264	0	0
143360	0	0
147456	0	0
151552	0	0
155648	0	0
159744	0	0
163840	0	0
167936	0	0
172032	0	0
176128	0	0
180224	0	0
184320	0	0
188416	0	0
192512	0	0
196608	0	0
200704	0	0
204800	0	0
208896	0	0
212992	0	0
217088	0	0
221184	0	0
225280	0	0
229376	0	0
233472	0	0
237568	0	0
241664	0	0
245760	0	0
249856	0	0
253952	0	0
258048	0	0
262144	0	0
270336	0	0
278528	0	0
286720	0	0
294912	0	0
303104	0	0
311296	0	0
319488	0	0
327680	0	0
335872	0	0
344064	0	0
352256	0	0
360448	0	0
368640	0	0
376832	0	0
385024	0	0
393216	0	0
401408	0	0
409600	0	0
417792	0	0
425984	0	0
434176	0	0
442368	0	0
450560	0	0
458752	0	0
466944	0	0
475136	0	0
483328	0	0
491520	0	0
499712	0	0
507904	0	0
516096	0	0
524288	0	0
540672	0	0
557056	0	0
573440	0	0
589824	0	0
606208	0	0
622592	0	0
638976	0	0
655360	0	0
671744	0	0
688128	0	0
704512	0	0
720896	0	0
737280	0	0
753664	0	0
770048	0	0
786432	0	0
802816	0	0
819200	0	0
835584	0	0
851968	0	0
868352	0	0
884736	0	0
901120	0	0
917504	0	0
933888	0	0
950272	0	0
966656	0	0
983040	0	0
999424	0	0
1015808	0	0
1032192	0	0
1048576	0	0
1081344	0	0
1114112	0	0
1146880	0	0
1179648	0	0
1212416	0	0
1245184	0	0
1277952	0	0
1310720	0	0
1343488	0	0
1376256	0	0
1409024	0	0
1441792	0	0
1474560	0	0
1507328	0	0
1540096	0	0
1572864	0	0
1605632	0	0
1638400	0	0
1671168	0	0
1703936	0	0
1736704	0	0
1769472	0	0
1802240	0	0
1835008	0	0
1867776	0	0
1900544	0	0
1933312	0	0
1966080	0	0
1998848	0	0
2031616	0	0
2064384	0	0
2097152	0	0
2162688	0	0
2228224	0	0
2293760	0	0
2359296	0	0
2424832	0	0
2490368	0	0
2555904	0	0
2621440	0	0
2686976	0	0
2752512	0	0
2818048	0	0
2883584	0	0
2949120	0	0
3014656	0	0
3080192	0	0
3145728	0	0
3211264	0	0
3276800	0	0
3342336	0	0
3407872	0	0
3473408	0	0
3538944	0	0
3604480	0	0
3670016	0	0
3735552	0	0
3801088	0	0
3866624	0	0
3932160	0	0
3997696	0	0
4063232	0	0
4128768	0	0
4194304	0	0
4325376	0	0
4456448	0	0
4587520	0	0
4718592	0	0
4849664	0	0
4980736	0	0
5111808	0	0
5242880	0	0
5373952	0	0
5505024	0	0
5636096	0	0
5767168	0	0
5898240	0	0
6029312	0	0
6160384	0	0
6291456	0	0
6422528	0	0
6553600	0	0
6684672	0	0
6815744	0	0
6946816	0	0
7077888	0	0
7208960	0	0
7340032	0	0
7471104	0	0
7602176	0	0
7733248	0	0
7864320	0	0
7995392	0	0
8126464	0	0
8257536	0	0
8388608	0	0
8650752	0	0
8912896	0	0
9175040	0	0
9437184	0	0
9699328	0	0
9961472	0	0
10223616	0	0
10485760	0	0
10747904	0	0
11010048	0	0
11272192	0	0
11534336	0	0
11796480	0	0
12058624	0	0
12320768	0	0
12582912	0	0
12845056	0	0
13107200	0	0
13369344	0	0
13631488	0	0
13893632	0	0
14155776	0	0
14417920	0	0
14680064	0	0
14942208	0	0
15204352	0	0
15466496	0	0
15728640	0	0
15990784	0	0
16252928	0	0
16515072	0	0
16777216	0	0
17301504	0	0
17825792	0	0
18350080	0	0
18874368	0	0
19398656	0	0
19922944	0	0
20447232	0	0
20971520	0	0
21495808	0	0
22020096	0	0
22544384	0	0
23068672	0	0
23592960	0	0
24117248	0	0
24641536	0	0
25165824	0	0
25690112	0	0
26214400	0	0
26738688	0	0
27262976	0	0
27787264	0	0
28311552	0	0
28835840	0	0
29360128	0	0
29884416	0	0
30408704	0	0
30932992	0	0
31457280	0	0
31981568	0	0
32505856	0	0
33030144	0	0
33554432	0	0
34603008	0	0
35651584	0	0
36700160	0	0
37748736	0	0
38797312	0	0
39845888	0	0
40894464	0	0
41943040	0	0
42991616	0	0
44040192	0	0
45088768	0	0
46137344	0	0
47185920	0	0
48234496	0	0
49283072	0	0
50331648	0	0
51380224	0	0
52428800	0	0
53477376	0	0
54525952	0	0
55574528	0	0
56623104	0	0
57671680	0	0
58720256	0	0
59768832	0	0
60817408	0	0
61865984	0	0
62914560	0	0
63963136	0	0
65011712	0	0
66060288	0	0
67108864	0	0
69206016	0	0
71303168	0	0
73400320	0	0
75497472	0	0
77594624	0	0
79691776	0	0
81788928	0	0
83886080	0	0
85983232	0	0
88080384	0	0
90177536	0	0
92274688	0	0
94371840	0	0
96468992	0	0
98566144	0	0
100663296	0	0
102760448	0	0
104857600	0	0
106954752	0	0
109051904	0	0
111149056	0	0
113246208	0	0
115343360	0	0
117440512	0	0
119537664	0	0
121634816	0	0
123731968	0	0
125829120	0	0
127926272	0	0
130023424	0	0
132120576	0	0
134217728	0	0
138412032	0	0
142606336	0	0
146800640	0	0
150994944	0	0
155189248	0	0
159383552	0	0
163577856	0	0
167772160	0	0
171966464	0	0
176160768	0	0
180355072	0	0
184549376	0	0
188743680	0	0
192937984	0	0
197132288	0	0
201326592	0	0
205520896	0	0
209715200	0	0
213909504	0	0
218103808	0	0
222298112	0	0
226492416	0	0
230686720	0	0
234881024	0	0
239075328	0	0
243269632	0	0
247463936	0	0
251658240	0	0
255852544	0	0
260046848	0	0
264241152	0	0
268435456	0	0
276824064	0	0
285212672	0	0
293601280	0	0
301989888	0	0
310378496	0	0
318767104	0	0
327155712	0	0
335544320	0	0
343932928	0	0
352321536	0	0
360710144	0	0
369098752	0	0
377487360	0	0
385875968	0	0
394264576	0	0
402653184	0	0
411041792	0	0
419430400	0	0
427819008	0	0
436207616	0	0
444596224	0	0
452984832	0	0
461373440	0	0
469762048	0	0
478150656	0	0
486539264	0	0
494927872	0	0
503316480	0	0
511705088	0	0
520093696	0	0
528482304	0	0
536870912	0	0
553648128	0	0
570425344	0	0
587202560	0	0
603979776	0	0
620756992	0	0
637534208	0	0
654311424	0	0
671088640	0	0
687865856	0	0
704643072	0	0
721420288	0	0
738197504	0	0
754974720	0	0
771751936	0	0
788529152	0	0
805306368	0	0
822083584	0	0
838860800	0	0
855638016	0	0
872415232	0	0
889192448	0	0
905969664	0	0
922746880	0	0
939524096	0	0
956301312	0	0
973078528	0	0
989855744	0	0
1006632960	0	0
1023410176	0	0
1040187392	0	0
1056964608	0	0
1073741824	0	0
1107296256	0	0
1140850688	0	0
1174405120	0	0
1207959552	0	0
1241513984	0	0
1275068416	0	0
1308622848	0	0
1342177280	0	0
1375731712	0	0
1409286144	0	0
1442840576	0	0
1476395008	0	0
1509949440	0	0
1543503872	0	0
1577058304	0	0
1610612736	0	0
1644167168	0	0
1677721600	0	0
1711276032	0	0
1744830464	0	0
1778384896	0	0
1811939328	0	0
1845493760	0	0
1879048192	0	0
1912602624	0	0
1946157056	0	0
1979711488	0	0
2013265920	0	0
2046820352	0	0
2080374784	0	0
2113929216	0	0
2147483648	0	0
2214592512	0	0
2281701376	0	0
2348810240	0	0
2415919104	0	0
2483027968	0	0
2550136832	0	0
2617245696	0	0
2684354560	0	0
2751463424	0	0
2818572288	0	0
2885681152	0	0
2952790016	0	0
3019898880	0	0
3087007744	0	0
3154116608	0	0
3221225472	0	0
3288334336	0	0
3355443200	0	0
3422552064	0	0
3489660928	0	0
3556769792	0	0
3623878656	0	0
3690987520	0	0
3758096384	0	0
3825205248	0	0
3892314112	0	0
3959422976	0	0
4026531840	0	0
4093640704	0	0
4160749568	0	0
4227858432	0	0
~~~~~~~~~~Reuse Distance Profiler output end~~~~~~~~~~


DRAM Statistics
 CHANNEL 0
 RQ ROW_BUFFER_HIT:      23136  ROW_BUFFER_MISS:    7769708
 DBUS AVG_CONGESTED_CYCLE:    3.99179
 WQ ROW_BUFFER_HIT:     244534  ROW_BUFFER_MISS:    2036628  FULL:          0


CPU 0 Branch Prediction Accuracy: 98.3506% MPKI: 0.0213753 Average ROB Occupancy at Mispredict: 348.566
Branch type MPKI
BRANCH_DIRECT_JUMP: 0
BRANCH_INDIRECT: 0
BRANCH_CONDITIONAL: 0.0213753
BRANCH_DIRECT_CALL: 0
BRANCH_INDIRECT_CALL: 0
BRANCH_RETURN: 0

