
*** ChampSim Multicore Out-of-Order Simulator ***

Warmup Instructions: 50000000
Simulation Instructions: 1500000000
Number of CPUs: 1
Off-chip DRAM Size: 4 GiB Channels: 1 Width: 64-bit Data Rate: 3200 MT/s

VirtualMemory physical capacity: 8588881920 num_ppages: 2096895
VirtualMemory page size: 4096 log2_page_size: 12

CPU 0 runs traces/445.gobmk-30B.champsimtrace.xz
CPU 0 Bimodal branch predictor
Basic BTB sets: 1024 ways: 8 indirect buffer size: 4096 RAS size: 64
Initializing LRU.
Initializing LRU.
Initializing LRU.
Initializing LRU.
Initializing rdLRU.
Initializing LRU.
Initializing LRU.
Heartbeat CPU 0 instructions: 2000001 cycles: 512942 heartbeat IPC: 3.89908 cumulative IPC: 3.89908 (Simulation time: 0 hr 0 min 56 sec) 
Heartbeat CPU 0 instructions: 4000003 cycles: 1015840 heartbeat IPC: 3.97695 cumulative IPC: 3.93763 (Simulation time: 0 hr 1 min 58 sec) 
Heartbeat CPU 0 instructions: 6000000 cycles: 1518535 heartbeat IPC: 3.97855 cumulative IPC: 3.95118 (Simulation time: 0 hr 3 min 1 sec) 
Heartbeat CPU 0 instructions: 8000000 cycles: 2029188 heartbeat IPC: 3.91655 cumulative IPC: 3.94246 (Simulation time: 0 hr 4 min 4 sec) 
Heartbeat CPU 0 instructions: 10000002 cycles: 2535550 heartbeat IPC: 3.94975 cumulative IPC: 3.94392 (Simulation time: 0 hr 5 min 6 sec) 
Heartbeat CPU 0 instructions: 12000000 cycles: 3038183 heartbeat IPC: 3.97904 cumulative IPC: 3.94973 (Simulation time: 0 hr 6 min 8 sec) 
Heartbeat CPU 0 instructions: 14000001 cycles: 3543833 heartbeat IPC: 3.95531 cumulative IPC: 3.95053 (Simulation time: 0 hr 7 min 6 sec) 
Heartbeat CPU 0 instructions: 16000003 cycles: 4057541 heartbeat IPC: 3.89327 cumulative IPC: 3.94328 (Simulation time: 0 hr 8 min 7 sec) 
Heartbeat CPU 0 instructions: 18000002 cycles: 4560316 heartbeat IPC: 3.97792 cumulative IPC: 3.9471 (Simulation time: 0 hr 9 min 11 sec) 
Heartbeat CPU 0 instructions: 20000000 cycles: 5071304 heartbeat IPC: 3.91398 cumulative IPC: 3.94376 (Simulation time: 0 hr 10 min 16 sec) 
Heartbeat CPU 0 instructions: 22000001 cycles: 5578404 heartbeat IPC: 3.944 cumulative IPC: 3.94378 (Simulation time: 0 hr 11 min 18 sec) 
Heartbeat CPU 0 instructions: 24000002 cycles: 6084966 heartbeat IPC: 3.94819 cumulative IPC: 3.94415 (Simulation time: 0 hr 12 min 18 sec) 
Heartbeat CPU 0 instructions: 26000000 cycles: 6598091 heartbeat IPC: 3.89768 cumulative IPC: 3.94053 (Simulation time: 0 hr 13 min 14 sec) 
Heartbeat CPU 0 instructions: 28000003 cycles: 7100833 heartbeat IPC: 3.97819 cumulative IPC: 3.9432 (Simulation time: 0 hr 14 min 17 sec) 
Heartbeat CPU 0 instructions: 30000000 cycles: 7604430 heartbeat IPC: 3.97142 cumulative IPC: 3.94507 (Simulation time: 0 hr 15 min 19 sec) 
Heartbeat CPU 0 instructions: 32000001 cycles: 8107866 heartbeat IPC: 3.9727 cumulative IPC: 3.94678 (Simulation time: 0 hr 16 min 19 sec) 
Heartbeat CPU 0 instructions: 34000001 cycles: 8610851 heartbeat IPC: 3.97626 cumulative IPC: 3.94851 (Simulation time: 0 hr 17 min 22 sec) 
Heartbeat CPU 0 instructions: 36000000 cycles: 9119629 heartbeat IPC: 3.93099 cumulative IPC: 3.94753 (Simulation time: 0 hr 18 min 25 sec) 
Heartbeat CPU 0 instructions: 38000002 cycles: 9629287 heartbeat IPC: 3.9242 cumulative IPC: 3.94629 (Simulation time: 0 hr 19 min 27 sec) 
Heartbeat CPU 0 instructions: 40000001 cycles: 10143684 heartbeat IPC: 3.88805 cumulative IPC: 3.94334 (Simulation time: 0 hr 20 min 26 sec) 
Heartbeat CPU 0 instructions: 42000002 cycles: 10646350 heartbeat IPC: 3.97879 cumulative IPC: 3.94501 (Simulation time: 0 hr 21 min 29 sec) 
Heartbeat CPU 0 instructions: 44000001 cycles: 11149686 heartbeat IPC: 3.97349 cumulative IPC: 3.9463 (Simulation time: 0 hr 22 min 30 sec) 
Heartbeat CPU 0 instructions: 46000003 cycles: 11652874 heartbeat IPC: 3.97466 cumulative IPC: 3.94752 (Simulation time: 0 hr 23 min 30 sec) 
Heartbeat CPU 0 instructions: 48000002 cycles: 12154614 heartbeat IPC: 3.98613 cumulative IPC: 3.94912 (Simulation time: 0 hr 24 min 34 sec) 
Heartbeat CPU 0 instructions: 50000001 cycles: 12658498 heartbeat IPC: 3.96917 cumulative IPC: 3.94992 (Simulation time: 0 hr 25 min 36 sec) 

Warmup complete CPU 0 instructions: 50000001 cycles: 12658498 (Simulation time: 0 hr 25 min 36 sec) 

Heartbeat CPU 0 instructions: 52000000 cycles: 15075399 heartbeat IPC: 0.827506 cumulative IPC: 0.827506 (Simulation time: 0 hr 26 min 42 sec) 

Region of Interest Statistics
cpu0_DTLB TOTAL     ACCESS:     456991  HIT:     456370  MISS:        621
cpu0_DTLB LOAD      ACCESS:     299662  HIT:     299141  MISS:        521
cpu0_DTLB RFO       ACCESS:     157329  HIT:     157229  MISS:        100
cpu0_DTLB PREFETCH  ACCESS:          0  HIT:          0  MISS:          0
cpu0_DTLB WRITEBACK ACCESS:          0  HIT:          0  MISS:          0
cpu0_ITLB TOTAL     ACCESS:     171800  HIT:     171800  MISS:          0
cpu0_ITLB LOAD      ACCESS:     171800  HIT:     171800  MISS:          0
cpu0_ITLB RFO       ACCESS:          0  HIT:          0  MISS:          0
cpu0_ITLB PREFETCH  ACCESS:          0  HIT:          0  MISS:          0
cpu0_ITLB WRITEBACK ACCESS:          0  HIT:          0  MISS:          0
cpu0_L1I TOTAL     ACCESS:     260861  HIT:     254091  MISS:       6770
cpu0_L1I LOAD      ACCESS:     260861  HIT:     254091  MISS:       6770
cpu0_L1I RFO       ACCESS:          0  HIT:          0  MISS:          0
cpu0_L1I PREFETCH  ACCESS:          0  HIT:          0  MISS:          0
cpu0_L1I WRITEBACK ACCESS:          0  HIT:          0  MISS:          0
cpu0_STLB TOTAL     ACCESS:        621  HIT:        465  MISS:        156
cpu0_STLB LOAD      ACCESS:        521  HIT:        369  MISS:        152
cpu0_STLB RFO       ACCESS:        100  HIT:         96  MISS:          4
cpu0_STLB PREFETCH  ACCESS:          0  HIT:          0  MISS:          0
cpu0_STLB WRITEBACK ACCESS:          0  HIT:          0  MISS:          0
cpu0_L1D TOTAL     ACCESS:     590735  HIT:     588143  MISS:       2592
cpu0_L1D LOAD      ACCESS:     296519  HIT:     295177  MISS:       1342
cpu0_L1D RFO       ACCESS:     294060  HIT:     292822  MISS:       1238
cpu0_L1D PREFETCH  ACCESS:          0  HIT:          0  MISS:          0
cpu0_L1D WRITEBACK ACCESS:          0  HIT:          0  MISS:          0
cpu0_L2C TOTAL     ACCESS:      11372  HIT:      10726  MISS:        646
cpu0_L2C LOAD      ACCESS:       8112  HIT:       7531  MISS:        581
cpu0_L2C RFO       ACCESS:       1238  HIT:       1174  MISS:         64
cpu0_L2C PREFETCH  ACCESS:          0  HIT:          0  MISS:          0
cpu0_L2C WRITEBACK ACCESS:       2010  HIT:       2009  MISS:          1
LLC TOTAL     ACCESS:       1013  HIT:         46  MISS:        967
LLC LOAD      ACCESS:        581  HIT:          6  MISS:        575
LLC RFO       ACCESS:         64  HIT:          3  MISS:         61
LLC PREFETCH  ACCESS:          0  HIT:          0  MISS:          0
LLC WRITEBACK ACCESS:        368  HIT:         37  MISS:        331
Heartbeat CPU 0 instructions: 54000003 cycles: 17610046 heartbeat IPC: 0.789066 cumulative IPC: 0.807829 (Simulation time: 0 hr 27 min 46 sec) 

Region of Interest Statistics
cpu0_DTLB TOTAL     ACCESS:     914768  HIT:     912959  MISS:       1809
cpu0_DTLB LOAD      ACCESS:     607699  HIT:     606232  MISS:       1467
cpu0_DTLB RFO       ACCESS:     307069  HIT:     306727  MISS:        342
cpu0_DTLB PREFETCH  ACCESS:          0  HIT:          0  MISS:          0
cpu0_DTLB WRITEBACK ACCESS:          0  HIT:          0  MISS:          0
cpu0_ITLB TOTAL     ACCESS:     347698  HIT:     347696  MISS:          2
cpu0_ITLB LOAD      ACCESS:     347698  HIT:     347696  MISS:          2
cpu0_ITLB RFO       ACCESS:          0  HIT:          0  MISS:          0
cpu0_ITLB PREFETCH  ACCESS:          0  HIT:          0  MISS:          0
cpu0_ITLB WRITEBACK ACCESS:          0  HIT:          0  MISS:          0
cpu0_L1I TOTAL     ACCESS:     505705  HIT:     489135  MISS:      16570
cpu0_L1I LOAD      ACCESS:     505705  HIT:     489135  MISS:      16570
cpu0_L1I RFO       ACCESS:          0  HIT:          0  MISS:          0
cpu0_L1I PREFETCH  ACCESS:          0  HIT:          0  MISS:          0
cpu0_L1I WRITEBACK ACCESS:          0  HIT:          0  MISS:          0
cpu0_STLB TOTAL     ACCESS:       1811  HIT:       1467  MISS:        344
cpu0_STLB LOAD      ACCESS:       1469  HIT:       1131  MISS:        338
cpu0_STLB RFO       ACCESS:        342  HIT:        336  MISS:          6
cpu0_STLB PREFETCH  ACCESS:          0  HIT:          0  MISS:          0
cpu0_STLB WRITEBACK ACCESS:          0  HIT:          0  MISS:          0
cpu0_L1D TOTAL     ACCESS:    1173811  HIT:    1166738  MISS:       7073
cpu0_L1D LOAD      ACCESS:     603779  HIT:     599486  MISS:       4293
cpu0_L1D RFO       ACCESS:     569688  HIT:     566932  MISS:       2756
cpu0_L1D PREFETCH  ACCESS:          0  HIT:          0  MISS:          0
cpu0_L1D WRITEBACK ACCESS:          0  HIT:          0  MISS:          0
cpu0_L2C TOTAL     ACCESS:      27771  HIT:      26046  MISS:       1725
cpu0_L2C LOAD      ACCESS:      20863  HIT:      19258  MISS:       1605
cpu0_L2C RFO       ACCESS:       2756  HIT:       2644  MISS:        112
cpu0_L2C PREFETCH  ACCESS:          0  HIT:          0  MISS:          0
cpu0_L2C WRITEBACK ACCESS:       4128  HIT:       4120  MISS:          8
LLC TOTAL     ACCESS:       2745  HIT:        135  MISS:       2610
LLC LOAD      ACCESS:       1605  HIT:         27  MISS:       1578
LLC RFO       ACCESS:        112  HIT:         10  MISS:        102
LLC PREFETCH  ACCESS:          0  HIT:          0  MISS:          0
LLC WRITEBACK ACCESS:       1028  HIT:         98  MISS:        930
Heartbeat CPU 0 instructions: 56000004 cycles: 20027469 heartbeat IPC: 0.827328 cumulative IPC: 0.814225 (Simulation time: 0 hr 28 min 48 sec) 

Region of Interest Statistics
cpu0_DTLB TOTAL     ACCESS:    1366367  HIT:    1363584  MISS:       2783
cpu0_DTLB LOAD      ACCESS:     913956  HIT:     911673  MISS:       2283
cpu0_DTLB RFO       ACCESS:     452411  HIT:     451911  MISS:        500
cpu0_DTLB PREFETCH  ACCESS:          0  HIT:          0  MISS:          0
cpu0_DTLB WRITEBACK ACCESS:          0  HIT:          0  MISS:          0
cpu0_ITLB TOTAL     ACCESS:     522258  HIT:     522235  MISS:         23
cpu0_ITLB LOAD      ACCESS:     522258  HIT:     522235  MISS:         23
cpu0_ITLB RFO       ACCESS:          0  HIT:          0  MISS:          0
cpu0_ITLB PREFETCH  ACCESS:          0  HIT:          0  MISS:          0
cpu0_ITLB WRITEBACK ACCESS:          0  HIT:          0  MISS:          0
cpu0_L1I TOTAL     ACCESS:     741983  HIT:     717535  MISS:      24448
cpu0_L1I LOAD      ACCESS:     741983  HIT:     717535  MISS:      24448
cpu0_L1I RFO       ACCESS:          0  HIT:          0  MISS:          0
cpu0_L1I PREFETCH  ACCESS:          0  HIT:          0  MISS:          0
cpu0_L1I WRITEBACK ACCESS:          0  HIT:          0  MISS:          0
cpu0_STLB TOTAL     ACCESS:       2806  HIT:       2287  MISS:        519
cpu0_STLB LOAD      ACCESS:       2306  HIT:       1795  MISS:        511
cpu0_STLB RFO       ACCESS:        500  HIT:        492  MISS:          8
cpu0_STLB PREFETCH  ACCESS:          0  HIT:          0  MISS:          0
cpu0_STLB WRITEBACK ACCESS:          0  HIT:          0  MISS:          0
cpu0_L1D TOTAL     ACCESS:    1742647  HIT:    1731348  MISS:      11299
cpu0_L1D LOAD      ACCESS:     903890  HIT:     896680  MISS:       7210
cpu0_L1D RFO       ACCESS:     838238  HIT:     834184  MISS:       4054
cpu0_L1D PREFETCH  ACCESS:          0  HIT:          0  MISS:          0
cpu0_L1D WRITEBACK ACCESS:          0  HIT:          0  MISS:          0
cpu0_L2C TOTAL     ACCESS:      41940  HIT:      39486  MISS:       2454
cpu0_L2C LOAD      ACCESS:      31658  HIT:      29368  MISS:       2290
cpu0_L2C RFO       ACCESS:       4054  HIT:       3899  MISS:        155
cpu0_L2C PREFETCH  ACCESS:          0  HIT:          0  MISS:          0
cpu0_L2C WRITEBACK ACCESS:       6193  HIT:       6184  MISS:          9
LLC TOTAL     ACCESS:       3892  HIT:        207  MISS:       3685
LLC LOAD      ACCESS:       2290  HIT:         61  MISS:       2229
LLC RFO       ACCESS:        155  HIT:         11  MISS:        144
LLC PREFETCH  ACCESS:          0  HIT:          0  MISS:          0
LLC WRITEBACK ACCESS:       1447  HIT:        135  MISS:       1312
Heartbeat CPU 0 instructions: 58000001 cycles: 22471595 heartbeat IPC: 0.818287 cumulative IPC: 0.815237 (Simulation time: 0 hr 29 min 51 sec) 

Region of Interest Statistics
cpu0_DTLB TOTAL     ACCESS:    1816574  HIT:    1812719  MISS:       3855
cpu0_DTLB LOAD      ACCESS:    1216636  HIT:    1213508  MISS:       3128
cpu0_DTLB RFO       ACCESS:     599938  HIT:     599211  MISS:        727
cpu0_DTLB PREFETCH  ACCESS:          0  HIT:          0  MISS:          0
cpu0_DTLB WRITEBACK ACCESS:          0  HIT:          0  MISS:          0
cpu0_ITLB TOTAL     ACCESS:     698201  HIT:     698168  MISS:         33
cpu0_ITLB LOAD      ACCESS:     698201  HIT:     698168  MISS:         33
cpu0_ITLB RFO       ACCESS:          0  HIT:          0  MISS:          0
cpu0_ITLB PREFETCH  ACCESS:          0  HIT:          0  MISS:          0
cpu0_ITLB WRITEBACK ACCESS:          0  HIT:          0  MISS:          0
cpu0_L1I TOTAL     ACCESS:     981897  HIT:     948883  MISS:      33014
cpu0_L1I LOAD      ACCESS:     981897  HIT:     948883  MISS:      33014
cpu0_L1I RFO       ACCESS:          0  HIT:          0  MISS:          0
cpu0_L1I PREFETCH  ACCESS:          0  HIT:          0  MISS:          0
cpu0_L1I WRITEBACK ACCESS:          0  HIT:          0  MISS:          0
cpu0_STLB TOTAL     ACCESS:       3888  HIT:       3204  MISS:        684
cpu0_STLB LOAD      ACCESS:       3161  HIT:       2489  MISS:        672
cpu0_STLB RFO       ACCESS:        727  HIT:        715  MISS:         12
cpu0_STLB PREFETCH  ACCESS:          0  HIT:          0  MISS:          0
cpu0_STLB WRITEBACK ACCESS:          0  HIT:          0  MISS:          0
cpu0_L1D TOTAL     ACCESS:    2320756  HIT:    2305436  MISS:      15320
cpu0_L1D LOAD      ACCESS:    1207022  HIT:    1197078  MISS:       9944
cpu0_L1D RFO       ACCESS:    1113050  HIT:    1107724  MISS:       5326
cpu0_L1D PREFETCH  ACCESS:          0  HIT:          0  MISS:          0
cpu0_L1D WRITEBACK ACCESS:          0  HIT:          0  MISS:          0
cpu0_L2C TOTAL     ACCESS:      56428  HIT:      53229  MISS:       3199
cpu0_L2C LOAD      ACCESS:      42958  HIT:      39976  MISS:       2982
cpu0_L2C RFO       ACCESS:       5326  HIT:       5120  MISS:        206
cpu0_L2C PREFETCH  ACCESS:          0  HIT:          0  MISS:          0
cpu0_L2C WRITEBACK ACCESS:       8094  HIT:       8083  MISS:         11
LLC TOTAL     ACCESS:       5141  HIT:        268  MISS:       4873
LLC LOAD      ACCESS:       2982  HIT:         75  MISS:       2907
LLC RFO       ACCESS:        206  HIT:         15  MISS:        191
LLC PREFETCH  ACCESS:          0  HIT:          0  MISS:          0
LLC WRITEBACK ACCESS:       1953  HIT:        178  MISS:       1775
Heartbeat CPU 0 instructions: 60000001 cycles: 24960078 heartbeat IPC: 0.803702 cumulative IPC: 0.812904 (Simulation time: 0 hr 30 min 54 sec) 

Region of Interest Statistics
cpu0_DTLB TOTAL     ACCESS:    2239719  HIT:    2235443  MISS:       4276
cpu0_DTLB LOAD      ACCESS:    1546221  HIT:    1542770  MISS:       3451
cpu0_DTLB RFO       ACCESS:     693498  HIT:     692673  MISS:        825
cpu0_DTLB PREFETCH  ACCESS:          0  HIT:          0  MISS:          0
cpu0_DTLB WRITEBACK ACCESS:          0  HIT:          0  MISS:          0
cpu0_ITLB TOTAL     ACCESS:     900717  HIT:     900679  MISS:         38
cpu0_ITLB LOAD      ACCESS:     900717  HIT:     900679  MISS:         38
cpu0_ITLB RFO       ACCESS:          0  HIT:          0  MISS:          0
cpu0_ITLB PREFETCH  ACCESS:          0  HIT:          0  MISS:          0
cpu0_ITLB WRITEBACK ACCESS:          0  HIT:          0  MISS:          0
cpu0_L1I TOTAL     ACCESS:    1068077  HIT:    1031780  MISS:      36297
cpu0_L1I LOAD      ACCESS:    1068077  HIT:    1031780  MISS:      36297
cpu0_L1I RFO       ACCESS:          0  HIT:          0  MISS:          0
cpu0_L1I PREFETCH  ACCESS:          0  HIT:          0  MISS:          0
cpu0_L1I WRITEBACK ACCESS:          0  HIT:          0  MISS:          0
cpu0_STLB TOTAL     ACCESS:       4314  HIT:       3514  MISS:        800
cpu0_STLB LOAD      ACCESS:       3489  HIT:       2715  MISS:        774
cpu0_STLB RFO       ACCESS:        825  HIT:        799  MISS:         26
cpu0_STLB PREFETCH  ACCESS:          0  HIT:          0  MISS:          0
cpu0_STLB WRITEBACK ACCESS:          0  HIT:          0  MISS:          0
cpu0_L1D TOTAL     ACCESS:    2795089  HIT:    2776296  MISS:      18793
cpu0_L1D LOAD      ACCESS:    1535726  HIT:    1523476  MISS:      12250
cpu0_L1D RFO       ACCESS:    1258565  HIT:    1252078  MISS:       6487
cpu0_L1D PREFETCH  ACCESS:          0  HIT:          0  MISS:          0
cpu0_L1D WRITEBACK ACCESS:          0  HIT:          0  MISS:          0
cpu0_L2C TOTAL     ACCESS:      64984  HIT:      59782  MISS:       5202
cpu0_L2C LOAD      ACCESS:      48547  HIT:      44012  MISS:       4535
cpu0_L2C RFO       ACCESS:       6487  HIT:       5838  MISS:        649
cpu0_L2C PREFETCH  ACCESS:          0  HIT:          0  MISS:          0
cpu0_L2C WRITEBACK ACCESS:       9894  HIT:       9876  MISS:         18
LLC TOTAL     ACCESS:       8406  HIT:        572  MISS:       7834
LLC LOAD      ACCESS:       4535  HIT:        196  MISS:       4339
LLC RFO       ACCESS:        649  HIT:        146  MISS:        503
LLC PREFETCH  ACCESS:          0  HIT:          0  MISS:          0
LLC WRITEBACK ACCESS:       3222  HIT:        230  MISS:       2992
Heartbeat CPU 0 instructions: 62000002 cycles: 27461949 heartbeat IPC: 0.799402 cumulative IPC: 0.810622 (Simulation time: 0 hr 32 min 1 sec) 

Region of Interest Statistics
cpu0_DTLB TOTAL     ACCESS:    2685788  HIT:    2680529  MISS:       5259
cpu0_DTLB LOAD      ACCESS:    1842280  HIT:    1838012  MISS:       4268
cpu0_DTLB RFO       ACCESS:     843508  HIT:     842517  MISS:        991
cpu0_DTLB PREFETCH  ACCESS:          0  HIT:          0  MISS:          0
cpu0_DTLB WRITEBACK ACCESS:          0  HIT:          0  MISS:          0
cpu0_ITLB TOTAL     ACCESS:    1073939  HIT:    1073877  MISS:         62
cpu0_ITLB LOAD      ACCESS:    1073939  HIT:    1073877  MISS:         62
cpu0_ITLB RFO       ACCESS:          0  HIT:          0  MISS:          0
cpu0_ITLB PREFETCH  ACCESS:          0  HIT:          0  MISS:          0
cpu0_ITLB WRITEBACK ACCESS:          0  HIT:          0  MISS:          0
cpu0_L1I TOTAL     ACCESS:    1308838  HIT:    1264692  MISS:      44146
cpu0_L1I LOAD      ACCESS:    1308838  HIT:    1264692  MISS:      44146
cpu0_L1I RFO       ACCESS:          0  HIT:          0  MISS:          0
cpu0_L1I PREFETCH  ACCESS:          0  HIT:          0  MISS:          0
cpu0_L1I WRITEBACK ACCESS:          0  HIT:          0  MISS:          0
cpu0_STLB TOTAL     ACCESS:       5321  HIT:       4226  MISS:       1095
cpu0_STLB LOAD      ACCESS:       4330  HIT:       3276  MISS:       1054
cpu0_STLB RFO       ACCESS:        991  HIT:        950  MISS:         41
cpu0_STLB PREFETCH  ACCESS:          0  HIT:          0  MISS:          0
cpu0_STLB WRITEBACK ACCESS:          0  HIT:          0  MISS:          0
cpu0_L1D TOTAL     ACCESS:    3364106  HIT:    3341485  MISS:      22621
cpu0_L1D LOAD      ACCESS:    1829598  HIT:    1814985  MISS:      14613
cpu0_L1D RFO       ACCESS:    1533423  HIT:    1525480  MISS:       7943
cpu0_L1D PREFETCH  ACCESS:          0  HIT:          0  MISS:          0
cpu0_L1D WRITEBACK ACCESS:          0  HIT:          0  MISS:          0
cpu0_L2C TOTAL     ACCESS:      78755  HIT:      71540  MISS:       7215
cpu0_L2C LOAD      ACCESS:      58759  HIT:      52629  MISS:       6130
cpu0_L2C RFO       ACCESS:       7943  HIT:       6876  MISS:       1067
cpu0_L2C PREFETCH  ACCESS:          0  HIT:          0  MISS:          0
cpu0_L2C WRITEBACK ACCESS:      11988  HIT:      11970  MISS:         18
LLC TOTAL     ACCESS:      11542  HIT:        796  MISS:      10746
LLC LOAD      ACCESS:       6130  HIT:        206  MISS:       5924
LLC RFO       ACCESS:       1067  HIT:        302  MISS:        765
LLC PREFETCH  ACCESS:          0  HIT:          0  MISS:          0
LLC WRITEBACK ACCESS:       4345  HIT:        288  MISS:       4057
Heartbeat CPU 0 instructions: 64000000 cycles: 29991799 heartbeat IPC: 0.79056 cumulative IPC: 0.807694 (Simulation time: 0 hr 33 min 4 sec) 

Region of Interest Statistics
cpu0_DTLB TOTAL     ACCESS:    3142507  HIT:    3136396  MISS:       6111
cpu0_DTLB LOAD      ACCESS:    2146020  HIT:    2140985  MISS:       5035
cpu0_DTLB RFO       ACCESS:     996487  HIT:     995411  MISS:       1076
cpu0_DTLB PREFETCH  ACCESS:          0  HIT:          0  MISS:          0
cpu0_DTLB WRITEBACK ACCESS:          0  HIT:          0  MISS:          0
cpu0_ITLB TOTAL     ACCESS:    1248746  HIT:    1248684  MISS:         62
cpu0_ITLB LOAD      ACCESS:    1248746  HIT:    1248684  MISS:         62
cpu0_ITLB RFO       ACCESS:          0  HIT:          0  MISS:          0
cpu0_ITLB PREFETCH  ACCESS:          0  HIT:          0  MISS:          0
cpu0_ITLB WRITEBACK ACCESS:          0  HIT:          0  MISS:          0
cpu0_L1I TOTAL     ACCESS:    1572746  HIT:    1521458  MISS:      51288
cpu0_L1I LOAD      ACCESS:    1572746  HIT:    1521458  MISS:      51288
cpu0_L1I RFO       ACCESS:          0  HIT:          0  MISS:          0
cpu0_L1I PREFETCH  ACCESS:          0  HIT:          0  MISS:          0
cpu0_L1I WRITEBACK ACCESS:          0  HIT:          0  MISS:          0
cpu0_STLB TOTAL     ACCESS:       6173  HIT:       4829  MISS:       1344
cpu0_STLB LOAD      ACCESS:       5097  HIT:       3801  MISS:       1296
cpu0_STLB RFO       ACCESS:       1076  HIT:       1028  MISS:         48
cpu0_STLB PREFETCH  ACCESS:          0  HIT:          0  MISS:          0
cpu0_STLB WRITEBACK ACCESS:          0  HIT:          0  MISS:          0
cpu0_L1D TOTAL     ACCESS:    3961741  HIT:    3936889  MISS:      24852
cpu0_L1D LOAD      ACCESS:    2136052  HIT:    2120042  MISS:      16010
cpu0_L1D RFO       ACCESS:    1824355  HIT:    1815581  MISS:       8774
cpu0_L1D PREFETCH  ACCESS:          0  HIT:          0  MISS:          0
cpu0_L1D WRITEBACK ACCESS:          0  HIT:          0  MISS:          0
cpu0_L2C TOTAL     ACCESS:      89874  HIT:      81528  MISS:       8346
cpu0_L2C LOAD      ACCESS:      67298  HIT:      60283  MISS:       7015
cpu0_L2C RFO       ACCESS:       8774  HIT:       7461  MISS:       1313
cpu0_L2C PREFETCH  ACCESS:          0  HIT:          0  MISS:          0
cpu0_L2C WRITEBACK ACCESS:      13734  HIT:      13716  MISS:         18
LLC TOTAL     ACCESS:      13330  HIT:        878  MISS:      12452
LLC LOAD      ACCESS:       7015  HIT:        217  MISS:       6798
LLC RFO       ACCESS:       1313  HIT:        344  MISS:        969
LLC PREFETCH  ACCESS:          0  HIT:          0  MISS:          0
LLC WRITEBACK ACCESS:       5002  HIT:        317  MISS:       4685
Heartbeat CPU 0 instructions: 66000001 cycles: 32446836 heartbeat IPC: 0.814652 cumulative IPC: 0.808557 (Simulation time: 0 hr 34 min 8 sec) 

Region of Interest Statistics
cpu0_DTLB TOTAL     ACCESS:    3599639  HIT:    3592915  MISS:       6724
cpu0_DTLB LOAD      ACCESS:    2444555  HIT:    2438962  MISS:       5593
cpu0_DTLB RFO       ACCESS:    1155084  HIT:    1153953  MISS:       1131
cpu0_DTLB PREFETCH  ACCESS:          0  HIT:          0  MISS:          0
cpu0_DTLB WRITEBACK ACCESS:          0  HIT:          0  MISS:          0
cpu0_ITLB TOTAL     ACCESS:    1419959  HIT:    1419897  MISS:         62
cpu0_ITLB LOAD      ACCESS:    1419959  HIT:    1419897  MISS:         62
cpu0_ITLB RFO       ACCESS:          0  HIT:          0  MISS:          0
cpu0_ITLB PREFETCH  ACCESS:          0  HIT:          0  MISS:          0
cpu0_ITLB WRITEBACK ACCESS:          0  HIT:          0  MISS:          0
cpu0_L1I TOTAL     ACCESS:    1830808  HIT:    1772878  MISS:      57930
cpu0_L1I LOAD      ACCESS:    1830808  HIT:    1772878  MISS:      57930
cpu0_L1I RFO       ACCESS:          0  HIT:          0  MISS:          0
cpu0_L1I PREFETCH  ACCESS:          0  HIT:          0  MISS:          0
cpu0_L1I WRITEBACK ACCESS:          0  HIT:          0  MISS:          0
cpu0_STLB TOTAL     ACCESS:       6786  HIT:       5296  MISS:       1490
cpu0_STLB LOAD      ACCESS:       5655  HIT:       4214  MISS:       1441
cpu0_STLB RFO       ACCESS:       1131  HIT:       1082  MISS:         49
cpu0_STLB PREFETCH  ACCESS:          0  HIT:          0  MISS:          0
cpu0_STLB WRITEBACK ACCESS:          0  HIT:          0  MISS:          0
cpu0_L1D TOTAL     ACCESS:    4553488  HIT:    4526645  MISS:      26843
cpu0_L1D LOAD      ACCESS:    2432273  HIT:    2415141  MISS:      17132
cpu0_L1D RFO       ACCESS:    2119735  HIT:    2110095  MISS:       9640
cpu0_L1D PREFETCH  ACCESS:          0  HIT:          0  MISS:          0
cpu0_L1D WRITEBACK ACCESS:          0  HIT:          0  MISS:          0
cpu0_L2C TOTAL     ACCESS:      99781  HIT:      90636  MISS:       9145
cpu0_L2C LOAD      ACCESS:      75062  HIT:      67309  MISS:       7753
cpu0_L2C RFO       ACCESS:       9640  HIT:       8266  MISS:       1374
cpu0_L2C PREFETCH  ACCESS:          0  HIT:          0  MISS:          0
cpu0_L2C WRITEBACK ACCESS:      15008  HIT:      14990  MISS:         18
LLC TOTAL     ACCESS:      14551  HIT:        907  MISS:      13644
LLC LOAD      ACCESS:       7753  HIT:        224  MISS:       7529
LLC RFO       ACCESS:       1374  HIT:        347  MISS:       1027
LLC PREFETCH  ACCESS:          0  HIT:          0  MISS:          0
LLC WRITEBACK ACCESS:       5424  HIT:        336  MISS:       5088
Heartbeat CPU 0 instructions: 68000000 cycles: 34938188 heartbeat IPC: 0.802777 cumulative IPC: 0.807911 (Simulation time: 0 hr 35 min 11 sec) 

Region of Interest Statistics
cpu0_DTLB TOTAL     ACCESS:    4053972  HIT:    4046347  MISS:       7625
cpu0_DTLB LOAD      ACCESS:    2743417  HIT:    2737033  MISS:       6384
cpu0_DTLB RFO       ACCESS:    1310555  HIT:    1309314  MISS:       1241
cpu0_DTLB PREFETCH  ACCESS:          0  HIT:          0  MISS:          0
cpu0_DTLB WRITEBACK ACCESS:          0  HIT:          0  MISS:          0
cpu0_ITLB TOTAL     ACCESS:    1591417  HIT:    1591355  MISS:         62
cpu0_ITLB LOAD      ACCESS:    1591417  HIT:    1591355  MISS:         62
cpu0_ITLB RFO       ACCESS:          0  HIT:          0  MISS:          0
cpu0_ITLB PREFETCH  ACCESS:          0  HIT:          0  MISS:          0
cpu0_ITLB WRITEBACK ACCESS:          0  HIT:          0  MISS:          0
cpu0_L1I TOTAL     ACCESS:    2083503  HIT:    2017749  MISS:      65754
cpu0_L1I LOAD      ACCESS:    2083503  HIT:    2017749  MISS:      65754
cpu0_L1I RFO       ACCESS:          0  HIT:          0  MISS:          0
cpu0_L1I PREFETCH  ACCESS:          0  HIT:          0  MISS:          0
cpu0_L1I WRITEBACK ACCESS:          0  HIT:          0  MISS:          0
cpu0_STLB TOTAL     ACCESS:       7687  HIT:       6010  MISS:       1677
cpu0_STLB LOAD      ACCESS:       6446  HIT:       4825  MISS:       1621
cpu0_STLB RFO       ACCESS:       1241  HIT:       1185  MISS:         56
cpu0_STLB PREFETCH  ACCESS:          0  HIT:          0  MISS:          0
cpu0_STLB WRITEBACK ACCESS:          0  HIT:          0  MISS:          0
cpu0_L1D TOTAL     ACCESS:    5142757  HIT:    5113053  MISS:      29704
cpu0_L1D LOAD      ACCESS:    2732745  HIT:    2714282  MISS:      18463
cpu0_L1D RFO       ACCESS:    2408345  HIT:    2397185  MISS:      11160
cpu0_L1D PREFETCH  ACCESS:          0  HIT:          0  MISS:          0
cpu0_L1D WRITEBACK ACCESS:          0  HIT:          0  MISS:          0
cpu0_L2C TOTAL     ACCESS:     112406  HIT:     102254  MISS:      10152
cpu0_L2C LOAD      ACCESS:      84217  HIT:      75551  MISS:       8666
cpu0_L2C RFO       ACCESS:      11160  HIT:       9695  MISS:       1465
cpu0_L2C PREFETCH  ACCESS:          0  HIT:          0  MISS:          0
cpu0_L2C WRITEBACK ACCESS:      16948  HIT:      16927  MISS:         21
LLC TOTAL     ACCESS:      16068  HIT:       1028  MISS:      15040
LLC LOAD      ACCESS:       8666  HIT:        234  MISS:       8432
LLC RFO       ACCESS:       1465  HIT:        392  MISS:       1073
LLC PREFETCH  ACCESS:          0  HIT:          0  MISS:          0
LLC WRITEBACK ACCESS:       5937  HIT:        402  MISS:       5535
Heartbeat CPU 0 instructions: 70000000 cycles: 37407900 heartbeat IPC: 0.809811 cumulative IPC: 0.8081 (Simulation time: 0 hr 36 min 16 sec) 

Region of Interest Statistics
cpu0_DTLB TOTAL     ACCESS:    4520723  HIT:    4512268  MISS:       8455
cpu0_DTLB LOAD      ACCESS:    3048809  HIT:    3041700  MISS:       7109
cpu0_DTLB RFO       ACCESS:    1471914  HIT:    1470568  MISS:       1346
cpu0_DTLB PREFETCH  ACCESS:          0  HIT:          0  MISS:          0
cpu0_DTLB WRITEBACK ACCESS:          0  HIT:          0  MISS:          0
cpu0_ITLB TOTAL     ACCESS:    1761039  HIT:    1760977  MISS:         62
cpu0_ITLB LOAD      ACCESS:    1761039  HIT:    1760977  MISS:         62
cpu0_ITLB RFO       ACCESS:          0  HIT:          0  MISS:          0
cpu0_ITLB PREFETCH  ACCESS:          0  HIT:          0  MISS:          0
cpu0_ITLB WRITEBACK ACCESS:          0  HIT:          0  MISS:          0
cpu0_L1I TOTAL     ACCESS:    2347542  HIT:    2275967  MISS:      71575
cpu0_L1I LOAD      ACCESS:    2347542  HIT:    2275967  MISS:      71575
cpu0_L1I RFO       ACCESS:          0  HIT:          0  MISS:          0
cpu0_L1I PREFETCH  ACCESS:          0  HIT:          0  MISS:          0
cpu0_L1I WRITEBACK ACCESS:          0  HIT:          0  MISS:          0
cpu0_STLB TOTAL     ACCESS:       8517  HIT:       6688  MISS:       1829
cpu0_STLB LOAD      ACCESS:       7171  HIT:       5401  MISS:       1770
cpu0_STLB RFO       ACCESS:       1346  HIT:       1287  MISS:         59
cpu0_STLB PREFETCH  ACCESS:          0  HIT:          0  MISS:          0
cpu0_STLB WRITEBACK ACCESS:          0  HIT:          0  MISS:          0
cpu0_L1D TOTAL     ACCESS:    5750228  HIT:    5718417  MISS:      31811
cpu0_L1D LOAD      ACCESS:    3038763  HIT:    3019129  MISS:      19634
cpu0_L1D RFO       ACCESS:    2709646  HIT:    2697559  MISS:      12087
cpu0_L1D PREFETCH  ACCESS:          0  HIT:          0  MISS:          0
cpu0_L1D WRITEBACK ACCESS:          0  HIT:          0  MISS:          0
cpu0_L2C TOTAL     ACCESS:     121776  HIT:     110766  MISS:      11010
cpu0_L2C LOAD      ACCESS:      91209  HIT:      81710  MISS:       9499
cpu0_L2C RFO       ACCESS:      12087  HIT:      10598  MISS:       1489
cpu0_L2C PREFETCH  ACCESS:          0  HIT:          0  MISS:          0
cpu0_L2C WRITEBACK ACCESS:      18390  HIT:      18368  MISS:         22
LLC TOTAL     ACCESS:      17346  HIT:       1061  MISS:      16285
LLC LOAD      ACCESS:       9499  HIT:        238  MISS:       9261
LLC RFO       ACCESS:       1489  HIT:        395  MISS:       1094
LLC PREFETCH  ACCESS:          0  HIT:          0  MISS:          0
LLC WRITEBACK ACCESS:       6358  HIT:        428  MISS:       5930
Heartbeat CPU 0 instructions: 72000000 cycles: 39823684 heartbeat IPC: 0.827889 cumulative IPC: 0.80986 (Simulation time: 0 hr 37 min 17 sec) 

Region of Interest Statistics
cpu0_DTLB TOTAL     ACCESS:    4985068  HIT:    4975685  MISS:       9383
cpu0_DTLB LOAD      ACCESS:    3352640  HIT:    3344703  MISS:       7937
cpu0_DTLB RFO       ACCESS:    1632428  HIT:    1630982  MISS:       1446
cpu0_DTLB PREFETCH  ACCESS:          0  HIT:          0  MISS:          0
cpu0_DTLB WRITEBACK ACCESS:          0  HIT:          0  MISS:          0
cpu0_ITLB TOTAL     ACCESS:    1929386  HIT:    1929324  MISS:         62
cpu0_ITLB LOAD      ACCESS:    1929386  HIT:    1929324  MISS:         62
cpu0_ITLB RFO       ACCESS:          0  HIT:          0  MISS:          0
cpu0_ITLB PREFETCH  ACCESS:          0  HIT:          0  MISS:          0
cpu0_ITLB WRITEBACK ACCESS:          0  HIT:          0  MISS:          0
cpu0_L1I TOTAL     ACCESS:    2600279  HIT:    2522630  MISS:      77649
cpu0_L1I LOAD      ACCESS:    2600279  HIT:    2522630  MISS:      77649
cpu0_L1I RFO       ACCESS:          0  HIT:          0  MISS:          0
cpu0_L1I PREFETCH  ACCESS:          0  HIT:          0  MISS:          0
cpu0_L1I WRITEBACK ACCESS:          0  HIT:          0  MISS:          0
cpu0_STLB TOTAL     ACCESS:       9445  HIT:       7393  MISS:       2052
cpu0_STLB LOAD      ACCESS:       7999  HIT:       6012  MISS:       1987
cpu0_STLB RFO       ACCESS:       1446  HIT:       1381  MISS:         65
cpu0_STLB PREFETCH  ACCESS:          0  HIT:          0  MISS:          0
cpu0_STLB WRITEBACK ACCESS:          0  HIT:          0  MISS:          0
cpu0_L1D TOTAL     ACCESS:    6349309  HIT:    6314036  MISS:      35273
cpu0_L1D LOAD      ACCESS:    3340651  HIT:    3319374  MISS:      21277
cpu0_L1D RFO       ACCESS:    3006617  HIT:    2992723  MISS:      13894
cpu0_L1D PREFETCH  ACCESS:          0  HIT:          0  MISS:          0
cpu0_L1D WRITEBACK ACCESS:          0  HIT:          0  MISS:          0
cpu0_L2C TOTAL     ACCESS:     134095  HIT:     121937  MISS:      12158
cpu0_L2C LOAD      ACCESS:      98926  HIT:      88455  MISS:      10471
cpu0_L2C RFO       ACCESS:      13894  HIT:      12236  MISS:       1658
cpu0_L2C PREFETCH  ACCESS:          0  HIT:          0  MISS:          0
cpu0_L2C WRITEBACK ACCESS:      21173  HIT:      21144  MISS:         29
LLC TOTAL     ACCESS:      19040  HIT:       1154  MISS:      17886
LLC LOAD      ACCESS:      10471  HIT:        250  MISS:      10221
LLC RFO       ACCESS:       1658  HIT:        413  MISS:       1245
LLC PREFETCH  ACCESS:          0  HIT:          0  MISS:          0
LLC WRITEBACK ACCESS:       6911  HIT:        491  MISS:       6420
Heartbeat CPU 0 instructions: 74000004 cycles: 42202074 heartbeat IPC: 0.840907 cumulative IPC: 0.812359 (Simulation time: 0 hr 38 min 16 sec) 

Region of Interest Statistics
cpu0_DTLB TOTAL     ACCESS:    5441075  HIT:    5431089  MISS:       9986
cpu0_DTLB LOAD      ACCESS:    3650940  HIT:    3642454  MISS:       8486
cpu0_DTLB RFO       ACCESS:    1790135  HIT:    1788635  MISS:       1500
cpu0_DTLB PREFETCH  ACCESS:          0  HIT:          0  MISS:          0
cpu0_DTLB WRITEBACK ACCESS:          0  HIT:          0  MISS:          0
cpu0_ITLB TOTAL     ACCESS:    2099283  HIT:    2099221  MISS:         62
cpu0_ITLB LOAD      ACCESS:    2099283  HIT:    2099221  MISS:         62
cpu0_ITLB RFO       ACCESS:          0  HIT:          0  MISS:          0
cpu0_ITLB PREFETCH  ACCESS:          0  HIT:          0  MISS:          0
cpu0_ITLB WRITEBACK ACCESS:          0  HIT:          0  MISS:          0
cpu0_L1I TOTAL     ACCESS:    2859795  HIT:    2776298  MISS:      83497
cpu0_L1I LOAD      ACCESS:    2859795  HIT:    2776298  MISS:      83497
cpu0_L1I RFO       ACCESS:          0  HIT:          0  MISS:          0
cpu0_L1I PREFETCH  ACCESS:          0  HIT:          0  MISS:          0
cpu0_L1I WRITEBACK ACCESS:          0  HIT:          0  MISS:          0
cpu0_STLB TOTAL     ACCESS:      10048  HIT:       7872  MISS:       2176
cpu0_STLB LOAD      ACCESS:       8548  HIT:       6447  MISS:       2101
cpu0_STLB RFO       ACCESS:       1500  HIT:       1425  MISS:         75
cpu0_STLB PREFETCH  ACCESS:          0  HIT:          0  MISS:          0
cpu0_STLB WRITEBACK ACCESS:          0  HIT:          0  MISS:          0
cpu0_L1D TOTAL     ACCESS:    6941572  HIT:    6904159  MISS:      37413
cpu0_L1D LOAD      ACCESS:    3638094  HIT:    3615923  MISS:      22171
cpu0_L1D RFO       ACCESS:    3301313  HIT:    3286183  MISS:      15130
cpu0_L1D PREFETCH  ACCESS:          0  HIT:          0  MISS:          0
cpu0_L1D WRITEBACK ACCESS:          0  HIT:          0  MISS:          0
cpu0_L2C TOTAL     ACCESS:     143549  HIT:     130387  MISS:      13162
cpu0_L2C LOAD      ACCESS:     105668  HIT:      94711  MISS:      10957
cpu0_L2C RFO       ACCESS:      15130  HIT:      12956  MISS:       2174
cpu0_L2C PREFETCH  ACCESS:          0  HIT:          0  MISS:          0
cpu0_L2C WRITEBACK ACCESS:      22639  HIT:      22608  MISS:         31
LLC TOTAL     ACCESS:      20594  HIT:       1228  MISS:      19366
LLC LOAD      ACCESS:      10957  HIT:        264  MISS:      10693
LLC RFO       ACCESS:       2174  HIT:        433  MISS:       1741
LLC PREFETCH  ACCESS:          0  HIT:          0  MISS:          0
LLC WRITEBACK ACCESS:       7463  HIT:        531  MISS:       6932
Heartbeat CPU 0 instructions: 76000003 cycles: 44363850 heartbeat IPC: 0.925165 cumulative IPC: 0.820051 (Simulation time: 0 hr 39 min 13 sec) 

Region of Interest Statistics
cpu0_DTLB TOTAL     ACCESS:    5899456  HIT:    5889389  MISS:      10067
cpu0_DTLB LOAD      ACCESS:    3951250  HIT:    3942696  MISS:       8554
cpu0_DTLB RFO       ACCESS:    1948206  HIT:    1946693  MISS:       1513
cpu0_DTLB PREFETCH  ACCESS:          0  HIT:          0  MISS:          0
cpu0_DTLB WRITEBACK ACCESS:          0  HIT:          0  MISS:          0
cpu0_ITLB TOTAL     ACCESS:    2269377  HIT:    2269315  MISS:         62
cpu0_ITLB LOAD      ACCESS:    2269377  HIT:    2269315  MISS:         62
cpu0_ITLB RFO       ACCESS:          0  HIT:          0  MISS:          0
cpu0_ITLB PREFETCH  ACCESS:          0  HIT:          0  MISS:          0
cpu0_ITLB WRITEBACK ACCESS:          0  HIT:          0  MISS:          0
cpu0_L1I TOTAL     ACCESS:    3125751  HIT:    3038366  MISS:      87385
cpu0_L1I LOAD      ACCESS:    3125751  HIT:    3038366  MISS:      87385
cpu0_L1I RFO       ACCESS:          0  HIT:          0  MISS:          0
cpu0_L1I PREFETCH  ACCESS:          0  HIT:          0  MISS:          0
cpu0_L1I WRITEBACK ACCESS:          0  HIT:          0  MISS:          0
cpu0_STLB TOTAL     ACCESS:      10129  HIT:       7929  MISS:       2200
cpu0_STLB LOAD      ACCESS:       8616  HIT:       6493  MISS:       2123
cpu0_STLB RFO       ACCESS:       1513  HIT:       1436  MISS:         77
cpu0_STLB PREFETCH  ACCESS:          0  HIT:          0  MISS:          0
cpu0_STLB WRITEBACK ACCESS:          0  HIT:          0  MISS:          0
cpu0_L1D TOTAL     ACCESS:    7541815  HIT:    7503993  MISS:      37822
cpu0_L1D LOAD      ACCESS:    3936839  HIT:    3914521  MISS:      22318
cpu0_L1D RFO       ACCESS:    3602787  HIT:    3587400  MISS:      15387
cpu0_L1D PREFETCH  ACCESS:          0  HIT:          0  MISS:          0
cpu0_L1D WRITEBACK ACCESS:          0  HIT:          0  MISS:          0
cpu0_L2C TOTAL     ACCESS:     148228  HIT:     134927  MISS:      13301
cpu0_L2C LOAD      ACCESS:     109703  HIT:      98661  MISS:      11042
cpu0_L2C RFO       ACCESS:      15387  HIT:      13160  MISS:       2227
cpu0_L2C PREFETCH  ACCESS:          0  HIT:          0  MISS:          0
cpu0_L2C WRITEBACK ACCESS:      23021  HIT:      22989  MISS:         32
LLC TOTAL     ACCESS:      20803  HIT:       1233  MISS:      19570
LLC LOAD      ACCESS:      11042  HIT:        264  MISS:      10778
LLC RFO       ACCESS:       2227  HIT:        433  MISS:       1794
LLC PREFETCH  ACCESS:          0  HIT:          0  MISS:          0
LLC WRITEBACK ACCESS:       7534  HIT:        536  MISS:       6998
Heartbeat CPU 0 instructions: 78000001 cycles: 46725280 heartbeat IPC: 0.846944 cumulative IPC: 0.821915 (Simulation time: 0 hr 40 min 15 sec) 

Region of Interest Statistics
cpu0_DTLB TOTAL     ACCESS:    6363574  HIT:    6352596  MISS:      10978
cpu0_DTLB LOAD      ACCESS:    4256441  HIT:    4247117  MISS:       9324
cpu0_DTLB RFO       ACCESS:    2107133  HIT:    2105479  MISS:       1654
cpu0_DTLB PREFETCH  ACCESS:          0  HIT:          0  MISS:          0
cpu0_DTLB WRITEBACK ACCESS:          0  HIT:          0  MISS:          0
cpu0_ITLB TOTAL     ACCESS:    2439447  HIT:    2439385  MISS:         62
cpu0_ITLB LOAD      ACCESS:    2439447  HIT:    2439385  MISS:         62
cpu0_ITLB RFO       ACCESS:          0  HIT:          0  MISS:          0
cpu0_ITLB PREFETCH  ACCESS:          0  HIT:          0  MISS:          0
cpu0_ITLB WRITEBACK ACCESS:          0  HIT:          0  MISS:          0
cpu0_L1I TOTAL     ACCESS:    3385845  HIT:    3293028  MISS:      92817
cpu0_L1I LOAD      ACCESS:    3385845  HIT:    3293028  MISS:      92817
cpu0_L1I RFO       ACCESS:          0  HIT:          0  MISS:          0
cpu0_L1I PREFETCH  ACCESS:          0  HIT:          0  MISS:          0
cpu0_L1I WRITEBACK ACCESS:          0  HIT:          0  MISS:          0
cpu0_STLB TOTAL     ACCESS:      11040  HIT:       8742  MISS:       2298
cpu0_STLB LOAD      ACCESS:       9386  HIT:       7168  MISS:       2218
cpu0_STLB RFO       ACCESS:       1654  HIT:       1574  MISS:         80
cpu0_STLB PREFETCH  ACCESS:          0  HIT:          0  MISS:          0
cpu0_STLB WRITEBACK ACCESS:          0  HIT:          0  MISS:          0
cpu0_L1D TOTAL     ACCESS:    8143037  HIT:    8103069  MISS:      39968
cpu0_L1D LOAD      ACCESS:    4240584  HIT:    4217094  MISS:      23490
cpu0_L1D RFO       ACCESS:    3900166  HIT:    3883812  MISS:      16354
cpu0_L1D PREFETCH  ACCESS:          0  HIT:          0  MISS:          0
cpu0_L1D WRITEBACK ACCESS:          0  HIT:          0  MISS:          0
cpu0_L2C TOTAL     ACCESS:     157434  HIT:     143638  MISS:      13796
cpu0_L2C LOAD      ACCESS:     116307  HIT:     104801  MISS:      11506
cpu0_L2C RFO       ACCESS:      16354  HIT:      14096  MISS:       2258
cpu0_L2C PREFETCH  ACCESS:          0  HIT:          0  MISS:          0
cpu0_L2C WRITEBACK ACCESS:      24649  HIT:      24617  MISS:         32
LLC TOTAL     ACCESS:      21563  HIT:       1325  MISS:      20238
LLC LOAD      ACCESS:      11506  HIT:        301  MISS:      11205
LLC RFO       ACCESS:       2258  HIT:        437  MISS:       1821
LLC PREFETCH  ACCESS:          0  HIT:          0  MISS:          0
LLC WRITEBACK ACCESS:       7799  HIT:        587  MISS:       7212
Heartbeat CPU 0 instructions: 80000002 cycles: 49159329 heartbeat IPC: 0.821677 cumulative IPC: 0.821899 (Simulation time: 0 hr 41 min 20 sec) 

Region of Interest Statistics
cpu0_DTLB TOTAL     ACCESS:    6828990  HIT:    6817320  MISS:      11670
cpu0_DTLB LOAD      ACCESS:    4560675  HIT:    4550722  MISS:       9953
cpu0_DTLB RFO       ACCESS:    2268315  HIT:    2266598  MISS:       1717
cpu0_DTLB PREFETCH  ACCESS:          0  HIT:          0  MISS:          0
cpu0_DTLB WRITEBACK ACCESS:          0  HIT:          0  MISS:          0
cpu0_ITLB TOTAL     ACCESS:    2612528  HIT:    2612466  MISS:         62
cpu0_ITLB LOAD      ACCESS:    2612528  HIT:    2612466  MISS:         62
cpu0_ITLB RFO       ACCESS:          0  HIT:          0  MISS:          0
cpu0_ITLB PREFETCH  ACCESS:          0  HIT:          0  MISS:          0
cpu0_ITLB WRITEBACK ACCESS:          0  HIT:          0  MISS:          0
cpu0_L1I TOTAL     ACCESS:    3639363  HIT:    3540164  MISS:      99199
cpu0_L1I LOAD      ACCESS:    3639363  HIT:    3540164  MISS:      99199
cpu0_L1I RFO       ACCESS:          0  HIT:          0  MISS:          0
cpu0_L1I PREFETCH  ACCESS:          0  HIT:          0  MISS:          0
cpu0_L1I WRITEBACK ACCESS:          0  HIT:          0  MISS:          0
cpu0_STLB TOTAL     ACCESS:      11732  HIT:       9272  MISS:       2460
cpu0_STLB LOAD      ACCESS:      10015  HIT:       7640  MISS:       2375
cpu0_STLB RFO       ACCESS:       1717  HIT:       1632  MISS:         85
cpu0_STLB PREFETCH  ACCESS:          0  HIT:          0  MISS:          0
cpu0_STLB WRITEBACK ACCESS:          0  HIT:          0  MISS:          0
cpu0_L1D TOTAL     ACCESS:    8741590  HIT:    8699500  MISS:      42090
cpu0_L1D LOAD      ACCESS:    4542627  HIT:    4517998  MISS:      24629
cpu0_L1D RFO       ACCESS:    4196514  HIT:    4179183  MISS:      17331
cpu0_L1D PREFETCH  ACCESS:          0  HIT:          0  MISS:          0
cpu0_L1D WRITEBACK ACCESS:          0  HIT:          0  MISS:          0
cpu0_L2C TOTAL     ACCESS:     167611  HIT:     153051  MISS:      14560
cpu0_L2C LOAD      ACCESS:     123828  HIT:     111613  MISS:      12215
cpu0_L2C RFO       ACCESS:      17331  HIT:      15020  MISS:       2311
cpu0_L2C PREFETCH  ACCESS:          0  HIT:          0  MISS:          0
cpu0_L2C WRITEBACK ACCESS:      26322  HIT:      26288  MISS:         34
LLC TOTAL     ACCESS:      22744  HIT:       1358  MISS:      21386
LLC LOAD      ACCESS:      12215  HIT:        311  MISS:      11904
LLC RFO       ACCESS:       2311  HIT:        440  MISS:       1871
LLC PREFETCH  ACCESS:          0  HIT:          0  MISS:          0
LLC WRITEBACK ACCESS:       8218  HIT:        607  MISS:       7611
Heartbeat CPU 0 instructions: 82000003 cycles: 51614889 heartbeat IPC: 0.814479 cumulative IPC: 0.821431 (Simulation time: 0 hr 42 min 26 sec) 

Region of Interest Statistics
cpu0_DTLB TOTAL     ACCESS:    7286469  HIT:    7274067  MISS:      12402
cpu0_DTLB LOAD      ACCESS:    4862067  HIT:    4851466  MISS:      10601
cpu0_DTLB RFO       ACCESS:    2424402  HIT:    2422601  MISS:       1801
cpu0_DTLB PREFETCH  ACCESS:          0  HIT:          0  MISS:          0
cpu0_DTLB WRITEBACK ACCESS:          0  HIT:          0  MISS:          0
cpu0_ITLB TOTAL     ACCESS:    2785077  HIT:    2785015  MISS:         62
cpu0_ITLB LOAD      ACCESS:    2785077  HIT:    2785015  MISS:         62
cpu0_ITLB RFO       ACCESS:          0  HIT:          0  MISS:          0
cpu0_ITLB PREFETCH  ACCESS:          0  HIT:          0  MISS:          0
cpu0_ITLB WRITEBACK ACCESS:          0  HIT:          0  MISS:          0
cpu0_L1I TOTAL     ACCESS:    3893587  HIT:    3786862  MISS:     106725
cpu0_L1I LOAD      ACCESS:    3893587  HIT:    3786862  MISS:     106725
cpu0_L1I RFO       ACCESS:          0  HIT:          0  MISS:          0
cpu0_L1I PREFETCH  ACCESS:          0  HIT:          0  MISS:          0
cpu0_L1I WRITEBACK ACCESS:          0  HIT:          0  MISS:          0
cpu0_STLB TOTAL     ACCESS:      12464  HIT:       9825  MISS:       2639
cpu0_STLB LOAD      ACCESS:      10663  HIT:       8118  MISS:       2545
cpu0_STLB RFO       ACCESS:       1801  HIT:       1707  MISS:         94
cpu0_STLB PREFETCH  ACCESS:          0  HIT:          0  MISS:          0
cpu0_STLB WRITEBACK ACCESS:          0  HIT:          0  MISS:          0
cpu0_L1D TOTAL     ACCESS:    9332870  HIT:    9288385  MISS:      44485
cpu0_L1D LOAD      ACCESS:    4843529  HIT:    4817636  MISS:      25893
cpu0_L1D RFO       ACCESS:    4486713  HIT:    4468260  MISS:      18453
cpu0_L1D PREFETCH  ACCESS:          0  HIT:          0  MISS:          0
cpu0_L1D WRITEBACK ACCESS:          0  HIT:          0  MISS:          0
cpu0_L2C TOTAL     ACCESS:     179561  HIT:     164133  MISS:      15428
cpu0_L2C LOAD      ACCESS:     132618  HIT:     119629  MISS:      12989
cpu0_L2C RFO       ACCESS:      18453  HIT:      16055  MISS:       2398
cpu0_L2C PREFETCH  ACCESS:          0  HIT:          0  MISS:          0
cpu0_L2C WRITEBACK ACCESS:      28351  HIT:      28310  MISS:         41
LLC TOTAL     ACCESS:      24078  HIT:       1452  MISS:      22626
LLC LOAD      ACCESS:      12989  HIT:        324  MISS:      12665
LLC RFO       ACCESS:       2398  HIT:        477  MISS:       1921
LLC PREFETCH  ACCESS:          0  HIT:          0  MISS:          0
LLC WRITEBACK ACCESS:       8691  HIT:        651  MISS:       8040
Heartbeat CPU 0 instructions: 84000001 cycles: 54042091 heartbeat IPC: 0.823993 cumulative IPC: 0.821582 (Simulation time: 0 hr 43 min 32 sec) 

Region of Interest Statistics
cpu0_DTLB TOTAL     ACCESS:    7748620  HIT:    7735360  MISS:      13260
cpu0_DTLB LOAD      ACCESS:    5164922  HIT:    5153553  MISS:      11369
cpu0_DTLB RFO       ACCESS:    2583698  HIT:    2581807  MISS:       1891
cpu0_DTLB PREFETCH  ACCESS:          0  HIT:          0  MISS:          0
cpu0_DTLB WRITEBACK ACCESS:          0  HIT:          0  MISS:          0
cpu0_ITLB TOTAL     ACCESS:    2955409  HIT:    2955347  MISS:         62
cpu0_ITLB LOAD      ACCESS:    2955409  HIT:    2955347  MISS:         62
cpu0_ITLB RFO       ACCESS:          0  HIT:          0  MISS:          0
cpu0_ITLB PREFETCH  ACCESS:          0  HIT:          0  MISS:          0
cpu0_ITLB WRITEBACK ACCESS:          0  HIT:          0  MISS:          0
cpu0_L1I TOTAL     ACCESS:    4153830  HIT:    4040651  MISS:     113179
cpu0_L1I LOAD      ACCESS:    4153830  HIT:    4040651  MISS:     113179
cpu0_L1I RFO       ACCESS:          0  HIT:          0  MISS:          0
cpu0_L1I PREFETCH  ACCESS:          0  HIT:          0  MISS:          0
cpu0_L1I WRITEBACK ACCESS:          0  HIT:          0  MISS:          0
cpu0_STLB TOTAL     ACCESS:      13322  HIT:      10542  MISS:       2780
cpu0_STLB LOAD      ACCESS:      11431  HIT:       8748  MISS:       2683
cpu0_STLB RFO       ACCESS:       1891  HIT:       1794  MISS:         97
cpu0_STLB PREFETCH  ACCESS:          0  HIT:          0  MISS:          0
cpu0_STLB WRITEBACK ACCESS:          0  HIT:          0  MISS:          0
cpu0_L1D TOTAL     ACCESS:    9933817  HIT:    9887044  MISS:      46773
cpu0_L1D LOAD      ACCESS:    5146352  HIT:    5119188  MISS:      27164
cpu0_L1D RFO       ACCESS:    4784696  HIT:    4765231  MISS:      19465
cpu0_L1D PREFETCH  ACCESS:          0  HIT:          0  MISS:          0
cpu0_L1D WRITEBACK ACCESS:          0  HIT:          0  MISS:          0
cpu0_L2C TOTAL     ACCESS:     189747  HIT:     173620  MISS:      16127
cpu0_L2C LOAD      ACCESS:     140343  HIT:     126697  MISS:      13646
cpu0_L2C RFO       ACCESS:      19465  HIT:      17025  MISS:       2440
cpu0_L2C PREFETCH  ACCESS:          0  HIT:          0  MISS:          0
cpu0_L2C WRITEBACK ACCESS:      29795  HIT:      29754  MISS:         41
LLC TOTAL     ACCESS:      25203  HIT:       1618  MISS:      23585
LLC LOAD      ACCESS:      13646  HIT:        399  MISS:      13247
LLC RFO       ACCESS:       2440  HIT:        496  MISS:       1944
LLC PREFETCH  ACCESS:          0  HIT:          0  MISS:          0
LLC WRITEBACK ACCESS:       9117  HIT:        723  MISS:       8394
Heartbeat CPU 0 instructions: 86000000 cycles: 56431887 heartbeat IPC: 0.836891 cumulative IPC: 0.822417 (Simulation time: 0 hr 44 min 36 sec) 

Region of Interest Statistics
cpu0_DTLB TOTAL     ACCESS:    8217993  HIT:    8203885  MISS:      14108
cpu0_DTLB LOAD      ACCESS:    5469847  HIT:    5457720  MISS:      12127
cpu0_DTLB RFO       ACCESS:    2748146  HIT:    2746165  MISS:       1981
cpu0_DTLB PREFETCH  ACCESS:          0  HIT:          0  MISS:          0
cpu0_DTLB WRITEBACK ACCESS:          0  HIT:          0  MISS:          0
cpu0_ITLB TOTAL     ACCESS:    3124663  HIT:    3124601  MISS:         62
cpu0_ITLB LOAD      ACCESS:    3124663  HIT:    3124601  MISS:         62
cpu0_ITLB RFO       ACCESS:          0  HIT:          0  MISS:          0
cpu0_ITLB PREFETCH  ACCESS:          0  HIT:          0  MISS:          0
cpu0_ITLB WRITEBACK ACCESS:          0  HIT:          0  MISS:          0
cpu0_L1I TOTAL     ACCESS:    4405218  HIT:    4286003  MISS:     119215
cpu0_L1I LOAD      ACCESS:    4405218  HIT:    4286003  MISS:     119215
cpu0_L1I RFO       ACCESS:          0  HIT:          0  MISS:          0
cpu0_L1I PREFETCH  ACCESS:          0  HIT:          0  MISS:          0
cpu0_L1I WRITEBACK ACCESS:          0  HIT:          0  MISS:          0
cpu0_STLB TOTAL     ACCESS:      14170  HIT:      11243  MISS:       2927
cpu0_STLB LOAD      ACCESS:      12189  HIT:       9363  MISS:       2826
cpu0_STLB RFO       ACCESS:       1981  HIT:       1880  MISS:        101
cpu0_STLB PREFETCH  ACCESS:          0  HIT:          0  MISS:          0
cpu0_STLB WRITEBACK ACCESS:          0  HIT:          0  MISS:          0
cpu0_L1D TOTAL     ACCESS:   10536547  HIT:   10486444  MISS:      50103
cpu0_L1D LOAD      ACCESS:    5448781  HIT:    5419990  MISS:      28791
cpu0_L1D RFO       ACCESS:    5084850  HIT:    5063697  MISS:      21153
cpu0_L1D PREFETCH  ACCESS:          0  HIT:          0  MISS:          0
cpu0_L1D WRITEBACK ACCESS:          0  HIT:          0  MISS:          0
cpu0_L2C TOTAL     ACCESS:     201642  HIT:     184681  MISS:      16961
cpu0_L2C LOAD      ACCESS:     148006  HIT:     133592  MISS:      14414
cpu0_L2C RFO       ACCESS:      21153  HIT:      18654  MISS:       2499
cpu0_L2C PREFETCH  ACCESS:          0  HIT:          0  MISS:          0
cpu0_L2C WRITEBACK ACCESS:      32324  HIT:      32276  MISS:         48
LLC TOTAL     ACCESS:      26541  HIT:       1824  MISS:      24717
LLC LOAD      ACCESS:      14414  HIT:        517  MISS:      13897
LLC RFO       ACCESS:       2499  HIT:        524  MISS:       1975
LLC PREFETCH  ACCESS:          0  HIT:          0  MISS:          0
LLC WRITEBACK ACCESS:       9628  HIT:        783  MISS:       8845
Heartbeat CPU 0 instructions: 88000001 cycles: 58868000 heartbeat IPC: 0.82098 cumulative IPC: 0.822342 (Simulation time: 0 hr 45 min 41 sec) 

Region of Interest Statistics
cpu0_DTLB TOTAL     ACCESS:    8680233  HIT:    8665452  MISS:      14781
cpu0_DTLB LOAD      ACCESS:    5773365  HIT:    5760663  MISS:      12702
cpu0_DTLB RFO       ACCESS:    2906868  HIT:    2904789  MISS:       2079
cpu0_DTLB PREFETCH  ACCESS:          0  HIT:          0  MISS:          0
cpu0_DTLB WRITEBACK ACCESS:          0  HIT:          0  MISS:          0
cpu0_ITLB TOTAL     ACCESS:    3298678  HIT:    3298616  MISS:         62
cpu0_ITLB LOAD      ACCESS:    3298678  HIT:    3298616  MISS:         62
cpu0_ITLB RFO       ACCESS:          0  HIT:          0  MISS:          0
cpu0_ITLB PREFETCH  ACCESS:          0  HIT:          0  MISS:          0
cpu0_ITLB WRITEBACK ACCESS:          0  HIT:          0  MISS:          0
cpu0_L1I TOTAL     ACCESS:    4663365  HIT:    4536881  MISS:     126484
cpu0_L1I LOAD      ACCESS:    4663365  HIT:    4536881  MISS:     126484
cpu0_L1I RFO       ACCESS:          0  HIT:          0  MISS:          0
cpu0_L1I PREFETCH  ACCESS:          0  HIT:          0  MISS:          0
cpu0_L1I WRITEBACK ACCESS:          0  HIT:          0  MISS:          0
cpu0_STLB TOTAL     ACCESS:      14843  HIT:      11770  MISS:       3073
cpu0_STLB LOAD      ACCESS:      12764  HIT:       9795  MISS:       2969
cpu0_STLB RFO       ACCESS:       2079  HIT:       1975  MISS:        104
cpu0_STLB PREFETCH  ACCESS:          0  HIT:          0  MISS:          0
cpu0_STLB WRITEBACK ACCESS:          0  HIT:          0  MISS:          0
cpu0_L1D TOTAL     ACCESS:   11133836  HIT:   11081654  MISS:      52182
cpu0_L1D LOAD      ACCESS:    5752255  HIT:    5722547  MISS:      29708
cpu0_L1D RFO       ACCESS:    5378519  HIT:    5356207  MISS:      22312
cpu0_L1D PREFETCH  ACCESS:          0  HIT:          0  MISS:          0
cpu0_L1D WRITEBACK ACCESS:          0  HIT:          0  MISS:          0
cpu0_L2C TOTAL     ACCESS:     212672  HIT:     194962  MISS:      17710
cpu0_L2C LOAD      ACCESS:     156192  HIT:     141087  MISS:      15105
cpu0_L2C RFO       ACCESS:      22312  HIT:      19756  MISS:       2556
cpu0_L2C PREFETCH  ACCESS:          0  HIT:          0  MISS:          0
cpu0_L2C WRITEBACK ACCESS:      34006  HIT:      33957  MISS:         49
LLC TOTAL     ACCESS:      27753  HIT:       1888  MISS:      25865
LLC LOAD      ACCESS:      15105  HIT:        524  MISS:      14581
LLC RFO       ACCESS:       2556  HIT:        535  MISS:       2021
LLC PREFETCH  ACCESS:          0  HIT:          0  MISS:          0
LLC WRITEBACK ACCESS:      10092  HIT:        829  MISS:       9263
Heartbeat CPU 0 instructions: 90000003 cycles: 61267416 heartbeat IPC: 0.833537 cumulative IPC: 0.822894 (Simulation time: 0 hr 46 min 45 sec) 

Region of Interest Statistics
cpu0_DTLB TOTAL     ACCESS:    9134713  HIT:    9119256  MISS:      15457
cpu0_DTLB LOAD      ACCESS:    6073654  HIT:    6060353  MISS:      13301
cpu0_DTLB RFO       ACCESS:    3061059  HIT:    3058903  MISS:       2156
cpu0_DTLB PREFETCH  ACCESS:          0  HIT:          0  MISS:          0
cpu0_DTLB WRITEBACK ACCESS:          0  HIT:          0  MISS:          0
cpu0_ITLB TOTAL     ACCESS:    3471610  HIT:    3471548  MISS:         62
cpu0_ITLB LOAD      ACCESS:    3471610  HIT:    3471548  MISS:         62
cpu0_ITLB RFO       ACCESS:          0  HIT:          0  MISS:          0
cpu0_ITLB PREFETCH  ACCESS:          0  HIT:          0  MISS:          0
cpu0_ITLB WRITEBACK ACCESS:          0  HIT:          0  MISS:          0
cpu0_L1I TOTAL     ACCESS:    4909880  HIT:    4775388  MISS:     134492
cpu0_L1I LOAD      ACCESS:    4909880  HIT:    4775388  MISS:     134492
cpu0_L1I RFO       ACCESS:          0  HIT:          0  MISS:          0
cpu0_L1I PREFETCH  ACCESS:          0  HIT:          0  MISS:          0
cpu0_L1I WRITEBACK ACCESS:          0  HIT:          0  MISS:          0
cpu0_STLB TOTAL     ACCESS:      15519  HIT:      12352  MISS:       3167
cpu0_STLB LOAD      ACCESS:      13363  HIT:      10303  MISS:       3060
cpu0_STLB RFO       ACCESS:       2156  HIT:       2049  MISS:        107
cpu0_STLB PREFETCH  ACCESS:          0  HIT:          0  MISS:          0
cpu0_STLB WRITEBACK ACCESS:          0  HIT:          0  MISS:          0
cpu0_L1D TOTAL     ACCESS:   11715835  HIT:   11660991  MISS:      54844
cpu0_L1D LOAD      ACCESS:    6050216  HIT:    6019323  MISS:      30893
cpu0_L1D RFO       ACCESS:    5662463  HIT:    5638685  MISS:      23778
cpu0_L1D PREFETCH  ACCESS:          0  HIT:          0  MISS:          0
cpu0_L1D WRITEBACK ACCESS:          0  HIT:          0  MISS:          0
cpu0_L2C TOTAL     ACCESS:     225375  HIT:     207089  MISS:      18286
cpu0_L2C LOAD      ACCESS:     165385  HIT:     149795  MISS:      15590
cpu0_L2C RFO       ACCESS:      23778  HIT:      21135  MISS:       2643
cpu0_L2C PREFETCH  ACCESS:          0  HIT:          0  MISS:          0
cpu0_L2C WRITEBACK ACCESS:      36039  HIT:      35986  MISS:         53
LLC TOTAL     ACCESS:      28707  HIT:       2005  MISS:      26702
LLC LOAD      ACCESS:      15590  HIT:        544  MISS:      15046
LLC RFO       ACCESS:       2643  HIT:        585  MISS:       2058
LLC PREFETCH  ACCESS:          0  HIT:          0  MISS:          0
LLC WRITEBACK ACCESS:      10474  HIT:        876  MISS:       9598
Heartbeat CPU 0 instructions: 92000003 cycles: 63637840 heartbeat IPC: 0.843731 cumulative IPC: 0.823863 (Simulation time: 0 hr 47 min 48 sec) 

Region of Interest Statistics
cpu0_DTLB TOTAL     ACCESS:    9591228  HIT:    9575282  MISS:      15946
cpu0_DTLB LOAD      ACCESS:    6376064  HIT:    6362334  MISS:      13730
cpu0_DTLB RFO       ACCESS:    3215164  HIT:    3212948  MISS:       2216
cpu0_DTLB PREFETCH  ACCESS:          0  HIT:          0  MISS:          0
cpu0_DTLB WRITEBACK ACCESS:          0  HIT:          0  MISS:          0
cpu0_ITLB TOTAL     ACCESS:    3645520  HIT:    3645458  MISS:         62
cpu0_ITLB LOAD      ACCESS:    3645520  HIT:    3645458  MISS:         62
cpu0_ITLB RFO       ACCESS:          0  HIT:          0  MISS:          0
cpu0_ITLB PREFETCH  ACCESS:          0  HIT:          0  MISS:          0
cpu0_ITLB WRITEBACK ACCESS:          0  HIT:          0  MISS:          0
cpu0_L1I TOTAL     ACCESS:    5165760  HIT:    5024159  MISS:     141601
cpu0_L1I LOAD      ACCESS:    5165760  HIT:    5024159  MISS:     141601
cpu0_L1I RFO       ACCESS:          0  HIT:          0  MISS:          0
cpu0_L1I PREFETCH  ACCESS:          0  HIT:          0  MISS:          0
cpu0_L1I WRITEBACK ACCESS:          0  HIT:          0  MISS:          0
cpu0_STLB TOTAL     ACCESS:      16008  HIT:      12769  MISS:       3239
cpu0_STLB LOAD      ACCESS:      13792  HIT:      10667  MISS:       3125
cpu0_STLB RFO       ACCESS:       2216  HIT:       2102  MISS:        114
cpu0_STLB PREFETCH  ACCESS:          0  HIT:          0  MISS:          0
cpu0_STLB WRITEBACK ACCESS:          0  HIT:          0  MISS:          0
cpu0_L1D TOTAL     ACCESS:   12305630  HIT:   12248550  MISS:      57080
cpu0_L1D LOAD      ACCESS:    6352465  HIT:    6320707  MISS:      31758
cpu0_L1D RFO       ACCESS:    5949937  HIT:    5924799  MISS:      25138
cpu0_L1D PREFETCH  ACCESS:          0  HIT:          0  MISS:          0
cpu0_L1D WRITEBACK ACCESS:          0  HIT:          0  MISS:          0
cpu0_L2C TOTAL     ACCESS:     236601  HIT:     217756  MISS:      18845
cpu0_L2C LOAD      ACCESS:     173359  HIT:     157439  MISS:      15920
cpu0_L2C RFO       ACCESS:      25138  HIT:      22268  MISS:       2870
cpu0_L2C PREFETCH  ACCESS:          0  HIT:          0  MISS:          0
cpu0_L2C WRITEBACK ACCESS:      37920  HIT:      37865  MISS:         55
LLC TOTAL     ACCESS:      29634  HIT:       2126  MISS:      27508
LLC LOAD      ACCESS:      15920  HIT:        554  MISS:      15366
LLC RFO       ACCESS:       2870  HIT:        642  MISS:       2228
LLC PREFETCH  ACCESS:          0  HIT:          0  MISS:          0
LLC WRITEBACK ACCESS:      10844  HIT:        930  MISS:       9914
Heartbeat CPU 0 instructions: 94000000 cycles: 66107641 heartbeat IPC: 0.809781 cumulative IPC: 0.823212 (Simulation time: 0 hr 48 min 49 sec) 

Region of Interest Statistics
cpu0_DTLB TOTAL     ACCESS:   10054537  HIT:   10037904  MISS:      16633
cpu0_DTLB LOAD      ACCESS:    6681930  HIT:    6667582  MISS:      14348
cpu0_DTLB RFO       ACCESS:    3372607  HIT:    3370322  MISS:       2285
cpu0_DTLB PREFETCH  ACCESS:          0  HIT:          0  MISS:          0
cpu0_DTLB WRITEBACK ACCESS:          0  HIT:          0  MISS:          0
cpu0_ITLB TOTAL     ACCESS:    3823757  HIT:    3823695  MISS:         62
cpu0_ITLB LOAD      ACCESS:    3823757  HIT:    3823695  MISS:         62
cpu0_ITLB RFO       ACCESS:          0  HIT:          0  MISS:          0
cpu0_ITLB PREFETCH  ACCESS:          0  HIT:          0  MISS:          0
cpu0_ITLB WRITEBACK ACCESS:          0  HIT:          0  MISS:          0
cpu0_L1I TOTAL     ACCESS:    5427066  HIT:    5277515  MISS:     149551
cpu0_L1I LOAD      ACCESS:    5427066  HIT:    5277515  MISS:     149551
cpu0_L1I RFO       ACCESS:          0  HIT:          0  MISS:          0
cpu0_L1I PREFETCH  ACCESS:          0  HIT:          0  MISS:          0
cpu0_L1I WRITEBACK ACCESS:          0  HIT:          0  MISS:          0
cpu0_STLB TOTAL     ACCESS:      16695  HIT:      13338  MISS:       3357
cpu0_STLB LOAD      ACCESS:      14410  HIT:      11169  MISS:       3241
cpu0_STLB RFO       ACCESS:       2285  HIT:       2169  MISS:        116
cpu0_STLB PREFETCH  ACCESS:          0  HIT:          0  MISS:          0
cpu0_STLB WRITEBACK ACCESS:          0  HIT:          0  MISS:          0
cpu0_L1D TOTAL     ACCESS:   12903112  HIT:   12844382  MISS:      58730
cpu0_L1D LOAD      ACCESS:    6657629  HIT:    6625006  MISS:      32623
cpu0_L1D RFO       ACCESS:    6242137  HIT:    6216221  MISS:      25916
cpu0_L1D PREFETCH  ACCESS:          0  HIT:          0  MISS:          0
cpu0_L1D WRITEBACK ACCESS:          0  HIT:          0  MISS:          0
cpu0_L2C TOTAL     ACCESS:     247468  HIT:     228091  MISS:      19377
cpu0_L2C LOAD      ACCESS:     182174  HIT:     165750  MISS:      16424
cpu0_L2C RFO       ACCESS:      25916  HIT:      23018  MISS:       2898
cpu0_L2C PREFETCH  ACCESS:          0  HIT:          0  MISS:          0
cpu0_L2C WRITEBACK ACCESS:      39187  HIT:      39132  MISS:         55
LLC TOTAL     ACCESS:      30521  HIT:       2174  MISS:      28347
LLC LOAD      ACCESS:      16424  HIT:        575  MISS:      15849
LLC RFO       ACCESS:       2898  HIT:        642  MISS:       2256
LLC PREFETCH  ACCESS:          0  HIT:          0  MISS:          0
LLC WRITEBACK ACCESS:      11199  HIT:        957  MISS:      10242
Heartbeat CPU 0 instructions: 96000000 cycles: 68601996 heartbeat IPC: 0.801811 cumulative IPC: 0.822258 (Simulation time: 0 hr 49 min 51 sec) 

Region of Interest Statistics
cpu0_DTLB TOTAL     ACCESS:   10505452  HIT:   10488165  MISS:      17287
cpu0_DTLB LOAD      ACCESS:    6981186  HIT:    6966264  MISS:      14922
cpu0_DTLB RFO       ACCESS:    3524266  HIT:    3521901  MISS:       2365
cpu0_DTLB PREFETCH  ACCESS:          0  HIT:          0  MISS:          0
cpu0_DTLB WRITEBACK ACCESS:          0  HIT:          0  MISS:          0
cpu0_ITLB TOTAL     ACCESS:    4000069  HIT:    4000007  MISS:         62
cpu0_ITLB LOAD      ACCESS:    4000069  HIT:    4000007  MISS:         62
cpu0_ITLB RFO       ACCESS:          0  HIT:          0  MISS:          0
cpu0_ITLB PREFETCH  ACCESS:          0  HIT:          0  MISS:          0
cpu0_ITLB WRITEBACK ACCESS:          0  HIT:          0  MISS:          0
cpu0_L1I TOTAL     ACCESS:    5689184  HIT:    5531771  MISS:     157413
cpu0_L1I LOAD      ACCESS:    5689184  HIT:    5531771  MISS:     157413
cpu0_L1I RFO       ACCESS:          0  HIT:          0  MISS:          0
cpu0_L1I PREFETCH  ACCESS:          0  HIT:          0  MISS:          0
cpu0_L1I WRITEBACK ACCESS:          0  HIT:          0  MISS:          0
cpu0_STLB TOTAL     ACCESS:      17349  HIT:      13858  MISS:       3491
cpu0_STLB LOAD      ACCESS:      14984  HIT:      11612  MISS:       3372
cpu0_STLB RFO       ACCESS:       2365  HIT:       2246  MISS:        119
cpu0_STLB PREFETCH  ACCESS:          0  HIT:          0  MISS:          0
cpu0_STLB WRITEBACK ACCESS:          0  HIT:          0  MISS:          0
cpu0_L1D TOTAL     ACCESS:   13485556  HIT:   13425201  MISS:      60355
cpu0_L1D LOAD      ACCESS:    6955511  HIT:    6921997  MISS:      33514
cpu0_L1D RFO       ACCESS:    6526565  HIT:    6499921  MISS:      26644
cpu0_L1D PREFETCH  ACCESS:          0  HIT:          0  MISS:          0
cpu0_L1D WRITEBACK ACCESS:          0  HIT:          0  MISS:          0
cpu0_L2C TOTAL     ACCESS:     258341  HIT:     238344  MISS:      19997
cpu0_L2C LOAD      ACCESS:     190927  HIT:     173920  MISS:      17007
cpu0_L2C RFO       ACCESS:      26644  HIT:      23710  MISS:       2934
cpu0_L2C PREFETCH  ACCESS:          0  HIT:          0  MISS:          0
cpu0_L2C WRITEBACK ACCESS:      40573  HIT:      40517  MISS:         56
LLC TOTAL     ACCESS:      31528  HIT:       2198  MISS:      29330
LLC LOAD      ACCESS:      17007  HIT:        585  MISS:      16422
LLC RFO       ACCESS:       2934  HIT:        642  MISS:       2292
LLC PREFETCH  ACCESS:          0  HIT:          0  MISS:          0
LLC WRITEBACK ACCESS:      11587  HIT:        971  MISS:      10616
Heartbeat CPU 0 instructions: 98000004 cycles: 71051030 heartbeat IPC: 0.81665 cumulative IPC: 0.822023 (Simulation time: 0 hr 50 min 53 sec) 

Region of Interest Statistics
cpu0_DTLB TOTAL     ACCESS:   10960772  HIT:   10942597  MISS:      18175
cpu0_DTLB LOAD      ACCESS:    7279928  HIT:    7264268  MISS:      15660
cpu0_DTLB RFO       ACCESS:    3680844  HIT:    3678329  MISS:       2515
cpu0_DTLB PREFETCH  ACCESS:          0  HIT:          0  MISS:          0
cpu0_DTLB WRITEBACK ACCESS:          0  HIT:          0  MISS:          0
cpu0_ITLB TOTAL     ACCESS:    4171790  HIT:    4171728  MISS:         62
cpu0_ITLB LOAD      ACCESS:    4171790  HIT:    4171728  MISS:         62
cpu0_ITLB RFO       ACCESS:          0  HIT:          0  MISS:          0
cpu0_ITLB PREFETCH  ACCESS:          0  HIT:          0  MISS:          0
cpu0_ITLB WRITEBACK ACCESS:          0  HIT:          0  MISS:          0
cpu0_L1I TOTAL     ACCESS:    5940357  HIT:    5774975  MISS:     165382
cpu0_L1I LOAD      ACCESS:    5940357  HIT:    5774975  MISS:     165382
cpu0_L1I RFO       ACCESS:          0  HIT:          0  MISS:          0
cpu0_L1I PREFETCH  ACCESS:          0  HIT:          0  MISS:          0
cpu0_L1I WRITEBACK ACCESS:          0  HIT:          0  MISS:          0
cpu0_STLB TOTAL     ACCESS:      18237  HIT:      14584  MISS:       3653
cpu0_STLB LOAD      ACCESS:      15722  HIT:      12195  MISS:       3527
cpu0_STLB RFO       ACCESS:       2515  HIT:       2389  MISS:        126
cpu0_STLB PREFETCH  ACCESS:          0  HIT:          0  MISS:          0
cpu0_STLB WRITEBACK ACCESS:          0  HIT:          0  MISS:          0
cpu0_L1D TOTAL     ACCESS:   14070476  HIT:   14007126  MISS:      63350
cpu0_L1D LOAD      ACCESS:    7253224  HIT:    7218385  MISS:      34839
cpu0_L1D RFO       ACCESS:    6813610  HIT:    6785307  MISS:      28303
cpu0_L1D PREFETCH  ACCESS:          0  HIT:          0  MISS:          0
cpu0_L1D WRITEBACK ACCESS:          0  HIT:          0  MISS:          0
cpu0_L2C TOTAL     ACCESS:     271575  HIT:     250613  MISS:      20962
cpu0_L2C LOAD      ACCESS:     200221  HIT:     182466  MISS:      17755
cpu0_L2C RFO       ACCESS:      28303  HIT:      25158  MISS:       3145
cpu0_L2C PREFETCH  ACCESS:          0  HIT:          0  MISS:          0
cpu0_L2C WRITEBACK ACCESS:      42843  HIT:      42781  MISS:         62
LLC TOTAL     ACCESS:      33099  HIT:       2412  MISS:      30687
LLC LOAD      ACCESS:      17755  HIT:        637  MISS:      17118
LLC RFO       ACCESS:       3145  HIT:        734  MISS:       2411
LLC PREFETCH  ACCESS:          0  HIT:          0  MISS:          0
LLC WRITEBACK ACCESS:      12199  HIT:       1041  MISS:      11158
Heartbeat CPU 0 instructions: 100000004 cycles: 73534550 heartbeat IPC: 0.805309 cumulative IPC: 0.821341 (Simulation time: 0 hr 51 min 56 sec) 

Region of Interest Statistics
cpu0_DTLB TOTAL     ACCESS:   11418796  HIT:   11399801  MISS:      18995
cpu0_DTLB LOAD      ACCESS:    7582942  HIT:    7566601  MISS:      16341
cpu0_DTLB RFO       ACCESS:    3835854  HIT:    3833200  MISS:       2654
cpu0_DTLB PREFETCH  ACCESS:          0  HIT:          0  MISS:          0
cpu0_DTLB WRITEBACK ACCESS:          0  HIT:          0  MISS:          0
cpu0_ITLB TOTAL     ACCESS:    4347730  HIT:    4347668  MISS:         62
cpu0_ITLB LOAD      ACCESS:    4347730  HIT:    4347668  MISS:         62
cpu0_ITLB RFO       ACCESS:          0  HIT:          0  MISS:          0
cpu0_ITLB PREFETCH  ACCESS:          0  HIT:          0  MISS:          0
cpu0_ITLB WRITEBACK ACCESS:          0  HIT:          0  MISS:          0
cpu0_L1I TOTAL     ACCESS:    6193664  HIT:    6020454  MISS:     173210
cpu0_L1I LOAD      ACCESS:    6193664  HIT:    6020454  MISS:     173210
cpu0_L1I RFO       ACCESS:          0  HIT:          0  MISS:          0
cpu0_L1I PREFETCH  ACCESS:          0  HIT:          0  MISS:          0
cpu0_L1I WRITEBACK ACCESS:          0  HIT:          0  MISS:          0
cpu0_STLB TOTAL     ACCESS:      19057  HIT:      15222  MISS:       3835
cpu0_STLB LOAD      ACCESS:      16403  HIT:      12701  MISS:       3702
cpu0_STLB RFO       ACCESS:       2654  HIT:       2521  MISS:        133
cpu0_STLB PREFETCH  ACCESS:          0  HIT:          0  MISS:          0
cpu0_STLB WRITEBACK ACCESS:          0  HIT:          0  MISS:          0
cpu0_L1D TOTAL     ACCESS:   14659832  HIT:   14594237  MISS:      65595
cpu0_L1D LOAD      ACCESS:    7554832  HIT:    7518763  MISS:      36069
cpu0_L1D RFO       ACCESS:    7101177  HIT:    7071869  MISS:      29308
cpu0_L1D PREFETCH  ACCESS:          0  HIT:          0  MISS:          0
cpu0_L1D WRITEBACK ACCESS:          0  HIT:          0  MISS:          0
cpu0_L2C TOTAL     ACCESS:     283539  HIT:     261738  MISS:      21801
cpu0_L2C LOAD      ACCESS:     209279  HIT:     190776  MISS:      18503
cpu0_L2C RFO       ACCESS:      29308  HIT:      26080  MISS:       3228
cpu0_L2C PREFETCH  ACCESS:          0  HIT:          0  MISS:          0
cpu0_L2C WRITEBACK ACCESS:      44734  HIT:      44665  MISS:         69
LLC TOTAL     ACCESS:      34479  HIT:       2502  MISS:      31977
LLC LOAD      ACCESS:      18503  HIT:        653  MISS:      17850
LLC RFO       ACCESS:       3228  HIT:        767  MISS:       2461
LLC PREFETCH  ACCESS:          0  HIT:          0  MISS:          0
LLC WRITEBACK ACCESS:      12747  HIT:       1082  MISS:      11665
Heartbeat CPU 0 instructions: 102000000 cycles: 75894317 heartbeat IPC: 0.84754 cumulative IPC: 0.822319 (Simulation time: 0 hr 52 min 59 sec) 

Region of Interest Statistics
cpu0_DTLB TOTAL     ACCESS:   11872250  HIT:   11852722  MISS:      19528
cpu0_DTLB LOAD      ACCESS:    7881571  HIT:    7864758  MISS:      16813
cpu0_DTLB RFO       ACCESS:    3990679  HIT:    3987964  MISS:       2715
cpu0_DTLB PREFETCH  ACCESS:          0  HIT:          0  MISS:          0
cpu0_DTLB WRITEBACK ACCESS:          0  HIT:          0  MISS:          0
cpu0_ITLB TOTAL     ACCESS:    4520117  HIT:    4520055  MISS:         62
cpu0_ITLB LOAD      ACCESS:    4520117  HIT:    4520055  MISS:         62
cpu0_ITLB RFO       ACCESS:          0  HIT:          0  MISS:          0
cpu0_ITLB PREFETCH  ACCESS:          0  HIT:          0  MISS:          0
cpu0_ITLB WRITEBACK ACCESS:          0  HIT:          0  MISS:          0
cpu0_L1I TOTAL     ACCESS:    6448277  HIT:    6267364  MISS:     180913
cpu0_L1I LOAD      ACCESS:    6448277  HIT:    6267364  MISS:     180913
cpu0_L1I RFO       ACCESS:          0  HIT:          0  MISS:          0
cpu0_L1I PREFETCH  ACCESS:          0  HIT:          0  MISS:          0
cpu0_L1I WRITEBACK ACCESS:          0  HIT:          0  MISS:          0
cpu0_STLB TOTAL     ACCESS:      19590  HIT:      15681  MISS:       3909
cpu0_STLB LOAD      ACCESS:      16875  HIT:      13102  MISS:       3773
cpu0_STLB RFO       ACCESS:       2715  HIT:       2579  MISS:        136
cpu0_STLB PREFETCH  ACCESS:          0  HIT:          0  MISS:          0
cpu0_STLB WRITEBACK ACCESS:          0  HIT:          0  MISS:          0
cpu0_L1D TOTAL     ACCESS:   15246310  HIT:   15178309  MISS:      68001
cpu0_L1D LOAD      ACCESS:    7852779  HIT:    7815862  MISS:      36917
cpu0_L1D RFO       ACCESS:    7389634  HIT:    7358781  MISS:      30853
cpu0_L1D PREFETCH  ACCESS:          0  HIT:          0  MISS:          0
cpu0_L1D WRITEBACK ACCESS:          0  HIT:          0  MISS:          0
cpu0_L2C TOTAL     ACCESS:     295421  HIT:     273159  MISS:      22262
cpu0_L2C LOAD      ACCESS:     217830  HIT:     198970  MISS:      18860
cpu0_L2C RFO       ACCESS:      30853  HIT:      27523  MISS:       3330
cpu0_L2C PREFETCH  ACCESS:          0  HIT:          0  MISS:          0
cpu0_L2C WRITEBACK ACCESS:      46507  HIT:      46436  MISS:         71
LLC TOTAL     ACCESS:      35249  HIT:       2584  MISS:      32665
LLC LOAD      ACCESS:      18860  HIT:        660  MISS:      18200
LLC RFO       ACCESS:       3330  HIT:        813  MISS:       2517
LLC PREFETCH  ACCESS:          0  HIT:          0  MISS:          0
LLC WRITEBACK ACCESS:      13058  HIT:       1111  MISS:      11947
Heartbeat CPU 0 instructions: 104000001 cycles: 78327880 heartbeat IPC: 0.821841 cumulative IPC: 0.822301 (Simulation time: 0 hr 54 min 2 sec) 

Region of Interest Statistics
cpu0_DTLB TOTAL     ACCESS:   12339407  HIT:   12319338  MISS:      20069
cpu0_DTLB LOAD      ACCESS:    8189646  HIT:    8172338  MISS:      17308
cpu0_DTLB RFO       ACCESS:    4149761  HIT:    4147000  MISS:       2761
cpu0_DTLB PREFETCH  ACCESS:          0  HIT:          0  MISS:          0
cpu0_DTLB WRITEBACK ACCESS:          0  HIT:          0  MISS:          0
cpu0_ITLB TOTAL     ACCESS:    4698764  HIT:    4698702  MISS:         62
cpu0_ITLB LOAD      ACCESS:    4698764  HIT:    4698702  MISS:         62
cpu0_ITLB RFO       ACCESS:          0  HIT:          0  MISS:          0
cpu0_ITLB PREFETCH  ACCESS:          0  HIT:          0  MISS:          0
cpu0_ITLB WRITEBACK ACCESS:          0  HIT:          0  MISS:          0
cpu0_L1I TOTAL     ACCESS:    6708254  HIT:    6519757  MISS:     188497
cpu0_L1I LOAD      ACCESS:    6708254  HIT:    6519757  MISS:     188497
cpu0_L1I RFO       ACCESS:          0  HIT:          0  MISS:          0
cpu0_L1I PREFETCH  ACCESS:          0  HIT:          0  MISS:          0
cpu0_L1I WRITEBACK ACCESS:          0  HIT:          0  MISS:          0
cpu0_STLB TOTAL     ACCESS:      20131  HIT:      16128  MISS:       4003
cpu0_STLB LOAD      ACCESS:      17370  HIT:      13505  MISS:       3865
cpu0_STLB RFO       ACCESS:       2761  HIT:       2623  MISS:        138
cpu0_STLB PREFETCH  ACCESS:          0  HIT:          0  MISS:          0
cpu0_STLB WRITEBACK ACCESS:          0  HIT:          0  MISS:          0
cpu0_L1D TOTAL     ACCESS:   15847838  HIT:   15778038  MISS:      69800
cpu0_L1D LOAD      ACCESS:    8159938  HIT:    8122139  MISS:      37799
cpu0_L1D RFO       ACCESS:    7683909  HIT:    7652147  MISS:      31762
cpu0_L1D PREFETCH  ACCESS:          0  HIT:          0  MISS:          0
cpu0_L1D WRITEBACK ACCESS:          0  HIT:          0  MISS:          0
cpu0_L2C TOTAL     ACCESS:     306268  HIT:     283585  MISS:      22683
cpu0_L2C LOAD      ACCESS:     226296  HIT:     207045  MISS:      19251
cpu0_L2C RFO       ACCESS:      31762  HIT:      28403  MISS:       3359
cpu0_L2C PREFETCH  ACCESS:          0  HIT:          0  MISS:          0
cpu0_L2C WRITEBACK ACCESS:      47971  HIT:      47899  MISS:         72
LLC TOTAL     ACCESS:      35957  HIT:       2636  MISS:      33321
LLC LOAD      ACCESS:      19251  HIT:        674  MISS:      18577
LLC RFO       ACCESS:       3359  HIT:        819  MISS:       2540
LLC PREFETCH  ACCESS:          0  HIT:          0  MISS:          0
LLC WRITEBACK ACCESS:      13346  HIT:       1143  MISS:      12203
Heartbeat CPU 0 instructions: 106000000 cycles: 80865006 heartbeat IPC: 0.788293 cumulative IPC: 0.821036 (Simulation time: 0 hr 54 min 58 sec) 

Region of Interest Statistics
cpu0_DTLB TOTAL     ACCESS:   12791984  HIT:   12771313  MISS:      20671
cpu0_DTLB LOAD      ACCESS:    8490193  HIT:    8472337  MISS:      17856
cpu0_DTLB RFO       ACCESS:    4301791  HIT:    4298976  MISS:       2815
cpu0_DTLB PREFETCH  ACCESS:          0  HIT:          0  MISS:          0
cpu0_DTLB WRITEBACK ACCESS:          0  HIT:          0  MISS:          0
cpu0_ITLB TOTAL     ACCESS:    4876688  HIT:    4876626  MISS:         62
cpu0_ITLB LOAD      ACCESS:    4876688  HIT:    4876626  MISS:         62
cpu0_ITLB RFO       ACCESS:          0  HIT:          0  MISS:          0
cpu0_ITLB PREFETCH  ACCESS:          0  HIT:          0  MISS:          0
cpu0_ITLB WRITEBACK ACCESS:          0  HIT:          0  MISS:          0
cpu0_L1I TOTAL     ACCESS:    6976879  HIT:    6779467  MISS:     197412
cpu0_L1I LOAD      ACCESS:    6976879  HIT:    6779467  MISS:     197412
cpu0_L1I RFO       ACCESS:          0  HIT:          0  MISS:          0
cpu0_L1I PREFETCH  ACCESS:          0  HIT:          0  MISS:          0
cpu0_L1I WRITEBACK ACCESS:          0  HIT:          0  MISS:          0
cpu0_STLB TOTAL     ACCESS:      20733  HIT:      16581  MISS:       4152
cpu0_STLB LOAD      ACCESS:      17918  HIT:      13907  MISS:       4011
cpu0_STLB RFO       ACCESS:       2815  HIT:       2674  MISS:        141
cpu0_STLB PREFETCH  ACCESS:          0  HIT:          0  MISS:          0
cpu0_STLB WRITEBACK ACCESS:          0  HIT:          0  MISS:          0
cpu0_L1D TOTAL     ACCESS:   16432075  HIT:   16360441  MISS:      71634
cpu0_L1D LOAD      ACCESS:    8458284  HIT:    8419529  MISS:      38755
cpu0_L1D RFO       ACCESS:    7969651  HIT:    7937016  MISS:      32635
cpu0_L1D PREFETCH  ACCESS:          0  HIT:          0  MISS:          0
cpu0_L1D WRITEBACK ACCESS:          0  HIT:          0  MISS:          0
cpu0_L2C TOTAL     ACCESS:     318532  HIT:     295206  MISS:      23326
cpu0_L2C LOAD      ACCESS:     236167  HIT:     216312  MISS:      19855
cpu0_L2C RFO       ACCESS:      32635  HIT:      29238  MISS:       3397
cpu0_L2C PREFETCH  ACCESS:          0  HIT:          0  MISS:          0
[...]
cpu0_DTLB LOAD      ACCESS:  229182731  HIT:  228360246  MISS:     822485
cpu0_DTLB RFO       ACCESS:  108179049  HIT:  108052971  MISS:     126078
cpu0_DTLB PREFETCH  ACCESS:          0  HIT:          0  MISS:          0
cpu0_DTLB WRITEBACK ACCESS:          0  HIT:          0  MISS:          0
cpu0_ITLB TOTAL     ACCESS:  131516978  HIT:  131512536  MISS:       4442
cpu0_ITLB LOAD      ACCESS:  131516978  HIT:  131512536  MISS:       4442
cpu0_ITLB RFO       ACCESS:          0  HIT:          0  MISS:          0
cpu0_ITLB PREFETCH  ACCESS:          0  HIT:          0  MISS:          0
cpu0_ITLB WRITEBACK ACCESS:          0  HIT:          0  MISS:          0
cpu0_L1I TOTAL     ACCESS:  162640375  HIT:  156913280  MISS:    5727095
cpu0_L1I LOAD      ACCESS:  162640375  HIT:  156913280  MISS:    5727095
cpu0_L1I RFO       ACCESS:          0  HIT:          0  MISS:          0
cpu0_L1I PREFETCH  ACCESS:          0  HIT:          0  MISS:          0
cpu0_L1I WRITEBACK ACCESS:          0  HIT:          0  MISS:          0
cpu0_STLB TOTAL     ACCESS:     953005  HIT:     877444  MISS:      75561
cpu0_STLB LOAD      ACCESS:     826927  HIT:     765760  MISS:      61167
cpu0_STLB RFO       ACCESS:     126078  HIT:     111684  MISS:      14394
cpu0_STLB PREFETCH  ACCESS:          0  HIT:          0  MISS:          0
cpu0_STLB WRITEBACK ACCESS:          0  HIT:          0  MISS:          0
cpu0_L1D TOTAL     ACCESS:  418460272  HIT:  413115184  MISS:    5345088
cpu0_L1D LOAD      ACCESS:  226043401  HIT:  223124287  MISS:    2919114
cpu0_L1D RFO       ACCESS:  192341403  HIT:  189924590  MISS:    2416813
cpu0_L1D PREFETCH  ACCESS:          0  HIT:          0  MISS:          0
cpu0_L1D WRITEBACK ACCESS:          0  HIT:          0  MISS:          0
cpu0_L2C TOTAL     ACCESS:   14270471  HIT:   12013665  MISS:    2256806
cpu0_L2C LOAD      ACCESS:    8646166  HIT:    7412104  MISS:    1234062
cpu0_L2C RFO       ACCESS:    2416794  HIT:    1396058  MISS:    1020736
cpu0_L2C PREFETCH  ACCESS:          0  HIT:          0  MISS:          0
cpu0_L2C WRITEBACK ACCESS:    3198350  HIT:    3196992  MISS:       1358
LLC TOTAL     ACCESS:    3775322  HIT:     280696  MISS:    3494626
LLC LOAD      ACCESS:    1234061  HIT:     106468  MISS:    1127593
LLC RFO       ACCESS:    1020736  HIT:      54748  MISS:     965988
LLC PREFETCH  ACCESS:          0  HIT:          0  MISS:          0
LLC WRITEBACK ACCESS:    1519875  HIT:     119435  MISS:    1400440
Heartbeat CPU 0 instructions: 1550000002 cycles: 1959659796 heartbeat IPC: 0.763693 cumulative IPC: 0.770415 (Simulation time: 14 hr 11 min 30 sec) 

Region of Interest Statistics
cpu0_DTLB TOTAL     ACCESS:  337777367  HIT:  336825580  MISS:     951787
cpu0_DTLB LOAD      ACCESS:  229495316  HIT:  228669782  MISS:     825534
cpu0_DTLB RFO       ACCESS:  108282051  HIT:  108155798  MISS:     126253
cpu0_DTLB PREFETCH  ACCESS:          0  HIT:          0  MISS:          0
cpu0_DTLB WRITEBACK ACCESS:          0  HIT:          0  MISS:          0
cpu0_ITLB TOTAL     ACCESS:  131696676  HIT:  131692215  MISS:       4461
cpu0_ITLB LOAD      ACCESS:  131696676  HIT:  131692215  MISS:       4461
cpu0_ITLB RFO       ACCESS:          0  HIT:          0  MISS:          0
cpu0_ITLB PREFETCH  ACCESS:          0  HIT:          0  MISS:          0
cpu0_ITLB WRITEBACK ACCESS:          0  HIT:          0  MISS:          0
cpu0_L1I TOTAL     ACCESS:  162773409  HIT:  157041165  MISS:    5732244
cpu0_L1I LOAD      ACCESS:  162773409  HIT:  157041165  MISS:    5732244
cpu0_L1I RFO       ACCESS:          0  HIT:          0  MISS:          0
cpu0_L1I PREFETCH  ACCESS:          0  HIT:          0  MISS:          0
cpu0_L1I WRITEBACK ACCESS:          0  HIT:          0  MISS:          0
cpu0_STLB TOTAL     ACCESS:     956248  HIT:     880607  MISS:      75641
cpu0_STLB LOAD      ACCESS:     829995  HIT:     768748  MISS:      61247
cpu0_STLB RFO       ACCESS:     126253  HIT:     111859  MISS:      14394
cpu0_STLB PREFETCH  ACCESS:          0  HIT:          0  MISS:          0
cpu0_STLB WRITEBACK ACCESS:          0  HIT:          0  MISS:          0
cpu0_L1D TOTAL     ACCESS:  418936479  HIT:  413575995  MISS:    5360484
cpu0_L1D LOAD      ACCESS:  226350056  HIT:  223419514  MISS:    2930542
cpu0_L1D RFO       ACCESS:  192510875  HIT:  190090107  MISS:    2420768
cpu0_L1D PREFETCH  ACCESS:          0  HIT:          0  MISS:          0
cpu0_L1D WRITEBACK ACCESS:          0  HIT:          0  MISS:          0
cpu0_L2C TOTAL     ACCESS:   14296496  HIT:   12035481  MISS:    2261015
cpu0_L2C LOAD      ACCESS:    8662743  HIT:    7425304  MISS:    1237439
cpu0_L2C RFO       ACCESS:    2420749  HIT:    1399183  MISS:    1021566
cpu0_L2C PREFETCH  ACCESS:          0  HIT:          0  MISS:          0
cpu0_L2C WRITEBACK ACCESS:    3203830  HIT:    3202472  MISS:       1358
LLC TOTAL     ACCESS:    3781051  HIT:     281988  MISS:    3499063
LLC LOAD      ACCESS:    1237438  HIT:     107274  MISS:    1130164
LLC RFO       ACCESS:    1021566  HIT:      54898  MISS:     966668
LLC PREFETCH  ACCESS:          0  HIT:          0  MISS:          0
LLC WRITEBACK ACCESS:    1521395  HIT:     119771  MISS:    1401624
Finished CPU 0 instructions: 1500000001 cycles: 1947001298 cumulative IPC: 0.770415 (Simulation time: 14 hr 11 min 30 sec) 

ChampSim completed all CPUs

Region of Interest Statistics

CPU 0 cumulative IPC: 0.770415 instructions: 1500000001 cycles: 1947001298
cpu0_DTLB TOTAL     ACCESS:  337777367  HIT:  336825580  MISS:     951787
cpu0_DTLB LOAD      ACCESS:  229495316  HIT:  228669782  MISS:     825534
cpu0_DTLB RFO       ACCESS:  108282051  HIT:  108155798  MISS:     126253
cpu0_DTLB PREFETCH  ACCESS:          0  HIT:          0  MISS:          0
cpu0_DTLB WRITEBACK ACCESS:          0  HIT:          0  MISS:          0
cpu0_DTLB TRANSLATION ACCESS:          0  HIT:          0  MISS:          0
cpu0_DTLB PREFETCH  REQUESTED:          0  ISSUED:          0  USEFUL:          0  USELESS:          0
cpu0_DTLB AVERAGE MISS LATENCY: 10.8187 cycles
cpu0_ITLB TOTAL     ACCESS:  131696676  HIT:  131692215  MISS:       4461
cpu0_ITLB LOAD      ACCESS:  131696676  HIT:  131692215  MISS:       4461
cpu0_ITLB RFO       ACCESS:          0  HIT:          0  MISS:          0
cpu0_ITLB PREFETCH  ACCESS:          0  HIT:          0  MISS:          0
cpu0_ITLB WRITEBACK ACCESS:          0  HIT:          0  MISS:          0
cpu0_ITLB TRANSLATION ACCESS:          0  HIT:          0  MISS:          0
cpu0_ITLB PREFETCH  REQUESTED:          0  ISSUED:          0  USEFUL:          0  USELESS:          0
cpu0_ITLB AVERAGE MISS LATENCY: 17.5777 cycles
cpu0_L1I TOTAL     ACCESS:  162773409  HIT:  157041165  MISS:    5732244
cpu0_L1I LOAD      ACCESS:  162773409  HIT:  157041165  MISS:    5732244
cpu0_L1I RFO       ACCESS:          0  HIT:          0  MISS:          0
cpu0_L1I PREFETCH  ACCESS:          0  HIT:          0  MISS:          0
cpu0_L1I WRITEBACK ACCESS:          0  HIT:          0  MISS:          0
cpu0_L1I TRANSLATION ACCESS:          0  HIT:          0  MISS:          0
cpu0_L1I PREFETCH  REQUESTED:          0  ISSUED:          0  USEFUL:          0  USELESS:          0
cpu0_L1I AVERAGE MISS LATENCY: 15.3959 cycles
cpu0_STLB TOTAL     ACCESS:     956248  HIT:     880607  MISS:      75641
cpu0_STLB LOAD      ACCESS:     829995  HIT:     768748  MISS:      61247
cpu0_STLB RFO       ACCESS:     126253  HIT:     111859  MISS:      14394
cpu0_STLB PREFETCH  ACCESS:          0  HIT:          0  MISS:          0
cpu0_STLB WRITEBACK ACCESS:          0  HIT:          0  MISS:          0
cpu0_STLB TRANSLATION ACCESS:          0  HIT:          0  MISS:          0
cpu0_STLB PREFETCH  REQUESTED:          0  ISSUED:          0  USEFUL:          0  USELESS:          0
cpu0_STLB AVERAGE MISS LATENCY: 23.3163 cycles
cpu0_L1D TOTAL     ACCESS:  418936479  HIT:  413575995  MISS:    5360484
cpu0_L1D LOAD      ACCESS:  226350056  HIT:  223419514  MISS:    2930542
cpu0_L1D RFO       ACCESS:  192510875  HIT:  190090107  MISS:    2420768
cpu0_L1D PREFETCH  ACCESS:          0  HIT:          0  MISS:          0
cpu0_L1D WRITEBACK ACCESS:          0  HIT:          0  MISS:          0
cpu0_L1D TRANSLATION ACCESS:      75548  HIT:      66374  MISS:       9174
cpu0_L1D PREFETCH  REQUESTED:          0  ISSUED:          0  USEFUL:          0  USELESS:          0
cpu0_L1D AVERAGE MISS LATENCY: 213.346 cycles
cpu0_L2C TOTAL     ACCESS:   14296496  HIT:   12035481  MISS:    2261015
cpu0_L2C LOAD      ACCESS:    8662743  HIT:    7425304  MISS:    1237439
cpu0_L2C RFO       ACCESS:    2420749  HIT:    1399183  MISS:    1021566
cpu0_L2C PREFETCH  ACCESS:          0  HIT:          0  MISS:          0
cpu0_L2C WRITEBACK ACCESS:    3203830  HIT:    3202472  MISS:       1358
cpu0_L2C TRANSLATION ACCESS:       9174  HIT:       8522  MISS:        652
cpu0_L2C PREFETCH  REQUESTED:          0  ISSUED:          0  USEFUL:          0  USELESS:          0
cpu0_L2C AVERAGE MISS LATENCY: 490.746 cycles
LLC TOTAL     ACCESS:    3781051  HIT:     281988  MISS:    3499063
LLC LOAD      ACCESS:    1237438  HIT:     107274  MISS:    1130164
LLC RFO       ACCESS:    1021566  HIT:      54898  MISS:     966668
LLC PREFETCH  ACCESS:          0  HIT:          0  MISS:          0
LLC WRITEBACK ACCESS:    1521395  HIT:     119771  MISS:    1401624
LLC TRANSLATION ACCESS:        652  HIT:         45  MISS:        607
LLC PREFETCH  REQUESTED:          0  ISSUED:          0  USEFUL:          0  USELESS:          0
LLC AVERAGE MISS LATENCY: 303.547 cycles
~~~~~~~~~~Reuse Distance Profiler output~~~~~~~~~~
0	0	0
1	0	0
2	0	0
3	0	0
4	0	0
5	0	0
6	0	0
7	0	0
8	0	0
9	0	0
10	0	0
11	0	0
12	0	0
13	0	0
14	0	0
15	0	0
16	0	0
17	0	0
18	0	0
19	0	0
20	0	0
21	0	0
22	0	0
23	0	0
24	0	0
25	0	0
26	0	0
27	0	0
28	0	0
29	0	0
30	0	0
31	0	0
32	0	0
33	0	0
34	0	0
35	0	0
36	0	0
37	0	0
38	0	0
39	0	0
40	0	0
41	0	0
42	0	0
43	0	0
44	0	0
45	0	0
46	0	0
47	0	0
48	0	0
49	0	0
50	0	0
51	0	0
52	0	0
53	0	0
54	0	0
55	0	0
56	0	0
57	0	0
58	0	0
59	0	0
60	0	0
61	0	0
62	0	0
63	0	0
64	0	0
66	0	0
68	0	0
70	0	0
72	0	0
74	0	0
76	0	0
78	0	0
80	0	0
82	0	0
84	0	0
86	0	0
88	0	0
90	0	0
92	0	0
94	0	0
96	0	0
98	0	0
100	0	0
102	0	0
104	0	0
106	0	0
108	0	0
110	0	0
112	0	0
114	0	0
116	0	0
118	0	0
120	0	0
122	0	0
124	0	0
126	0	0
128	0	0
132	0	0
136	0	0
140	0	0
144	0	0
148	0	0
152	0	0
156	0	0
160	0	0
164	0	0
168	0	0
172	0	0
176	0	0
180	0	0
184	0	0
188	0	0
192	0	0
196	0	0
200	0	0
204	0	0
208	0	0
212	0	0
216	0	0
220	0	0
224	0	0
228	0	0
232	0	0
236	0	0
240	0	0
244	0	0
248	0	0
252	0	0
256	0	0
264	0	0
272	0	0
280	0	0
288	0	0
296	0	0
304	0	0
312	0	0
320	0	0
328	0	0
336	0	0
344	0	0
352	0	0
360	0	0
368	0	0
376	0	0
384	0	0
392	0	0
400	0	0
408	0	0
416	0	0
424	0	0
432	0	0
440	0	0
448	0	0
456	0	0
464	0	0
472	0	0
480	0	0
488	0	0
496	0	0
504	0	0
512	0	0
528	0	0
544	0	0
560	0	0
576	0	0
592	0	0
608	0	0
624	0	0
640	0	0
656	0	0
672	0	0
688	0	0
704	0	0
720	0	0
736	0	0
752	0	0
768	0	0
784	0	0
800	0	0
816	0	0
832	0	0
848	0	0
864	0	0
880	0	0
896	0	0
912	0	0
928	0	0
944	0	0
960	0	0
976	0	0
992	0	0
1008	0	0
1024	0	0
1056	0	0
1088	0	0
1120	0	0
1152	0	0
1184	0	0
1216	0	0
1248	0	0
1280	0	0
1312	0	0
1344	0	0
1376	0	0
1408	0	0
1440	0	0
1472	0	0
1504	0	0
1536	0	0
1568	0	0
1600	0	0
1632	0	0
1664	0	0
1696	0	0
1728	0	0
1760	0	0
1792	0	0
1824	0	0
1856	0	0
1888	0	0
1920	0	0
1952	0	0
1984	0	0
2016	0	0
2048	0	0
2112	0	0
2176	0	0
2240	0	0
2304	0	0
2368	0	0
2432	0	0
2496	0	0
2560	0	0
2624	0	0
2688	0	0
2752	0	0
2816	0	0
2880	0	0
2944	0	0
3008	0	0
3072	0	0
3136	0	0
3200	0	0
3264	0	0
3328	0	0
3392	0	0
3456	0	0
3520	0	0
3584	0	0
3648	0	0
3712	0	0
3776	0	0
3840	0	0
3904	0	0
3968	0	0
4032	0	0
4096	0	0
4224	0	0
4352	0	0
4480	0	0
4608	0	0
4736	0	0
4864	0	0
4992	0	0
5120	0	0
5248	0	0
5376	0	0
5504	0	0
5632	0	0
5760	0	0
5888	0	0
6016	0	0
6144	0	0
6272	0	0
6400	0	0
6528	0	0
6656	0	0
6784	0	0
6912	0	0
7040	0	0
7168	0	0
7296	0	0
7424	0	0
7552	0	0
7680	0	0
7808	0	0
7936	0	0
8064	0	0
8192	0	0
8448	0	0
8704	0	0
8960	0	0
9216	0	0
9472	0	0
9728	0	0
9984	0	0
10240	0	0
10496	0	0
10752	0	0
11008	0	0
11264	0	0
11520	0	0
11776	0	0
12032	0	0
12288	0	0
12544	0	0
12800	0	0
13056	0	0
13312	0	0
13568	0	0
13824	0	0
14080	0	0
14336	0	0
14592	0	0
14848	0	0
15104	0	0
15360	0	0
15616	0	0
15872	0	0
16128	0	0
16384	0	0
16896	0	0
17408	0	0
17920	0	0
18432	0	0
18944	0	0
19456	0	0
19968	0	0
20480	0	0
20992	0	0
21504	0	0
22016	0	0
22528	0	0
23040	0	0
23552	0	0
24064	0	0
24576	0	0
25088	0	0
25600	0	0
26112	0	0
26624	0	0
27136	0	0
27648	0	0
28160	0	0
28672	0	0
29184	0	0
29696	0	0
30208	0	0
30720	0	0
31232	0	0
31744	0	0
32256	0	0
32768	0	0
33792	0	0
34816	0	0
35840	0	0
36864	0	0
37888	0	0
38912	0	0
39936	0	0
40960	0	0
41984	0	0
43008	0	0
44032	0	0
45056	0	0
46080	0	0
47104	0	0
48128	0	0
49152	0	0
50176	0	0
51200	0	0
52224	0	0
53248	0	0
54272	0	0
55296	0	0
56320	0	0
57344	0	0
58368	0	0
59392	0	0
60416	0	0
61440	0	0
62464	0	0
63488	0	0
64512	0	0
65536	0	0
67584	0	0
69632	0	0
71680	0	0
73728	0	0
75776	0	0
77824	0	0
79872	0	0
81920	0	0
83968	0	0
86016	0	0
88064	0	0
90112	0	0
92160	0	0
94208	0	0
96256	0	0
98304	0	0
100352	0	0
102400	0	0
104448	0	0
106496	0	0
108544	0	0
110592	0	0
112640	0	0
114688	0	0
116736	0	0
118784	0	0
120832	0	0
122880	0	0
124928	0	0
126976	0	0
129024	0	0
131072	0	0
135168	0	0
139264	0	0
143360	0	0
147456	0	0
151552	0	0
155648	0	0
159744	0	0
163840	0	0
167936	0	0
172032	0	0
176128	0	0
180224	0	0
184320	0	0
188416	0	0
192512	0	0
196608	0	0
200704	0	0
204800	0	0
208896	0	0
212992	0	0
217088	0	0
221184	0	0
225280	0	0
229376	0	0
233472	0	0
237568	0	0
241664	0	0
245760	0	0
249856	0	0
253952	0	0
258048	0	0
262144	0	0
270336	0	0
278528	0	0
286720	0	0
294912	0	0
303104	0	0
311296	0	0
319488	0	0
327680	0	0
335872	0	0
344064	0	0
352256	0	0
360448	0	0
368640	0	0
376832	0	0
385024	0	0
393216	0	0
401408	0	0
409600	0	0
417792	0	0
425984	0	0
434176	0	0
442368	0	0
450560	0	0
458752	0	0
466944	0	0
475136	0	0
483328	0	0
491520	0	0
499712	0	0
507904	0	0
516096	0	0
524288	0	0
540672	0	0
557056	0	0
573440	0	0
589824	0	0
606208	0	0
622592	0	0
638976	0	0
655360	0	0
671744	0	0
688128	0	0
704512	0	0
720896	0	0
737280	0	0
753664	0	0
770048	0	0
786432	0	0
802816	0	0
819200	0	0
835584	0	0
851968	0	0
868352	0	0
884736	0	0
901120	0	0
917504	0	0
933888	0	0
950272	0	0
966656	0	0
983040	0	0
999424	0	0
1015808	0	0
1032192	0	0
1048576	0	0
1081344	0	0
1114112	0	0
1146880	0	0
1179648	0	0
1212416	0	0
1245184	0	0
1277952	0	0
1310720	0	0
1343488	0	0
1376256	0	0
1409024	0	0
1441792	0	0
1474560	0	0
1507328	0	0
1540096	0	0
1572864	0	0
1605632	0	0
1638400	0	0
1671168	0	0
1703936	0	0
1736704	0	0
1769472	0	0
1802240	0	0
1835008	0	0
1867776	0	0
1900544	0	0
1933312	0	0
1966080	0	0
1998848	0	0
2031616	0	0
2064384	0	0
2097152	0	0
2162688	0	0
2228224	0	0
2293760	0	0
2359296	0	0
2424832	0	0
2490368	0	0
2555904	0	0
2621440	0	0
2686976	0	0
2752512	0	0
2818048	0	0
2883584	0	0
2949120	0	0
3014656	0	0
3080192	0	0
3145728	0	0
3211264	0	0
3276800	0	0
3342336	0	0
3407872	0	0
3473408	0	0
3538944	0	0
3604480	0	0
3670016	0	0
3735552	0	0
3801088	0	0
3866624	0	0
3932160	0	0
3997696	0	0
4063232	0	0
4128768	0	0
4194304	0	0
4325376	0	0
4456448	0	0
4587520	0	0
4718592	0	0
4849664	0	0
4980736	0	0
5111808	0	0
5242880	0	0
5373952	0	0
5505024	0	0
5636096	0	0
5767168	0	0
5898240	0	0
6029312	0	0
6160384	0	0
6291456	0	0
6422528	0	0
6553600	0	0
6684672	0	0
6815744	0	0
6946816	0	0
7077888	0	0
7208960	0	0
7340032	0	0
7471104	0	0
7602176	0	0
7733248	0	0
7864320	0	0
7995392	0	0
8126464	0	0
8257536	0	0
8388608	0	0
8650752	0	0
8912896	0	0
9175040	0	0
9437184	0	0
9699328	0	0
9961472	0	0
10223616	0	0
10485760	0	0
10747904	0	0
11010048	0	0
11272192	0	0
11534336	0	0
11796480	0	0
12058624	0	0
12320768	0	0
12582912	0	0
12845056	0	0
13107200	0	0
13369344	0	0
13631488	0	0
13893632	0	0
14155776	0	0
14417920	0	0
14680064	0	0
14942208	0	0
15204352	0	0
15466496	0	0
15728640	0	0
15990784	0	0
16252928	0	0
16515072	0	0
16777216	0	0
17301504	0	0
17825792	0	0
18350080	0	0
18874368	0	0
19398656	0	0
19922944	0	0
20447232	0	0
20971520	0	0
21495808	0	0
22020096	0	0
22544384	0	0
23068672	0	0
23592960	0	0
24117248	0	0
24641536	0	0
25165824	0	0
25690112	0	0
26214400	0	0
26738688	0	0
27262976	0	0
27787264	0	0
28311552	0	0
28835840	0	0
29360128	0	0
29884416	0	0
30408704	0	0
30932992	0	0
31457280	0	0
31981568	0	0
32505856	0	0
33030144	0	0
33554432	0	0
34603008	0	0
35651584	0	0
36700160	0	0
37748736	0	0
38797312	0	0
39845888	0	0
40894464	0	0
41943040	0	0
42991616	0	0
44040192	0	0
45088768	0	0
46137344	0	0
47185920	0	0
48234496	0	0
49283072	0	0
50331648	0	0
51380224	0	0
52428800	0	0
53477376	0	0
54525952	0	0
55574528	0	0
56623104	0	0
57671680	0	0
58720256	0	0
59768832	0	0
60817408	0	0
61865984	0	0
62914560	0	0
63963136	0	0
65011712	0	0
66060288	0	0
67108864	0	0
69206016	0	0
71303168	0	0
73400320	0	0
75497472	0	0
77594624	0	0
79691776	0	0
81788928	0	0
83886080	0	0
85983232	0	0
88080384	0	0
90177536	0	0
92274688	0	0
94371840	0	0
96468992	0	0
98566144	0	0
100663296	0	0
102760448	0	0
104857600	0	0
106954752	0	0
109051904	0	0
111149056	0	0
113246208	0	0
115343360	0	0
117440512	0	0
119537664	0	0
121634816	0	0
123731968	0	0
125829120	0	0
127926272	0	0
130023424	0	0
132120576	0	0
134217728	0	0
138412032	0	0
142606336	0	0
146800640	0	0
150994944	0	0
155189248	0	0
159383552	0	0
163577856	0	0
167772160	0	0
171966464	0	0
176160768	0	0
180355072	0	0
184549376	0	0
188743680	0	0
192937984	0	0
197132288	0	0
201326592	0	0
205520896	0	0
209715200	0	0
213909504	0	0
218103808	0	0
222298112	0	0
226492416	0	0
230686720	0	0
234881024	0	0
239075328	0	0
243269632	0	0
247463936	0	0
251658240	0	0
255852544	0	0
260046848	0	0
264241152	0	0
268435456	0	0
276824064	0	0
285212672	0	0
293601280	0	0
301989888	0	0
310378496	0	0
318767104	0	0
327155712	0	0
335544320	0	0
343932928	0	0
352321536	0	0
360710144	0	0
369098752	0	0
377487360	0	0
385875968	0	0
394264576	0	0
402653184	0	0
411041792	0	0
419430400	0	0
427819008	0	0
436207616	0	0
444596224	0	0
452984832	0	0
461373440	0	0
469762048	0	0
478150656	0	0
486539264	0	0
494927872	0	0
503316480	0	0
511705088	0	0
520093696	0	0
528482304	0	0
536870912	0	0
553648128	0	0
570425344	0	0
587202560	0	0
603979776	0	0
620756992	0	0
637534208	0	0
654311424	0	0
671088640	0	0
687865856	0	0
704643072	0	0
721420288	0	0
738197504	0	0
754974720	0	0
771751936	0	0
788529152	0	0
805306368	0	0
822083584	0	0
838860800	0	0
855638016	0	0
872415232	0	0
889192448	0	0
905969664	0	0
922746880	0	0
939524096	0	0
956301312	0	0
973078528	0	0
989855744	0	0
1006632960	0	0
1023410176	0	0
1040187392	0	0
1056964608	0	0
1073741824	0	0
1107296256	0	0
1140850688	0	0
1174405120	0	0
1207959552	0	0
1241513984	0	0
1275068416	0	0
1308622848	0	0
1342177280	0	0
1375731712	0	0
1409286144	0	0
1442840576	0	0
1476395008	0	0
1509949440	0	0
1543503872	0	0
1577058304	0	0
1610612736	0	0
1644167168	0	0
1677721600	0	0
1711276032	0	0
1744830464	0	0
1778384896	0	0
1811939328	0	0
1845493760	0	0
1879048192	0	0
1912602624	0	0
1946157056	0	0
1979711488	0	0
2013265920	0	0
2046820352	0	0
2080374784	0	0
2113929216	0	0
2147483648	0	0
2214592512	0	0
2281701376	0	0
2348810240	0	0
2415919104	0	0
2483027968	0	0
2550136832	0	0
2617245696	0	0
2684354560	0	0
2751463424	0	0
2818572288	0	0
2885681152	0	0
2952790016	0	0
3019898880	0	0
3087007744	0	0
3154116608	0	0
3221225472	0	0
3288334336	0	0
3355443200	0	0
3422552064	0	0
3489660928	0	0
3556769792	0	0
3623878656	0	0
3690987520	0	0
3758096384	0	0
3825205248	0	0
3892314112	0	0
3959422976	0	0
4026531840	0	0
4093640704	0	0
4160749568	0	0
4227858432	0	0
~~~~~~~~~~Reuse Distance Profiler output end~~~~~~~~~~


DRAM Statistics
 CHANNEL 0
 RQ ROW_BUFFER_HIT:     318174  ROW_BUFFER_MISS:    1777848
 DBUS AVG_CONGESTED_CYCLE:    3.97407
 WQ ROW_BUFFER_HIT:     286208  ROW_BUFFER_MISS:    1220206  FULL:          0


CPU 0 Branch Prediction Accuracy: 85.9357% MPKI: 26.413 Average ROB Occupancy at Mispredict: 12.9057
Branch type MPKI
BRANCH_DIRECT_JUMP: 0.000749333
BRANCH_INDIRECT: 0.000144
BRANCH_CONDITIONAL: 26.3881
BRANCH_DIRECT_CALL: 0.00154133
BRANCH_INDIRECT_CALL: 0.019134
BRANCH_RETURN: 0.00333067

