
*** ChampSim Multicore Out-of-Order Simulator ***

Warmup Instructions: 50000000
Simulation Instructions: 1500000000
Number of CPUs: 1
Off-chip DRAM Size: 4 GiB Channels: 1 Width: 64-bit Data Rate: 3200 MT/s

VirtualMemory physical capacity: 8588881920 num_ppages: 2096895
VirtualMemory page size: 4096 log2_page_size: 12

CPU 0 runs traces/459.GemsFDTD-1320B.champsimtrace.xz
CPU 0 Bimodal branch predictor
Basic BTB sets: 1024 ways: 8 indirect buffer size: 4096 RAS size: 64
Initializing LRU.
Initializing LRU.
Initializing LRU.
Initializing LRU.
Initializing rdLRU.
Initializing LRU.
Initializing LRU.
Heartbeat CPU 0 instructions: 2000001 cycles: 1035842 heartbeat IPC: 1.9308 cumulative IPC: 1.9308 (Simulation time: 0 hr 2 min 9 sec) 
Heartbeat CPU 0 instructions: 4000000 cycles: 2071900 heartbeat IPC: 1.93039 cumulative IPC: 1.9306 (Simulation time: 0 hr 4 min 24 sec) 
Heartbeat CPU 0 instructions: 6000001 cycles: 3107993 heartbeat IPC: 1.93033 cumulative IPC: 1.93051 (Simulation time: 0 hr 6 min 27 sec) 
Heartbeat CPU 0 instructions: 8000000 cycles: 4144041 heartbeat IPC: 1.93041 cumulative IPC: 1.93048 (Simulation time: 0 hr 8 min 40 sec) 
Heartbeat CPU 0 instructions: 10000001 cycles: 5180100 heartbeat IPC: 1.93039 cumulative IPC: 1.93046 (Simulation time: 0 hr 10 min 50 sec) 
Heartbeat CPU 0 instructions: 12000000 cycles: 6216158 heartbeat IPC: 1.93039 cumulative IPC: 1.93045 (Simulation time: 0 hr 13 min 4 sec) 
Heartbeat CPU 0 instructions: 14000002 cycles: 7280254 heartbeat IPC: 1.87953 cumulative IPC: 1.92301 (Simulation time: 0 hr 15 min 27 sec) 
Heartbeat CPU 0 instructions: 16000003 cycles: 8348803 heartbeat IPC: 1.8717 cumulative IPC: 1.91644 (Simulation time: 0 hr 17 min 52 sec) 
Heartbeat CPU 0 instructions: 18000000 cycles: 9417341 heartbeat IPC: 1.87171 cumulative IPC: 1.91137 (Simulation time: 0 hr 20 min 9 sec) 
Heartbeat CPU 0 instructions: 20000002 cycles: 10485882 heartbeat IPC: 1.87171 cumulative IPC: 1.90733 (Simulation time: 0 hr 22 min 24 sec) 
Heartbeat CPU 0 instructions: 22000004 cycles: 11554433 heartbeat IPC: 1.8717 cumulative IPC: 1.90403 (Simulation time: 0 hr 24 min 49 sec) 
Heartbeat CPU 0 instructions: 24000001 cycles: 12622967 heartbeat IPC: 1.87172 cumulative IPC: 1.9013 (Simulation time: 0 hr 27 min 8 sec) 
Heartbeat CPU 0 instructions: 26000002 cycles: 13691518 heartbeat IPC: 1.87169 cumulative IPC: 1.89899 (Simulation time: 0 hr 29 min 28 sec) 
Heartbeat CPU 0 instructions: 28000001 cycles: 14760045 heartbeat IPC: 1.87173 cumulative IPC: 1.89701 (Simulation time: 0 hr 31 min 45 sec) 
Heartbeat CPU 0 instructions: 30000001 cycles: 15828576 heartbeat IPC: 1.87173 cumulative IPC: 1.89531 (Simulation time: 0 hr 34 min 3 sec) 
Heartbeat CPU 0 instructions: 32000000 cycles: 16897107 heartbeat IPC: 1.87173 cumulative IPC: 1.89382 (Simulation time: 0 hr 36 min 25 sec) 
Heartbeat CPU 0 instructions: 34000001 cycles: 17965639 heartbeat IPC: 1.87173 cumulative IPC: 1.8925 (Simulation time: 0 hr 38 min 40 sec) 
Heartbeat CPU 0 instructions: 36000002 cycles: 19034165 heartbeat IPC: 1.87174 cumulative IPC: 1.89134 (Simulation time: 0 hr 40 min 45 sec) 
Heartbeat CPU 0 instructions: 38000001 cycles: 20102697 heartbeat IPC: 1.87173 cumulative IPC: 1.89029 (Simulation time: 0 hr 42 min 52 sec) 
Heartbeat CPU 0 instructions: 40000001 cycles: 21171225 heartbeat IPC: 1.87173 cumulative IPC: 1.88936 (Simulation time: 0 hr 45 min 8 sec) 
Heartbeat CPU 0 instructions: 42000001 cycles: 22239755 heartbeat IPC: 1.87173 cumulative IPC: 1.88851 (Simulation time: 0 hr 47 min 18 sec) 
Heartbeat CPU 0 instructions: 44000000 cycles: 23291517 heartbeat IPC: 1.90157 cumulative IPC: 1.8891 (Simulation time: 0 hr 49 min 33 sec) 
Heartbeat CPU 0 instructions: 46000000 cycles: 24327033 heartbeat IPC: 1.9314 cumulative IPC: 1.8909 (Simulation time: 0 hr 51 min 46 sec) 
Heartbeat CPU 0 instructions: 48000002 cycles: 25362549 heartbeat IPC: 1.93141 cumulative IPC: 1.89255 (Simulation time: 0 hr 54 min 0 sec) 
Heartbeat CPU 0 instructions: 50000001 cycles: 26398057 heartbeat IPC: 1.93142 cumulative IPC: 1.89408 (Simulation time: 0 hr 56 min 17 sec) 

Warmup complete CPU 0 instructions: 50000001 cycles: 26398057 (Simulation time: 0 hr 56 min 17 sec) 

Heartbeat CPU 0 instructions: 52000003 cycles: 28954641 heartbeat IPC: 0.782295 cumulative IPC: 0.782295 (Simulation time: 0 hr 59 min 13 sec) 

Region of Interest Statistics
cpu0_DTLB TOTAL     ACCESS:     784680  HIT:     757173  MISS:      27507
cpu0_DTLB LOAD      ACCESS:     721864  HIT:     694385  MISS:      27479
cpu0_DTLB RFO       ACCESS:      62816  HIT:      62788  MISS:         28
cpu0_DTLB PREFETCH  ACCESS:          0  HIT:          0  MISS:          0
cpu0_DTLB WRITEBACK ACCESS:          0  HIT:          0  MISS:          0
cpu0_ITLB TOTAL     ACCESS:      38465  HIT:      38465  MISS:          0
cpu0_ITLB LOAD      ACCESS:      38465  HIT:      38465  MISS:          0
cpu0_ITLB RFO       ACCESS:          0  HIT:          0  MISS:          0
cpu0_ITLB PREFETCH  ACCESS:          0  HIT:          0  MISS:          0
cpu0_ITLB WRITEBACK ACCESS:          0  HIT:          0  MISS:          0
cpu0_L1I TOTAL     ACCESS:     196659  HIT:     196659  MISS:          0
cpu0_L1I LOAD      ACCESS:     196659  HIT:     196659  MISS:          0
cpu0_L1I RFO       ACCESS:          0  HIT:          0  MISS:          0
cpu0_L1I PREFETCH  ACCESS:          0  HIT:          0  MISS:          0
cpu0_L1I WRITEBACK ACCESS:          0  HIT:          0  MISS:          0
cpu0_STLB TOTAL     ACCESS:      27507  HIT:      22489  MISS:       5018
cpu0_STLB LOAD      ACCESS:      27479  HIT:      22461  MISS:       5018
cpu0_STLB RFO       ACCESS:         28  HIT:         28  MISS:          0
cpu0_STLB PREFETCH  ACCESS:          0  HIT:          0  MISS:          0
cpu0_STLB WRITEBACK ACCESS:          0  HIT:          0  MISS:          0
cpu0_L1D TOTAL     ACCESS:     944701  HIT:     858598  MISS:      86103
cpu0_L1D LOAD      ACCESS:     873920  HIT:     788174  MISS:      85746
cpu0_L1D RFO       ACCESS:      65763  HIT:      65763  MISS:          0
cpu0_L1D PREFETCH  ACCESS:          0  HIT:          0  MISS:          0
cpu0_L1D WRITEBACK ACCESS:          0  HIT:          0  MISS:          0
cpu0_L2C TOTAL     ACCESS:     106100  HIT:      79938  MISS:      26162
cpu0_L2C LOAD      ACCESS:      85746  HIT:      59587  MISS:      26159
cpu0_L2C RFO       ACCESS:          0  HIT:          0  MISS:          0
cpu0_L2C PREFETCH  ACCESS:          0  HIT:          0  MISS:          0
cpu0_L2C WRITEBACK ACCESS:      19997  HIT:      19997  MISS:          0
LLC TOTAL     ACCESS:      26201  HIT:         38  MISS:      26163
LLC LOAD      ACCESS:      26159  HIT:         38  MISS:      26121
LLC RFO       ACCESS:          0  HIT:          0  MISS:          0
LLC PREFETCH  ACCESS:          0  HIT:          0  MISS:          0
LLC WRITEBACK ACCESS:         39  HIT:          0  MISS:         39
Heartbeat CPU 0 instructions: 54000000 cycles: 31514084 heartbeat IPC: 0.781419 cumulative IPC: 0.781856 (Simulation time: 1 hr 2 min 20 sec) 

Region of Interest Statistics
cpu0_DTLB TOTAL     ACCESS:    1569205  HIT:    1514180  MISS:      55025
cpu0_DTLB LOAD      ACCESS:    1443505  HIT:    1388539  MISS:      54966
cpu0_DTLB RFO       ACCESS:     125700  HIT:     125641  MISS:         59
cpu0_DTLB PREFETCH  ACCESS:          0  HIT:          0  MISS:          0
cpu0_DTLB WRITEBACK ACCESS:          0  HIT:          0  MISS:          0
cpu0_ITLB TOTAL     ACCESS:      76929  HIT:      76929  MISS:          0
cpu0_ITLB LOAD      ACCESS:      76929  HIT:      76929  MISS:          0
cpu0_ITLB RFO       ACCESS:          0  HIT:          0  MISS:          0
cpu0_ITLB PREFETCH  ACCESS:          0  HIT:          0  MISS:          0
cpu0_ITLB WRITEBACK ACCESS:          0  HIT:          0  MISS:          0
cpu0_L1I TOTAL     ACCESS:     393323  HIT:     393323  MISS:          0
cpu0_L1I LOAD      ACCESS:     393323  HIT:     393323  MISS:          0
cpu0_L1I RFO       ACCESS:          0  HIT:          0  MISS:          0
cpu0_L1I PREFETCH  ACCESS:          0  HIT:          0  MISS:          0
cpu0_L1I WRITEBACK ACCESS:          0  HIT:          0  MISS:          0
cpu0_STLB TOTAL     ACCESS:      55025  HIT:      44985  MISS:      10040
cpu0_STLB LOAD      ACCESS:      54966  HIT:      44926  MISS:      10040
cpu0_STLB RFO       ACCESS:         59  HIT:         59  MISS:          0
cpu0_STLB PREFETCH  ACCESS:          0  HIT:          0  MISS:          0
cpu0_STLB WRITEBACK ACCESS:          0  HIT:          0  MISS:          0
cpu0_L1D TOTAL     ACCESS:    1889316  HIT:    1717115  MISS:     172201
cpu0_L1D LOAD      ACCESS:    1747748  HIT:    1576262  MISS:     171486
cpu0_L1D RFO       ACCESS:     131527  HIT:     131527  MISS:          0
cpu0_L1D PREFETCH  ACCESS:          0  HIT:          0  MISS:          0
cpu0_L1D WRITEBACK ACCESS:          0  HIT:          0  MISS:          0
cpu0_L2C TOTAL     ACCESS:     212207  HIT:     159876  MISS:      52331
cpu0_L2C LOAD      ACCESS:     171486  HIT:     119163  MISS:      52323
cpu0_L2C RFO       ACCESS:          0  HIT:          0  MISS:          0
cpu0_L2C PREFETCH  ACCESS:          0  HIT:          0  MISS:          0
cpu0_L2C WRITEBACK ACCESS:      40006  HIT:      40006  MISS:          0
LLC TOTAL     ACCESS:      52398  HIT:         66  MISS:      52332
LLC LOAD      ACCESS:      52323  HIT:         66  MISS:      52257
LLC RFO       ACCESS:          0  HIT:          0  MISS:          0
LLC PREFETCH  ACCESS:          0  HIT:          0  MISS:          0
LLC WRITEBACK ACCESS:         67  HIT:          0  MISS:         67
Heartbeat CPU 0 instructions: 56000000 cycles: 34127863 heartbeat IPC: 0.765176 cumulative IPC: 0.776216 (Simulation time: 1 hr 5 min 26 sec) 

Region of Interest Statistics
cpu0_DTLB TOTAL     ACCESS:    2340000  HIT:    2257671  MISS:      82329
cpu0_DTLB LOAD      ACCESS:    2152251  HIT:    2070006  MISS:      82245
cpu0_DTLB RFO       ACCESS:     187749  HIT:     187665  MISS:         84
cpu0_DTLB PREFETCH  ACCESS:          0  HIT:          0  MISS:          0
cpu0_DTLB WRITEBACK ACCESS:          0  HIT:          0  MISS:          0
cpu0_ITLB TOTAL     ACCESS:     114165  HIT:     114165  MISS:          0
cpu0_ITLB LOAD      ACCESS:     114165  HIT:     114165  MISS:          0
cpu0_ITLB RFO       ACCESS:          0  HIT:          0  MISS:          0
cpu0_ITLB PREFETCH  ACCESS:          0  HIT:          0  MISS:          0
cpu0_ITLB WRITEBACK ACCESS:          0  HIT:          0  MISS:          0
cpu0_L1I TOTAL     ACCESS:     588770  HIT:     588736  MISS:         34
cpu0_L1I LOAD      ACCESS:     588770  HIT:     588736  MISS:         34
cpu0_L1I RFO       ACCESS:          0  HIT:          0  MISS:          0
cpu0_L1I PREFETCH  ACCESS:          0  HIT:          0  MISS:          0
cpu0_L1I WRITEBACK ACCESS:          0  HIT:          0  MISS:          0
cpu0_STLB TOTAL     ACCESS:      82329  HIT:      66562  MISS:      15767
cpu0_STLB LOAD      ACCESS:      82245  HIT:      66478  MISS:      15767
cpu0_STLB RFO       ACCESS:         84  HIT:         84  MISS:          0
cpu0_STLB PREFETCH  ACCESS:          0  HIT:          0  MISS:          0
cpu0_STLB WRITEBACK ACCESS:          0  HIT:          0  MISS:          0
cpu0_L1D TOTAL     ACCESS:    2829687  HIT:    2571617  MISS:     258070
cpu0_L1D LOAD      ACCESS:    2616806  HIT:    2359806  MISS:     257000
cpu0_L1D RFO       ACCESS:     197117  HIT:     197116  MISS:          1
cpu0_L1D PREFETCH  ACCESS:          0  HIT:          0  MISS:          0
cpu0_L1D WRITEBACK ACCESS:          0  HIT:          0  MISS:          0
cpu0_L2C TOTAL     ACCESS:     318055  HIT:     238302  MISS:      79753
cpu0_L2C LOAD      ACCESS:     257034  HIT:     177312  MISS:      79722
cpu0_L2C RFO       ACCESS:          1  HIT:          0  MISS:          1
cpu0_L2C PREFETCH  ACCESS:          0  HIT:          0  MISS:          0
cpu0_L2C WRITEBACK ACCESS:      59951  HIT:      59951  MISS:          0
LLC TOTAL     ACCESS:      79859  HIT:        104  MISS:      79755
LLC LOAD      ACCESS:      79722  HIT:        104  MISS:      79618
LLC RFO       ACCESS:          1  HIT:          0  MISS:          1
LLC PREFETCH  ACCESS:          0  HIT:          0  MISS:          0
LLC WRITEBACK ACCESS:        106  HIT:          0  MISS:        106
Heartbeat CPU 0 instructions: 58000004 cycles: 36702674 heartbeat IPC: 0.776758 cumulative IPC: 0.776351 (Simulation time: 1 hr 8 min 34 sec) 

Region of Interest Statistics
cpu0_DTLB TOTAL     ACCESS:    3095874  HIT:    2986389  MISS:     109485
cpu0_DTLB LOAD      ACCESS:    2846895  HIT:    2737505  MISS:     109390
cpu0_DTLB RFO       ACCESS:     248979  HIT:     248884  MISS:         95
cpu0_DTLB PREFETCH  ACCESS:          0  HIT:          0  MISS:          0
cpu0_DTLB WRITEBACK ACCESS:          0  HIT:          0  MISS:          0
cpu0_ITLB TOTAL     ACCESS:     150127  HIT:     150127  MISS:          0
cpu0_ITLB LOAD      ACCESS:     150127  HIT:     150127  MISS:          0
cpu0_ITLB RFO       ACCESS:          0  HIT:          0  MISS:          0
cpu0_ITLB PREFETCH  ACCESS:          0  HIT:          0  MISS:          0
cpu0_ITLB WRITEBACK ACCESS:          0  HIT:          0  MISS:          0
cpu0_L1I TOTAL     ACCESS:     782895  HIT:     782861  MISS:         34
cpu0_L1I LOAD      ACCESS:     782895  HIT:     782861  MISS:         34
cpu0_L1I RFO       ACCESS:          0  HIT:          0  MISS:          0
cpu0_L1I PREFETCH  ACCESS:          0  HIT:          0  MISS:          0
cpu0_L1I WRITEBACK ACCESS:          0  HIT:          0  MISS:          0
cpu0_STLB TOTAL     ACCESS:     109485  HIT:      88725  MISS:      20760
cpu0_STLB LOAD      ACCESS:     109390  HIT:      88630  MISS:      20760
cpu0_STLB RFO       ACCESS:         95  HIT:         95  MISS:          0
cpu0_STLB PREFETCH  ACCESS:          0  HIT:          0  MISS:          0
cpu0_STLB WRITEBACK ACCESS:          0  HIT:          0  MISS:          0
cpu0_L1D TOTAL     ACCESS:    3764341  HIT:    3420671  MISS:     343670
cpu0_L1D LOAD      ACCESS:    3481061  HIT:    3138807  MISS:     342254
cpu0_L1D RFO       ACCESS:     262523  HIT:     262522  MISS:          1
cpu0_L1D PREFETCH  ACCESS:          0  HIT:          0  MISS:          0
cpu0_L1D WRITEBACK ACCESS:          0  HIT:          0  MISS:          0
cpu0_L2C TOTAL     ACCESS:     423515  HIT:     317629  MISS:     105886
cpu0_L2C LOAD      ACCESS:     342288  HIT:     236439  MISS:     105849
cpu0_L2C RFO       ACCESS:          1  HIT:          0  MISS:          1
cpu0_L2C PREFETCH  ACCESS:          0  HIT:          0  MISS:          0
cpu0_L2C WRITEBACK ACCESS:      79811  HIT:      79811  MISS:          0
LLC TOTAL     ACCESS:     106041  HIT:        153  MISS:     105888
LLC LOAD      ACCESS:     105849  HIT:        153  MISS:     105696
LLC RFO       ACCESS:          1  HIT:          0  MISS:          1
LLC PREFETCH  ACCESS:          0  HIT:          0  MISS:          0
LLC WRITEBACK ACCESS:        155  HIT:          0  MISS:        155
Heartbeat CPU 0 instructions: 60000002 cycles: 39277968 heartbeat IPC: 0.77661 cumulative IPC: 0.776403 (Simulation time: 1 hr 11 min 38 sec) 

Region of Interest Statistics
cpu0_DTLB TOTAL     ACCESS:    3852054  HIT:    3715410  MISS:     136644
cpu0_DTLB LOAD      ACCESS:    3541826  HIT:    3405294  MISS:     136532
cpu0_DTLB RFO       ACCESS:     310228  HIT:     310116  MISS:        112
cpu0_DTLB PREFETCH  ACCESS:          0  HIT:          0  MISS:          0
cpu0_DTLB WRITEBACK ACCESS:          0  HIT:          0  MISS:          0
cpu0_ITLB TOTAL     ACCESS:     186087  HIT:     186087  MISS:          0
cpu0_ITLB LOAD      ACCESS:     186087  HIT:     186087  MISS:          0
cpu0_ITLB RFO       ACCESS:          0  HIT:          0  MISS:          0
cpu0_ITLB PREFETCH  ACCESS:          0  HIT:          0  MISS:          0
cpu0_ITLB WRITEBACK ACCESS:          0  HIT:          0  MISS:          0
cpu0_L1I TOTAL     ACCESS:     977112  HIT:     977078  MISS:         34
cpu0_L1I LOAD      ACCESS:     977112  HIT:     977078  MISS:         34
cpu0_L1I RFO       ACCESS:          0  HIT:          0  MISS:          0
cpu0_L1I PREFETCH  ACCESS:          0  HIT:          0  MISS:          0
cpu0_L1I WRITEBACK ACCESS:          0  HIT:          0  MISS:          0
cpu0_STLB TOTAL     ACCESS:     136644  HIT:     110883  MISS:      25761
cpu0_STLB LOAD      ACCESS:     136532  HIT:     110771  MISS:      25761
cpu0_STLB RFO       ACCESS:        112  HIT:        112  MISS:          0
cpu0_STLB PREFETCH  ACCESS:          0  HIT:          0  MISS:          0
cpu0_STLB WRITEBACK ACCESS:          0  HIT:          0  MISS:          0
cpu0_L1D TOTAL     ACCESS:    4698887  HIT:    4269616  MISS:     429271
cpu0_L1D LOAD      ACCESS:    4345198  HIT:    3917686  MISS:     427512
cpu0_L1D RFO       ACCESS:     327930  HIT:     327929  MISS:          1
cpu0_L1D PREFETCH  ACCESS:          0  HIT:          0  MISS:          0
cpu0_L1D WRITEBACK ACCESS:          0  HIT:          0  MISS:          0
cpu0_L2C TOTAL     ACCESS:     529010  HIT:     396973  MISS:     132037
cpu0_L2C LOAD      ACCESS:     427546  HIT:     295555  MISS:     131991
cpu0_L2C RFO       ACCESS:          1  HIT:          0  MISS:          1
cpu0_L2C PREFETCH  ACCESS:          0  HIT:          0  MISS:          0
cpu0_L2C WRITEBACK ACCESS:      99705  HIT:      99705  MISS:          0
LLC TOTAL     ACCESS:     132274  HIT:        234  MISS:     132040
LLC LOAD      ACCESS:     131991  HIT:        234  MISS:     131757
LLC RFO       ACCESS:          1  HIT:          0  MISS:          1
LLC PREFETCH  ACCESS:          0  HIT:          0  MISS:          0
LLC WRITEBACK ACCESS:        237  HIT:          0  MISS:        237
Heartbeat CPU 0 instructions: 62000003 cycles: 41860981 heartbeat IPC: 0.77429 cumulative IPC: 0.77605 (Simulation time: 1 hr 14 min 39 sec) 

Region of Interest Statistics
cpu0_DTLB TOTAL     ACCESS:    4608019  HIT:    4444214  MISS:     163805
cpu0_DTLB LOAD      ACCESS:    4236545  HIT:    4072866  MISS:     163679
cpu0_DTLB RFO       ACCESS:     371474  HIT:     371348  MISS:        126
cpu0_DTLB PREFETCH  ACCESS:          0  HIT:          0  MISS:          0
cpu0_DTLB WRITEBACK ACCESS:          0  HIT:          0  MISS:          0
cpu0_ITLB TOTAL     ACCESS:     222075  HIT:     222075  MISS:          0
cpu0_ITLB LOAD      ACCESS:     222075  HIT:     222075  MISS:          0
cpu0_ITLB RFO       ACCESS:          0  HIT:          0  MISS:          0
cpu0_ITLB PREFETCH  ACCESS:          0  HIT:          0  MISS:          0
cpu0_ITLB WRITEBACK ACCESS:          0  HIT:          0  MISS:          0
cpu0_L1I TOTAL     ACCESS:    1171263  HIT:    1171229  MISS:         34
cpu0_L1I LOAD      ACCESS:    1171263  HIT:    1171229  MISS:         34
cpu0_L1I RFO       ACCESS:          0  HIT:          0  MISS:          0
cpu0_L1I PREFETCH  ACCESS:          0  HIT:          0  MISS:          0
cpu0_L1I WRITEBACK ACCESS:          0  HIT:          0  MISS:          0
cpu0_STLB TOTAL     ACCESS:     163805  HIT:     133050  MISS:      30755
cpu0_STLB LOAD      ACCESS:     163679  HIT:     132924  MISS:      30755
cpu0_STLB RFO       ACCESS:        126  HIT:        126  MISS:          0
cpu0_STLB PREFETCH  ACCESS:          0  HIT:          0  MISS:          0
cpu0_STLB WRITEBACK ACCESS:          0  HIT:          0  MISS:          0
cpu0_L1D TOTAL     ACCESS:    5633710  HIT:    5118845  MISS:     514865
cpu0_L1D LOAD      ACCESS:    5209622  HIT:    4696861  MISS:     512761
cpu0_L1D RFO       ACCESS:     393336  HIT:     393335  MISS:          1
cpu0_L1D PREFETCH  ACCESS:          0  HIT:          0  MISS:          0
cpu0_L1D WRITEBACK ACCESS:          0  HIT:          0  MISS:          0
cpu0_L2C TOTAL     ACCESS:     634474  HIT:     475976  MISS:     158498
cpu0_L2C LOAD      ACCESS:     512795  HIT:     354350  MISS:     158445
cpu0_L2C RFO       ACCESS:          1  HIT:          0  MISS:          1
cpu0_L2C PREFETCH  ACCESS:          0  HIT:          0  MISS:          0
cpu0_L2C WRITEBACK ACCESS:     119575  HIT:     119575  MISS:          0
LLC TOTAL     ACCESS:     158922  HIT:        421  MISS:     158501
LLC LOAD      ACCESS:     158445  HIT:        421  MISS:     158024
LLC RFO       ACCESS:          1  HIT:          0  MISS:          1
LLC PREFETCH  ACCESS:          0  HIT:          0  MISS:          0
LLC WRITEBACK ACCESS:        424  HIT:          0  MISS:        424
Heartbeat CPU 0 instructions: 64000002 cycles: 44444026 heartbeat IPC: 0.77428 cumulative IPC: 0.775797 (Simulation time: 1 hr 17 min 49 sec) 

Region of Interest Statistics
cpu0_DTLB TOTAL     ACCESS:    5363799  HIT:    5172853  MISS:     190946
cpu0_DTLB LOAD      ACCESS:    4931047  HIT:    4740244  MISS:     190803
cpu0_DTLB RFO       ACCESS:     432752  HIT:     432609  MISS:        143
cpu0_DTLB PREFETCH  ACCESS:          0  HIT:          0  MISS:          0
cpu0_DTLB WRITEBACK ACCESS:          0  HIT:          0  MISS:          0
cpu0_ITLB TOTAL     ACCESS:     258050  HIT:     258050  MISS:          0
cpu0_ITLB LOAD      ACCESS:     258050  HIT:     258050  MISS:          0
cpu0_ITLB RFO       ACCESS:          0  HIT:          0  MISS:          0
cpu0_ITLB PREFETCH  ACCESS:          0  HIT:          0  MISS:          0
cpu0_ITLB WRITEBACK ACCESS:          0  HIT:          0  MISS:          0
cpu0_L1I TOTAL     ACCESS:    1365457  HIT:    1365423  MISS:         34
cpu0_L1I LOAD      ACCESS:    1365457  HIT:    1365423  MISS:         34
cpu0_L1I RFO       ACCESS:          0  HIT:          0  MISS:          0
cpu0_L1I PREFETCH  ACCESS:          0  HIT:          0  MISS:          0
cpu0_L1I WRITEBACK ACCESS:          0  HIT:          0  MISS:          0
cpu0_STLB TOTAL     ACCESS:     190946  HIT:     155194  MISS:      35752
cpu0_STLB LOAD      ACCESS:     190803  HIT:     155051  MISS:      35752
cpu0_STLB RFO       ACCESS:        143  HIT:        143  MISS:          0
cpu0_STLB PREFETCH  ACCESS:          0  HIT:          0  MISS:          0
cpu0_STLB WRITEBACK ACCESS:          0  HIT:          0  MISS:          0
cpu0_L1D TOTAL     ACCESS:    6568488  HIT:    5968032  MISS:     600456
cpu0_L1D LOAD      ACCESS:    6073996  HIT:    5475984  MISS:     598012
cpu0_L1D RFO       ACCESS:     458743  HIT:     458742  MISS:          1
cpu0_L1D PREFETCH  ACCESS:          0  HIT:          0  MISS:          0
cpu0_L1D WRITEBACK ACCESS:          0  HIT:          0  MISS:          0
cpu0_L2C TOTAL     ACCESS:     739918  HIT:     555007  MISS:     184911
cpu0_L2C LOAD      ACCESS:     598046  HIT:     413194  MISS:     184852
cpu0_L2C RFO       ACCESS:          1  HIT:          0  MISS:          1
cpu0_L2C PREFETCH  ACCESS:          0  HIT:          0  MISS:          0
cpu0_L2C WRITEBACK ACCESS:     139428  HIT:     139428  MISS:          0
LLC TOTAL     ACCESS:     185456  HIT:        542  MISS:     184914
LLC LOAD      ACCESS:     184852  HIT:        542  MISS:     184310
LLC RFO       ACCESS:          1  HIT:          0  MISS:          1
LLC PREFETCH  ACCESS:          0  HIT:          0  MISS:          0
LLC WRITEBACK ACCESS:        545  HIT:          0  MISS:        545
Heartbeat CPU 0 instructions: 66000000 cycles: 47021378 heartbeat IPC: 0.775989 cumulative IPC: 0.775821 (Simulation time: 1 hr 20 min 52 sec) 

Region of Interest Statistics
cpu0_DTLB TOTAL     ACCESS:    6119741  HIT:    5901635  MISS:     218106
cpu0_DTLB LOAD      ACCESS:    5625748  HIT:    5407811  MISS:     217937
cpu0_DTLB RFO       ACCESS:     493993  HIT:     493824  MISS:        169
cpu0_DTLB PREFETCH  ACCESS:          0  HIT:          0  MISS:          0
cpu0_DTLB WRITEBACK ACCESS:          0  HIT:          0  MISS:          0
cpu0_ITLB TOTAL     ACCESS:     294025  HIT:     294025  MISS:          0
cpu0_ITLB LOAD      ACCESS:     294025  HIT:     294025  MISS:          0
cpu0_ITLB RFO       ACCESS:          0  HIT:          0  MISS:          0
cpu0_ITLB PREFETCH  ACCESS:          0  HIT:          0  MISS:          0
cpu0_ITLB WRITEBACK ACCESS:          0  HIT:          0  MISS:          0
cpu0_L1I TOTAL     ACCESS:    1559695  HIT:    1559661  MISS:         34
cpu0_L1I LOAD      ACCESS:    1559695  HIT:    1559661  MISS:         34
cpu0_L1I RFO       ACCESS:          0  HIT:          0  MISS:          0
cpu0_L1I PREFETCH  ACCESS:          0  HIT:          0  MISS:          0
cpu0_L1I WRITEBACK ACCESS:          0  HIT:          0  MISS:          0
cpu0_STLB TOTAL     ACCESS:     218106  HIT:     177360  MISS:      40746
cpu0_STLB LOAD      ACCESS:     217937  HIT:     177191  MISS:      40746
cpu0_STLB RFO       ACCESS:        169  HIT:        169  MISS:          0
cpu0_STLB PREFETCH  ACCESS:          0  HIT:          0  MISS:          0
cpu0_STLB WRITEBACK ACCESS:          0  HIT:          0  MISS:          0
cpu0_L1D TOTAL     ACCESS:    7502988  HIT:    6816931  MISS:     686057
cpu0_L1D LOAD      ACCESS:    6938095  HIT:    6254824  MISS:     683271
cpu0_L1D RFO       ACCESS:     524149  HIT:     524148  MISS:          1
cpu0_L1D PREFETCH  ACCESS:          0  HIT:          0  MISS:          0
cpu0_L1D WRITEBACK ACCESS:          0  HIT:          0  MISS:          0
cpu0_L2C TOTAL     ACCESS:     845421  HIT:     634431  MISS:     210990
cpu0_L2C LOAD      ACCESS:     683305  HIT:     472381  MISS:     210924
cpu0_L2C RFO       ACCESS:          1  HIT:          0  MISS:          1
cpu0_L2C PREFETCH  ACCESS:          0  HIT:          0  MISS:          0
cpu0_L2C WRITEBACK ACCESS:     159330  HIT:     159330  MISS:          0
LLC TOTAL     ACCESS:     211587  HIT:        594  MISS:     210993
LLC LOAD      ACCESS:     210924  HIT:        594  MISS:     210330
LLC RFO       ACCESS:          1  HIT:          0  MISS:          1
LLC PREFETCH  ACCESS:          0  HIT:          0  MISS:          0
LLC WRITEBACK ACCESS:        597  HIT:          0  MISS:        597
Heartbeat CPU 0 instructions: 68000002 cycles: 49320387 heartbeat IPC: 0.869941 cumulative IPC: 0.785261 (Simulation time: 1 hr 23 min 45 sec) 

Region of Interest Statistics
cpu0_DTLB TOTAL     ACCESS:    6879034  HIT:    6629879  MISS:     249155
cpu0_DTLB LOAD      ACCESS:    6324286  HIT:    6075330  MISS:     248956
cpu0_DTLB RFO       ACCESS:     554748  HIT:     554549  MISS:        199
cpu0_DTLB PREFETCH  ACCESS:          0  HIT:          0  MISS:          0
cpu0_DTLB WRITEBACK ACCESS:          0  HIT:          0  MISS:          0
cpu0_ITLB TOTAL     ACCESS:     319035  HIT:     319035  MISS:          0
cpu0_ITLB LOAD      ACCESS:     319035  HIT:     319035  MISS:          0
cpu0_ITLB RFO       ACCESS:          0  HIT:          0  MISS:          0
cpu0_ITLB PREFETCH  ACCESS:          0  HIT:          0  MISS:          0
cpu0_ITLB WRITEBACK ACCESS:          0  HIT:          0  MISS:          0
cpu0_L1I TOTAL     ACCESS:    1676327  HIT:    1676293  MISS:         34
cpu0_L1I LOAD      ACCESS:    1676327  HIT:    1676293  MISS:         34
cpu0_L1I RFO       ACCESS:          0  HIT:          0  MISS:          0
cpu0_L1I PREFETCH  ACCESS:          0  HIT:          0  MISS:          0
cpu0_L1I WRITEBACK ACCESS:          0  HIT:          0  MISS:          0
cpu0_STLB TOTAL     ACCESS:     249155  HIT:     203883  MISS:      45272
cpu0_STLB LOAD      ACCESS:     248956  HIT:     203684  MISS:      45272
cpu0_STLB RFO       ACCESS:        199  HIT:        199  MISS:          0
cpu0_STLB PREFETCH  ACCESS:          0  HIT:          0  MISS:          0
cpu0_STLB WRITEBACK ACCESS:          0  HIT:          0  MISS:          0
cpu0_L1D TOTAL     ACCESS:    8450213  HIT:    7678927  MISS:     771286
cpu0_L1D LOAD      ACCESS:    7815670  HIT:    7047535  MISS:     768135
cpu0_L1D RFO       ACCESS:     589282  HIT:     589279  MISS:          3
cpu0_L1D PREFETCH  ACCESS:          0  HIT:          0  MISS:          0
cpu0_L1D WRITEBACK ACCESS:          0  HIT:          0  MISS:          0
cpu0_L2C TOTAL     ACCESS:     950429  HIT:     720021  MISS:     230408
cpu0_L2C LOAD      ACCESS:     768169  HIT:     537839  MISS:     230330
cpu0_L2C RFO       ACCESS:          3  HIT:          0  MISS:          3
cpu0_L2C PREFETCH  ACCESS:          0  HIT:          0  MISS:          0
cpu0_L2C WRITEBACK ACCESS:     179109  HIT:     179109  MISS:          0
LLC TOTAL     ACCESS:     231035  HIT:        656  MISS:     230379
LLC LOAD      ACCESS:     230330  HIT:        651  MISS:     229679
LLC RFO       ACCESS:          3  HIT:          0  MISS:          3
LLC PREFETCH  ACCESS:          0  HIT:          0  MISS:          0
LLC WRITEBACK ACCESS:        627  HIT:          5  MISS:        622
Heartbeat CPU 0 instructions: 70000001 cycles: 51042724 heartbeat IPC: 1.16121 cumulative IPC: 0.811535 (Simulation time: 1 hr 26 min 11 sec) 

Region of Interest Statistics
cpu0_DTLB TOTAL     ACCESS:    7641233  HIT:    7356177  MISS:     285056
cpu0_DTLB LOAD      ACCESS:    7026420  HIT:    6741605  MISS:     284815
cpu0_DTLB RFO       ACCESS:     614813  HIT:     614572  MISS:        241
cpu0_DTLB PREFETCH  ACCESS:          0  HIT:          0  MISS:          0
cpu0_DTLB WRITEBACK ACCESS:          0  HIT:          0  MISS:          0
cpu0_ITLB TOTAL     ACCESS:     330473  HIT:     330473  MISS:          0
cpu0_ITLB LOAD      ACCESS:     330473  HIT:     330473  MISS:          0
cpu0_ITLB RFO       ACCESS:          0  HIT:          0  MISS:          0
cpu0_ITLB PREFETCH  ACCESS:          0  HIT:          0  MISS:          0
cpu0_ITLB WRITEBACK ACCESS:          0  HIT:          0  MISS:          0
cpu0_L1I TOTAL     ACCESS:    1697368  HIT:    1697334  MISS:         34
cpu0_L1I LOAD      ACCESS:    1697368  HIT:    1697334  MISS:         34
cpu0_L1I RFO       ACCESS:          0  HIT:          0  MISS:          0
cpu0_L1I PREFETCH  ACCESS:          0  HIT:          0  MISS:          0
cpu0_L1I WRITEBACK ACCESS:          0  HIT:          0  MISS:          0
cpu0_STLB TOTAL     ACCESS:     285056  HIT:     238020  MISS:      47036
cpu0_STLB LOAD      ACCESS:     284815  HIT:     237779  MISS:      47036
cpu0_STLB RFO       ACCESS:        241  HIT:        241  MISS:          0
cpu0_STLB PREFETCH  ACCESS:          0  HIT:          0  MISS:          0
cpu0_STLB WRITEBACK ACCESS:          0  HIT:          0  MISS:          0
cpu0_L1D TOTAL     ACCESS:    9409696  HIT:    8553666  MISS:     856030
cpu0_L1D LOAD      ACCESS:    8708607  HIT:    7856118  MISS:     852489
cpu0_L1D RFO       ACCESS:     654064  HIT:     654061  MISS:          3
cpu0_L1D PREFETCH  ACCESS:          0  HIT:          0  MISS:          0
cpu0_L1D WRITEBACK ACCESS:          0  HIT:          0  MISS:          0
cpu0_L2C TOTAL     ACCESS:    1054814  HIT:     817353  MISS:     237461
cpu0_L2C LOAD      ACCESS:     852523  HIT:     615140  MISS:     237383
cpu0_L2C RFO       ACCESS:          3  HIT:          0  MISS:          3
cpu0_L2C PREFETCH  ACCESS:          0  HIT:          0  MISS:          0
cpu0_L2C WRITEBACK ACCESS:     198750  HIT:     198750  MISS:          0
LLC TOTAL     ACCESS:     238125  HIT:        797  MISS:     237328
LLC LOAD      ACCESS:     237383  HIT:        776  MISS:     236607
LLC RFO       ACCESS:          3  HIT:          0  MISS:          3
LLC PREFETCH  ACCESS:          0  HIT:          0  MISS:          0
LLC WRITEBACK ACCESS:        664  HIT:         21  MISS:        643
Heartbeat CPU 0 instructions: 72000000 cycles: 52763131 heartbeat IPC: 1.16252 cumulative IPC: 0.834437 (Simulation time: 1 hr 28 min 34 sec) 

Region of Interest Statistics
cpu0_DTLB TOTAL     ACCESS:    8403758  HIT:    8082949  MISS:     320809
cpu0_DTLB LOAD      ACCESS:    7728886  HIT:    7408356  MISS:     320530
cpu0_DTLB RFO       ACCESS:     674872  HIT:     674593  MISS:        279
cpu0_DTLB PREFETCH  ACCESS:          0  HIT:          0  MISS:          0
cpu0_DTLB WRITEBACK ACCESS:          0  HIT:          0  MISS:          0
cpu0_ITLB TOTAL     ACCESS:     341945  HIT:     341945  MISS:          0
cpu0_ITLB LOAD      ACCESS:     341945  HIT:     341945  MISS:          0
cpu0_ITLB RFO       ACCESS:          0  HIT:          0  MISS:          0
cpu0_ITLB PREFETCH  ACCESS:          0  HIT:          0  MISS:          0
cpu0_ITLB WRITEBACK ACCESS:          0  HIT:          0  MISS:          0
cpu0_L1I TOTAL     ACCESS:    1718404  HIT:    1718370  MISS:         34
cpu0_L1I LOAD      ACCESS:    1718404  HIT:    1718370  MISS:         34
cpu0_L1I RFO       ACCESS:          0  HIT:          0  MISS:          0
cpu0_L1I PREFETCH  ACCESS:          0  HIT:          0  MISS:          0
cpu0_L1I WRITEBACK ACCESS:          0  HIT:          0  MISS:          0
cpu0_STLB TOTAL     ACCESS:     320809  HIT:     272165  MISS:      48644
cpu0_STLB LOAD      ACCESS:     320530  HIT:     271886  MISS:      48644
cpu0_STLB RFO       ACCESS:        279  HIT:        279  MISS:          0
cpu0_STLB PREFETCH  ACCESS:          0  HIT:          0  MISS:          0
cpu0_STLB WRITEBACK ACCESS:          0  HIT:          0  MISS:          0
cpu0_L1D TOTAL     ACCESS:   10369564  HIT:    9428784  MISS:     940780
cpu0_L1D LOAD      ACCESS:    9602081  HIT:    8665230  MISS:     936851
cpu0_L1D RFO       ACCESS:     718850  HIT:     718847  MISS:          3
cpu0_L1D PREFETCH  ACCESS:          0  HIT:          0  MISS:          0
cpu0_L1D WRITEBACK ACCESS:          0  HIT:          0  MISS:          0
cpu0_L2C TOTAL     ACCESS:    1159231  HIT:     914855  MISS:     244376
cpu0_L2C LOAD      ACCESS:     936885  HIT:     692597  MISS:     244288
cpu0_L2C RFO       ACCESS:          3  HIT:          0  MISS:          3
cpu0_L2C PREFETCH  ACCESS:          0  HIT:          0  MISS:          0
cpu0_L2C WRITEBACK ACCESS:     218417  HIT:     218417  MISS:          0
LLC TOTAL     ACCESS:     245072  HIT:        915  MISS:     244157
LLC LOAD      ACCESS:     244288  HIT:        880  MISS:     243408
LLC RFO       ACCESS:          3  HIT:          0  MISS:          3
LLC PREFETCH  ACCESS:          0  HIT:          0  MISS:          0
LLC WRITEBACK ACCESS:        696  HIT:         31  MISS:        665
Heartbeat CPU 0 instructions: 74000001 cycles: 54479251 heartbeat IPC: 1.16542 cumulative IPC: 0.854665 (Simulation time: 1 hr 30 min 59 sec) 

Region of Interest Statistics
cpu0_DTLB TOTAL     ACCESS:    9165932  HIT:    8809291  MISS:     356641
cpu0_DTLB LOAD      ACCESS:    8430985  HIT:    8074671  MISS:     356314
cpu0_DTLB RFO       ACCESS:     734947  HIT:     734620  MISS:        327
cpu0_DTLB PREFETCH  ACCESS:          0  HIT:          0  MISS:          0
cpu0_DTLB WRITEBACK ACCESS:          0  HIT:          0  MISS:          0
cpu0_ITLB TOTAL     ACCESS:     353434  HIT:     353434  MISS:          0
cpu0_ITLB LOAD      ACCESS:     353434  HIT:     353434  MISS:          0
cpu0_ITLB RFO       ACCESS:          0  HIT:          0  MISS:          0
cpu0_ITLB PREFETCH  ACCESS:          0  HIT:          0  MISS:          0
cpu0_ITLB WRITEBACK ACCESS:          0  HIT:          0  MISS:          0
cpu0_L1I TOTAL     ACCESS:    1739449  HIT:    1739415  MISS:         34
cpu0_L1I LOAD      ACCESS:    1739449  HIT:    1739415  MISS:         34
cpu0_L1I RFO       ACCESS:          0  HIT:          0  MISS:          0
cpu0_L1I PREFETCH  ACCESS:          0  HIT:          0  MISS:          0
cpu0_L1I WRITEBACK ACCESS:          0  HIT:          0  MISS:          0
cpu0_STLB TOTAL     ACCESS:     356641  HIT:     306355  MISS:      50286
cpu0_STLB LOAD      ACCESS:     356314  HIT:     306028  MISS:      50286
cpu0_STLB RFO       ACCESS:        327  HIT:        327  MISS:          0
cpu0_STLB PREFETCH  ACCESS:          0  HIT:          0  MISS:          0
cpu0_STLB WRITEBACK ACCESS:          0  HIT:          0  MISS:          0
cpu0_L1D TOTAL     ACCESS:   11329473  HIT:   10303963  MISS:    1025510
cpu0_L1D LOAD      ACCESS:   10495562  HIT:    9474353  MISS:    1021209
cpu0_L1D RFO       ACCESS:     783636  HIT:     783633  MISS:          3
cpu0_L1D PREFETCH  ACCESS:          0  HIT:          0  MISS:          0
cpu0_L1D WRITEBACK ACCESS:          0  HIT:          0  MISS:          0
cpu0_L2C TOTAL     ACCESS:    1263622  HIT:    1012424  MISS:     251198
cpu0_L2C LOAD      ACCESS:    1021243  HIT:     770137  MISS:     251106
cpu0_L2C RFO       ACCESS:          3  HIT:          0  MISS:          3
cpu0_L2C PREFETCH  ACCESS:          0  HIT:          0  MISS:          0
cpu0_L2C WRITEBACK ACCESS:     238078  HIT:     238078  MISS:          0
LLC TOTAL     ACCESS:     251921  HIT:        988  MISS:     250933
LLC LOAD      ACCESS:     251106  HIT:        945  MISS:     250161
LLC RFO       ACCESS:          3  HIT:          0  MISS:          3
LLC PREFETCH  ACCESS:          0  HIT:          0  MISS:          0
LLC WRITEBACK ACCESS:        723  HIT:         37  MISS:        686
Heartbeat CPU 0 instructions: 76000000 cycles: 56202290 heartbeat IPC: 1.16074 cumulative IPC: 0.872359 (Simulation time: 1 hr 33 min 27 sec) 

Region of Interest Statistics
cpu0_DTLB TOTAL     ACCESS:    9928653  HIT:    9536280  MISS:     392373
cpu0_DTLB LOAD      ACCESS:    9133603  HIT:    8741609  MISS:     391994
cpu0_DTLB RFO       ACCESS:     795050  HIT:     794671  MISS:        379
cpu0_DTLB PREFETCH  ACCESS:          0  HIT:          0  MISS:          0
cpu0_DTLB WRITEBACK ACCESS:          0  HIT:          0  MISS:          0
cpu0_ITLB TOTAL     ACCESS:     364874  HIT:     364874  MISS:          0
cpu0_ITLB LOAD      ACCESS:     364874  HIT:     364874  MISS:          0
cpu0_ITLB RFO       ACCESS:          0  HIT:          0  MISS:          0
cpu0_ITLB PREFETCH  ACCESS:          0  HIT:          0  MISS:          0
cpu0_ITLB WRITEBACK ACCESS:          0  HIT:          0  MISS:          0
cpu0_L1I TOTAL     ACCESS:    1760467  HIT:    1760433  MISS:         34
cpu0_L1I LOAD      ACCESS:    1760467  HIT:    1760433  MISS:         34
cpu0_L1I RFO       ACCESS:          0  HIT:          0  MISS:          0
cpu0_L1I PREFETCH  ACCESS:          0  HIT:          0  MISS:          0
cpu0_L1I WRITEBACK ACCESS:          0  HIT:          0  MISS:          0
cpu0_STLB TOTAL     ACCESS:     392373  HIT:     340594  MISS:      51779
cpu0_STLB LOAD      ACCESS:     391994  HIT:     340215  MISS:      51779
cpu0_STLB RFO       ACCESS:        379  HIT:        379  MISS:          0
cpu0_STLB PREFETCH  ACCESS:          0  HIT:          0  MISS:          0
cpu0_STLB WRITEBACK ACCESS:          0  HIT:          0  MISS:          0
cpu0_L1D TOTAL     ACCESS:   12289016  HIT:   11178768  MISS:    1110248
cpu0_L1D LOAD      ACCESS:   11388830  HIT:   10283268  MISS:    1105562
cpu0_L1D RFO       ACCESS:     848418  HIT:     848415  MISS:          3
cpu0_L1D PREFETCH  ACCESS:          0  HIT:          0  MISS:          0
cpu0_L1D WRITEBACK ACCESS:          0  HIT:          0  MISS:          0
cpu0_L2C TOTAL     ACCESS:    1368043  HIT:    1109773  MISS:     258270
cpu0_L2C LOAD      ACCESS:    1105596  HIT:     847420  MISS:     258176
cpu0_L2C RFO       ACCESS:          3  HIT:          0  MISS:          3
cpu0_L2C PREFETCH  ACCESS:          0  HIT:          0  MISS:          0
cpu0_L2C WRITEBACK ACCESS:     257761  HIT:     257761  MISS:          0
LLC TOTAL     ACCESS:     259039  HIT:       1129  MISS:     257910
LLC LOAD      ACCESS:     258176  HIT:       1068  MISS:     257108
LLC RFO       ACCESS:          3  HIT:          0  MISS:          3
LLC PREFETCH  ACCESS:          0  HIT:          0  MISS:          0
LLC WRITEBACK ACCESS:        769  HIT:         55  MISS:        714
Heartbeat CPU 0 instructions: 78000001 cycles: 57917296 heartbeat IPC: 1.16618 cumulative IPC: 0.888346 (Simulation time: 1 hr 35 min 54 sec) 

Region of Interest Statistics
cpu0_DTLB TOTAL     ACCESS:   10691209  HIT:   10263059  MISS:     428150
cpu0_DTLB LOAD      ACCESS:    9836095  HIT:    9408382  MISS:     427713
cpu0_DTLB RFO       ACCESS:     855114  HIT:     854677  MISS:        437
cpu0_DTLB PREFETCH  ACCESS:          0  HIT:          0  MISS:          0
cpu0_DTLB WRITEBACK ACCESS:          0  HIT:          0  MISS:          0
cpu0_ITLB TOTAL     ACCESS:     376317  HIT:     376317  MISS:          0
cpu0_ITLB LOAD      ACCESS:     376317  HIT:     376317  MISS:          0
cpu0_ITLB RFO       ACCESS:          0  HIT:          0  MISS:          0
cpu0_ITLB PREFETCH  ACCESS:          0  HIT:          0  MISS:          0
cpu0_ITLB WRITEBACK ACCESS:          0  HIT:          0  MISS:          0
cpu0_L1I TOTAL     ACCESS:    1781514  HIT:    1781480  MISS:         34
cpu0_L1I LOAD      ACCESS:    1781514  HIT:    1781480  MISS:         34
cpu0_L1I RFO       ACCESS:          0  HIT:          0  MISS:          0
cpu0_L1I PREFETCH  ACCESS:          0  HIT:          0  MISS:          0
cpu0_L1I WRITEBACK ACCESS:          0  HIT:          0  MISS:          0
cpu0_STLB TOTAL     ACCESS:     428150  HIT:     374486  MISS:      53664
cpu0_STLB LOAD      ACCESS:     427713  HIT:     374049  MISS:      53664
cpu0_STLB RFO       ACCESS:        437  HIT:        437  MISS:          0
cpu0_STLB PREFETCH  ACCESS:          0  HIT:          0  MISS:          0
cpu0_STLB WRITEBACK ACCESS:          0  HIT:          0  MISS:          0
cpu0_L1D TOTAL     ACCESS:   13248949  HIT:   12053954  MISS:    1194995
cpu0_L1D LOAD      ACCESS:   12282092  HIT:   11092179  MISS:    1189913
cpu0_L1D RFO       ACCESS:     913204  HIT:     913201  MISS:          3
cpu0_L1D PREFETCH  ACCESS:          0  HIT:          0  MISS:          0
cpu0_L1D WRITEBACK ACCESS:          0  HIT:          0  MISS:          0
cpu0_L2C TOTAL     ACCESS:    1472441  HIT:    1207217  MISS:     265224
cpu0_L2C LOAD      ACCESS:    1189947  HIT:     924818  MISS:     265129
cpu0_L2C RFO       ACCESS:          3  HIT:          0  MISS:          3
cpu0_L2C PREFETCH  ACCESS:          0  HIT:          0  MISS:          0
cpu0_L2C WRITEBACK ACCESS:     277412  HIT:     277412  MISS:          0
LLC TOTAL     ACCESS:     266056  HIT:       1325  MISS:     264731
LLC LOAD      ACCESS:     265129  HIT:       1234  MISS:     263895
LLC RFO       ACCESS:          3  HIT:          0  MISS:          3
LLC PREFETCH  ACCESS:          0  HIT:          0  MISS:          0
LLC WRITEBACK ACCESS:        832  HIT:         85  MISS:        747
Heartbeat CPU 0 instructions: 80000002 cycles: 59705496 heartbeat IPC: 1.11844 cumulative IPC: 0.9007 (Simulation time: 1 hr 38 min 14 sec) 

Region of Interest Statistics
cpu0_DTLB TOTAL     ACCESS:   11463231  HIT:   10999862  MISS:     463369
cpu0_DTLB LOAD      ACCESS:   10547406  HIT:   10084519  MISS:     462887
cpu0_DTLB RFO       ACCESS:     915825  HIT:     915343  MISS:        482
cpu0_DTLB PREFETCH  ACCESS:          0  HIT:          0  MISS:          0
cpu0_DTLB WRITEBACK ACCESS:          0  HIT:          0  MISS:          0
cpu0_ITLB TOTAL     ACCESS:     390614  HIT:     390614  MISS:          0
cpu0_ITLB LOAD      ACCESS:     390614  HIT:     390614  MISS:          0
cpu0_ITLB RFO       ACCESS:          0  HIT:          0  MISS:          0
cpu0_ITLB PREFETCH  ACCESS:          0  HIT:          0  MISS:          0
cpu0_ITLB WRITEBACK ACCESS:          0  HIT:          0  MISS:          0
cpu0_L1I TOTAL     ACCESS:    1816860  HIT:    1816826  MISS:         34
cpu0_L1I LOAD      ACCESS:    1816860  HIT:    1816826  MISS:         34
cpu0_L1I RFO       ACCESS:          0  HIT:          0  MISS:          0
cpu0_L1I PREFETCH  ACCESS:          0  HIT:          0  MISS:          0
cpu0_L1I WRITEBACK ACCESS:          0  HIT:          0  MISS:          0
cpu0_STLB TOTAL     ACCESS:     463369  HIT:     406713  MISS:      56656
cpu0_STLB LOAD      ACCESS:     462887  HIT:     406231  MISS:      56656
cpu0_STLB RFO       ACCESS:        482  HIT:        482  MISS:          0
cpu0_STLB PREFETCH  ACCESS:          0  HIT:          0  MISS:          0
cpu0_STLB WRITEBACK ACCESS:          0  HIT:          0  MISS:          0
cpu0_L1D TOTAL     ACCESS:   14212508  HIT:   12932551  MISS:    1279957
cpu0_L1D LOAD      ACCESS:   13177759  HIT:   11903327  MISS:    1274432
cpu0_L1D RFO       ACCESS:     978111  HIT:     978108  MISS:          3
cpu0_L1D PREFETCH  ACCESS:          0  HIT:          0  MISS:          0
cpu0_L1D WRITEBACK ACCESS:          0  HIT:          0  MISS:          0
cpu0_L2C TOTAL     ACCESS:    1577098  HIT:    1303133  MISS:     273965
cpu0_L2C LOAD      ACCESS:    1274466  HIT:    1000609  MISS:     273857
cpu0_L2C RFO       ACCESS:          3  HIT:          0  MISS:          3
cpu0_L2C PREFETCH  ACCESS:          0  HIT:          0  MISS:          0
cpu0_L2C WRITEBACK ACCESS:     297107  HIT:     297107  MISS:          0
LLC TOTAL     ACCESS:     274823  HIT:       1404  MISS:     273419
LLC LOAD      ACCESS:     273857  HIT:       1309  MISS:     272548
LLC RFO       ACCESS:          3  HIT:          0  MISS:          3
LLC PREFETCH  ACCESS:          0  HIT:          0  MISS:          0
LLC WRITEBACK ACCESS:        858  HIT:         89  MISS:        769
Heartbeat CPU 0 instructions: 82000002 cycles: 61358285 heartbeat IPC: 1.21008 cumulative IPC: 0.915326 (Simulation time: 1 hr 40 min 32 sec) 

Region of Interest Statistics
cpu0_DTLB TOTAL     ACCESS:   12253540  HIT:   11755976  MISS:     497564
cpu0_DTLB LOAD      ACCESS:   11275839  HIT:   10778773  MISS:     497066
cpu0_DTLB RFO       ACCESS:     977701  HIT:     977203  MISS:        498
cpu0_DTLB PREFETCH  ACCESS:          0  HIT:          0  MISS:          0
cpu0_DTLB WRITEBACK ACCESS:          0  HIT:          0  MISS:          0
cpu0_ITLB TOTAL     ACCESS:     410504  HIT:     410504  MISS:          0
cpu0_ITLB LOAD      ACCESS:     410504  HIT:     410504  MISS:          0
cpu0_ITLB RFO       ACCESS:          0  HIT:          0  MISS:          0
cpu0_ITLB PREFETCH  ACCESS:          0  HIT:          0  MISS:          0
cpu0_ITLB WRITEBACK ACCESS:          0  HIT:          0  MISS:          0
cpu0_L1I TOTAL     ACCESS:    1879454  HIT:    1879420  MISS:         34
cpu0_L1I LOAD      ACCESS:    1879454  HIT:    1879420  MISS:         34
cpu0_L1I RFO       ACCESS:          0  HIT:          0  MISS:          0
cpu0_L1I PREFETCH  ACCESS:          0  HIT:          0  MISS:          0
cpu0_L1I WRITEBACK ACCESS:          0  HIT:          0  MISS:          0
cpu0_STLB TOTAL     ACCESS:     497564  HIT:     440052  MISS:      57512
cpu0_STLB LOAD      ACCESS:     497066  HIT:     439554  MISS:      57512
cpu0_STLB RFO       ACCESS:        498  HIT:        498  MISS:          0
cpu0_STLB PREFETCH  ACCESS:          0  HIT:          0  MISS:          0
cpu0_STLB WRITEBACK ACCESS:          0  HIT:          0  MISS:          0
cpu0_L1D TOTAL     ACCESS:   15179148  HIT:   13813938  MISS:    1365210
cpu0_L1D LOAD      ACCESS:   14078411  HIT:   12719177  MISS:    1359234
cpu0_L1D RFO       ACCESS:    1043243  HIT:    1043240  MISS:          3
cpu0_L1D PREFETCH  ACCESS:          0  HIT:          0  MISS:          0
cpu0_L1D WRITEBACK ACCESS:          0  HIT:          0  MISS:          0
cpu0_L2C TOTAL     ACCESS:    1682106  HIT:    1401169  MISS:     280937
cpu0_L2C LOAD      ACCESS:    1359268  HIT:    1078439  MISS:     280829
cpu0_L2C RFO       ACCESS:          3  HIT:          0  MISS:          3
cpu0_L2C PREFETCH  ACCESS:          0  HIT:          0  MISS:          0
cpu0_L2C WRITEBACK ACCESS:     316862  HIT:     316862  MISS:          0
LLC TOTAL     ACCESS:     281822  HIT:       1449  MISS:     280373
LLC LOAD      ACCESS:     280829  HIT:       1353  MISS:     279476
LLC RFO       ACCESS:          3  HIT:          0  MISS:          3
LLC PREFETCH  ACCESS:          0  HIT:          0  MISS:          0
LLC WRITEBACK ACCESS:        885  HIT:         90  MISS:        795
Heartbeat CPU 0 instructions: 84000004 cycles: 62995672 heartbeat IPC: 1.22146 cumulative IPC: 0.929022 (Simulation time: 1 hr 42 min 40 sec) 

Region of Interest Statistics
cpu0_DTLB TOTAL     ACCESS:   13043656  HIT:   12511965  MISS:     531691
cpu0_DTLB LOAD      ACCESS:   12004093  HIT:   11472919  MISS:     531174
cpu0_DTLB RFO       ACCESS:    1039563  HIT:    1039046  MISS:        517
cpu0_DTLB PREFETCH  ACCESS:          0  HIT:          0  MISS:          0
cpu0_DTLB WRITEBACK ACCESS:          0  HIT:          0  MISS:          0
cpu0_ITLB TOTAL     ACCESS:     430496  HIT:     430496  MISS:          0
cpu0_ITLB LOAD      ACCESS:     430496  HIT:     430496  MISS:          0
cpu0_ITLB RFO       ACCESS:          0  HIT:          0  MISS:          0
cpu0_ITLB PREFETCH  ACCESS:          0  HIT:          0  MISS:          0
cpu0_ITLB WRITEBACK ACCESS:          0  HIT:          0  MISS:          0
cpu0_L1I TOTAL     ACCESS:    1941908  HIT:    1941874  MISS:         34
cpu0_L1I LOAD      ACCESS:    1941908  HIT:    1941874  MISS:         34
cpu0_L1I RFO       ACCESS:          0  HIT:          0  MISS:          0
cpu0_L1I PREFETCH  ACCESS:          0  HIT:          0  MISS:          0
cpu0_L1I WRITEBACK ACCESS:          0  HIT:          0  MISS:          0
cpu0_STLB TOTAL     ACCESS:     531691  HIT:     473525  MISS:      58166
cpu0_STLB LOAD      ACCESS:     531174  HIT:     473008  MISS:      58166
cpu0_STLB RFO       ACCESS:        517  HIT:        517  MISS:          0
cpu0_STLB PREFETCH  ACCESS:          0  HIT:          0  MISS:          0
cpu0_STLB WRITEBACK ACCESS:          0  HIT:          0  MISS:          0
cpu0_L1D TOTAL     ACCESS:   16145459  HIT:   14695085  MISS:    1450374
cpu0_L1D LOAD      ACCESS:   14978933  HIT:   13534895  MISS:    1444038
cpu0_L1D RFO       ACCESS:    1108378  HIT:    1108375  MISS:          3
cpu0_L1D PREFETCH  ACCESS:          0  HIT:          0  MISS:          0
cpu0_L1D WRITEBACK ACCESS:          0  HIT:          0  MISS:          0
cpu0_L2C TOTAL     ACCESS:    1787018  HIT:    1499335  MISS:     287683
cpu0_L2C LOAD      ACCESS:    1444072  HIT:    1156501  MISS:     287571
cpu0_L2C RFO       ACCESS:          3  HIT:          0  MISS:          3
cpu0_L2C PREFETCH  ACCESS:          0  HIT:          0  MISS:          0
cpu0_L2C WRITEBACK ACCESS:     336610  HIT:     336610  MISS:          0
LLC TOTAL     ACCESS:     288572  HIT:       1472  MISS:     287100
LLC LOAD      ACCESS:     287571  HIT:       1376  MISS:     286195
LLC RFO       ACCESS:          3  HIT:          0  MISS:          3
LLC PREFETCH  ACCESS:          0  HIT:          0  MISS:          0
LLC WRITEBACK ACCESS:        889  HIT:         90  MISS:        799
Heartbeat CPU 0 instructions: 86000001 cycles: 64651456 heartbeat IPC: 1.20789 cumulative IPC: 0.941093 (Simulation time: 1 hr 44 min 42 sec) 

Region of Interest Statistics
cpu0_DTLB TOTAL     ACCESS:   13833450  HIT:   13267551  MISS:     565899
cpu0_DTLB LOAD      ACCESS:   12732027  HIT:   12166662  MISS:     565365
cpu0_DTLB RFO       ACCESS:    1101423  HIT:    1100889  MISS:        534
cpu0_DTLB PREFETCH  ACCESS:          0  HIT:          0  MISS:          0
cpu0_DTLB WRITEBACK ACCESS:          0  HIT:          0  MISS:          0
cpu0_ITLB TOTAL     ACCESS:     450456  HIT:     450456  MISS:          0
cpu0_ITLB LOAD      ACCESS:     450456  HIT:     450456  MISS:          0
cpu0_ITLB RFO       ACCESS:          0  HIT:          0  MISS:          0
cpu0_ITLB PREFETCH  ACCESS:          0  HIT:          0  MISS:          0
cpu0_ITLB WRITEBACK ACCESS:          0  HIT:          0  MISS:          0
cpu0_L1I TOTAL     ACCESS:    2004324  HIT:    2004290  MISS:         34
cpu0_L1I LOAD      ACCESS:    2004324  HIT:    2004290  MISS:         34
cpu0_L1I RFO       ACCESS:          0  HIT:          0  MISS:          0
cpu0_L1I PREFETCH  ACCESS:          0  HIT:          0  MISS:          0
cpu0_L1I WRITEBACK ACCESS:          0  HIT:          0  MISS:          0
cpu0_STLB TOTAL     ACCESS:     565899  HIT:     506993  MISS:      58906
cpu0_STLB LOAD      ACCESS:     565365  HIT:     506459  MISS:      58906
cpu0_STLB RFO       ACCESS:        534  HIT:        534  MISS:          0
cpu0_STLB PREFETCH  ACCESS:          0  HIT:          0  MISS:          0
cpu0_STLB WRITEBACK ACCESS:          0  HIT:          0  MISS:          0
cpu0_L1D TOTAL     ACCESS:   17111436  HIT:   15575883  MISS:    1535553
cpu0_L1D LOAD      ACCESS:   15879035  HIT:   14350198  MISS:    1528837
cpu0_L1D RFO       ACCESS:    1173513  HIT:    1173510  MISS:          3
cpu0_L1D PREFETCH  ACCESS:          0  HIT:          0  MISS:          0
cpu0_L1D WRITEBACK ACCESS:          0  HIT:          0  MISS:          0
cpu0_L2C TOTAL     ACCESS:    1891956  HIT:    1596997  MISS:     294959
cpu0_L2C LOAD      ACCESS:    1528871  HIT:    1234027  MISS:     294844
cpu0_L2C RFO       ACCESS:          3  HIT:          0  MISS:          3
cpu0_L2C PREFETCH  ACCESS:          0  HIT:          0  MISS:          0
cpu0_L2C WRITEBACK ACCESS:     356369  HIT:     356369  MISS:          0
LLC TOTAL     ACCESS:     295936  HIT:       1733  MISS:     294203
LLC LOAD      ACCESS:     294844  HIT:       1595  MISS:     293249
LLC RFO       ACCESS:          3  HIT:          0  MISS:          3
LLC PREFETCH  ACCESS:          0  HIT:          0  MISS:          0
LLC WRITEBACK ACCESS:        977  HIT:        132  MISS:        845
Heartbeat CPU 0 instructions: 88000003 cycles: 66305680 heartbeat IPC: 1.20903 cumulative IPC: 0.952199 (Simulation time: 1 hr 46 min 50 sec) 

Region of Interest Statistics
cpu0_DTLB TOTAL     ACCESS:   14623470  HIT:   14023375  MISS:     600095
cpu0_DTLB LOAD      ACCESS:   13460127  HIT:   12860575  MISS:     599552
cpu0_DTLB RFO       ACCESS:    1163343  HIT:    1162800  MISS:        543
cpu0_DTLB PREFETCH  ACCESS:          0  HIT:          0  MISS:          0
cpu0_DTLB WRITEBACK ACCESS:          0  HIT:          0  MISS:          0
cpu0_ITLB TOTAL     ACCESS:     470462  HIT:     470462  MISS:          0
cpu0_ITLB LOAD      ACCESS:     470462  HIT:     470462  MISS:          0
cpu0_ITLB RFO       ACCESS:          0  HIT:          0  MISS:          0
cpu0_ITLB PREFETCH  ACCESS:          0  HIT:          0  MISS:          0
cpu0_ITLB WRITEBACK ACCESS:          0  HIT:          0  MISS:          0
cpu0_L1I TOTAL     ACCESS:    2066989  HIT:    2066955  MISS:         34
cpu0_L1I LOAD      ACCESS:    2066989  HIT:    2066955  MISS:         34
cpu0_L1I RFO       ACCESS:          0  HIT:          0  MISS:          0
cpu0_L1I PREFETCH  ACCESS:          0  HIT:          0  MISS:          0
cpu0_L1I WRITEBACK ACCESS:          0  HIT:          0  MISS:          0
cpu0_STLB TOTAL     ACCESS:     600095  HIT:     540747  MISS:      59348
cpu0_STLB LOAD      ACCESS:     599552  HIT:     540204  MISS:      59348
cpu0_STLB RFO       ACCESS:        543  HIT:        543  MISS:          0
cpu0_STLB PREFETCH  ACCESS:          0  HIT:          0  MISS:          0
cpu0_STLB WRITEBACK ACCESS:          0  HIT:          0  MISS:          0
cpu0_L1D TOTAL     ACCESS:   18077322  HIT:   16456713  MISS:    1620609
cpu0_L1D LOAD      ACCESS:   16779344  HIT:   15165704  MISS:    1613640
cpu0_L1D RFO       ACCESS:    1238648  HIT:    1238645  MISS:          3
cpu0_L1D PREFETCH  ACCESS:          0  HIT:          0  MISS:          0
cpu0_L1D WRITEBACK ACCESS:          0  HIT:          0  MISS:          0
cpu0_L2C TOTAL     ACCESS:    1996768  HIT:    1694758  MISS:     302010
cpu0_L2C LOAD      ACCESS:    1613674  HIT:    1311789  MISS:     301885
cpu0_L2C RFO       ACCESS:          3  HIT:          0  MISS:          3
cpu0_L2C PREFETCH  ACCESS:          0  HIT:          0  MISS:          0
cpu0_L2C WRITEBACK ACCESS:     376125  HIT:     376125  MISS:          0
LLC TOTAL     ACCESS:     303057  HIT:       1989  MISS:     301068
LLC LOAD      ACCESS:     301885  HIT:       1809  MISS:     300076
LLC RFO       ACCESS:          3  HIT:          0  MISS:          3
LLC PREFETCH  ACCESS:          0  HIT:          0  MISS:          0
LLC WRITEBACK ACCESS:       1047  HIT:        169  MISS:        878
Heartbeat CPU 0 instructions: 90000000 cycles: 67962882 heartbeat IPC: 1.20685 cumulative IPC: 0.962352 (Simulation time: 1 hr 49 min 2 sec) 

Region of Interest Statistics
cpu0_DTLB TOTAL     ACCESS:   15413402  HIT:   14779153  MISS:     634249
cpu0_DTLB LOAD      ACCESS:   14188079  HIT:   13554378  MISS:     633701
cpu0_DTLB RFO       ACCESS:    1225323  HIT:    1224775  MISS:        548
cpu0_DTLB PREFETCH  ACCESS:          0  HIT:          0  MISS:          0
cpu0_DTLB WRITEBACK ACCESS:          0  HIT:          0  MISS:          0
cpu0_ITLB TOTAL     ACCESS:     490300  HIT:     490300  MISS:          0
cpu0_ITLB LOAD      ACCESS:     490300  HIT:     490300  MISS:          0
cpu0_ITLB RFO       ACCESS:          0  HIT:          0  MISS:          0
cpu0_ITLB PREFETCH  ACCESS:          0  HIT:          0  MISS:          0
cpu0_ITLB WRITEBACK ACCESS:          0  HIT:          0  MISS:          0
cpu0_L1I TOTAL     ACCESS:    2129351  HIT:    2129317  MISS:         34
cpu0_L1I LOAD      ACCESS:    2129351  HIT:    2129317  MISS:         34
cpu0_L1I RFO       ACCESS:          0  HIT:          0  MISS:          0
cpu0_L1I PREFETCH  ACCESS:          0  HIT:          0  MISS:          0
cpu0_L1I WRITEBACK ACCESS:          0  HIT:          0  MISS:          0
cpu0_STLB TOTAL     ACCESS:     634249  HIT:     573783  MISS:      60466
cpu0_STLB LOAD      ACCESS:     633701  HIT:     573235  MISS:      60466
cpu0_STLB RFO       ACCESS:        548  HIT:        548  MISS:          0
cpu0_STLB PREFETCH  ACCESS:          0  HIT:          0  MISS:          0
cpu0_STLB WRITEBACK ACCESS:          0  HIT:          0  MISS:          0
cpu0_L1D TOTAL     ACCESS:   19043474  HIT:   17337584  MISS:    1705890
cpu0_L1D LOAD      ACCESS:   17679243  HIT:   15980801  MISS:    1698442
cpu0_L1D RFO       ACCESS:    1303783  HIT:    1303780  MISS:          3
cpu0_L1D PREFETCH  ACCESS:          0  HIT:          0  MISS:          0
cpu0_L1D WRITEBACK ACCESS:          0  HIT:          0  MISS:          0
cpu0_L2C TOTAL     ACCESS:    2101813  HIT:    1792577  MISS:     309236
cpu0_L2C LOAD      ACCESS:    1698476  HIT:    1389366  MISS:     309110
cpu0_L2C RFO       ACCESS:          3  HIT:          0  MISS:          3
cpu0_L2C PREFETCH  ACCESS:          0  HIT:          0  MISS:          0
cpu0_L2C WRITEBACK ACCESS:     395889  HIT:     395889  MISS:          0
LLC TOTAL     ACCESS:     310358  HIT:       2204  MISS:     308154
LLC LOAD      ACCESS:     309110  HIT:       1991  MISS:     307119
LLC RFO       ACCESS:          3  HIT:          0  MISS:          3
LLC PREFETCH  ACCESS:          0  HIT:          0  MISS:          0
LLC WRITEBACK ACCESS:       1122  HIT:        202  MISS:        920
Heartbeat CPU 0 instructions: 92000004 cycles: 69709755 heartbeat IPC: 1.14491 cumulative IPC: 0.969715 (Simulation time: 1 hr 51 min 15 sec) 

Region of Interest Statistics
cpu0_DTLB TOTAL     ACCESS:   16203247  HIT:   15538855  MISS:     664392
cpu0_DTLB LOAD      ACCESS:   14914511  HIT:   14250676  MISS:     663835
cpu0_DTLB RFO       ACCESS:    1288736  HIT:    1288179  MISS:        557
cpu0_DTLB PREFETCH  ACCESS:          0  HIT:          0  MISS:          0
cpu0_DTLB WRITEBACK ACCESS:          0  HIT:          0  MISS:          0
cpu0_ITLB TOTAL     ACCESS:     514244  HIT:     514244  MISS:          0
cpu0_ITLB LOAD      ACCESS:     514244  HIT:     514244  MISS:          0
cpu0_ITLB RFO       ACCESS:          0  HIT:          0  MISS:          0
cpu0_ITLB PREFETCH  ACCESS:          0  HIT:          0  MISS:          0
cpu0_ITLB WRITEBACK ACCESS:          0  HIT:          0  MISS:          0
cpu0_L1I TOTAL     ACCESS:    2225837  HIT:    2225803  MISS:         34
cpu0_L1I LOAD      ACCESS:    2225837  HIT:    2225803  MISS:         34
cpu0_L1I RFO       ACCESS:          0  HIT:          0  MISS:          0
cpu0_L1I PREFETCH  ACCESS:          0  HIT:          0  MISS:          0
cpu0_L1I WRITEBACK ACCESS:          0  HIT:          0  MISS:          0
cpu0_STLB TOTAL     ACCESS:     664392  HIT:     602244  MISS:      62148
cpu0_STLB LOAD      ACCESS:     663835  HIT:     601687  MISS:      62148
cpu0_STLB RFO       ACCESS:        557  HIT:        557  MISS:          0
cpu0_STLB PREFETCH  ACCESS:          0  HIT:          0  MISS:          0
cpu0_STLB WRITEBACK ACCESS:          0  HIT:          0  MISS:          0
cpu0_L1D TOTAL     ACCESS:   20018190  HIT:   18235589  MISS:    1782601
cpu0_L1D LOAD      ACCESS:   18586221  HIT:   16811421  MISS:    1774800
cpu0_L1D RFO       ACCESS:    1369840  HIT:    1369837  MISS:          3
cpu0_L1D PREFETCH  ACCESS:          0  HIT:          0  MISS:          0
cpu0_L1D WRITEBACK ACCESS:          0  HIT:          0  MISS:          0
cpu0_L2C TOTAL     ACCESS:    2193425  HIT:    1875911  MISS:     317514
cpu0_L2C LOAD      ACCESS:    1774834  HIT:    1457450  MISS:     317384
cpu0_L2C RFO       ACCESS:          3  HIT:          0  MISS:          3
cpu0_L2C PREFETCH  ACCESS:          0  HIT:          0  MISS:          0
cpu0_L2C WRITEBACK ACCESS:     410790  HIT:     410790  MISS:          0
LLC TOTAL     ACCESS:     318724  HIT:       2242  MISS:     316482
LLC LOAD      ACCESS:     317384  HIT:       2026  MISS:     315358
LLC RFO       ACCESS:          3  HIT:          0  MISS:          3
LLC PREFETCH  ACCESS:          0  HIT:          0  MISS:          0
LLC WRITEBACK ACCESS:       1210  HIT:        205  MISS:       1005
Heartbeat CPU 0 instructions: 94000003 cycles: 71270047 heartbeat IPC: 1.28181 cumulative IPC: 0.980567 (Simulation time: 1 hr 53 min 25 sec) 

Region of Interest Statistics
cpu0_DTLB TOTAL     ACCESS:   17000748  HIT:   16318076  MISS:     682672
cpu0_DTLB LOAD      ACCESS:   15644266  HIT:   14962168  MISS:     682098
cpu0_DTLB RFO       ACCESS:    1356482  HIT:    1355908  MISS:        574
cpu0_DTLB PREFETCH  ACCESS:          0  HIT:          0  MISS:          0
cpu0_DTLB WRITEBACK ACCESS:          0  HIT:          0  MISS:          0
cpu0_ITLB TOTAL     ACCESS:     550246  HIT:     550246  MISS:          0
cpu0_ITLB LOAD      ACCESS:     550246  HIT:     550246  MISS:          0
cpu0_ITLB RFO       ACCESS:          0  HIT:          0  MISS:          0
cpu0_ITLB PREFETCH  ACCESS:          0  HIT:          0  MISS:          0
cpu0_ITLB WRITEBACK ACCESS:          0  HIT:          0  MISS:          0
cpu0_L1I TOTAL     ACCESS:    2423526  HIT:    2423492  MISS:         34
cpu0_L1I LOAD      ACCESS:    2423526  HIT:    2423492  MISS:         34
cpu0_L1I RFO       ACCESS:          0  HIT:          0  MISS:          0
cpu0_L1I PREFETCH  ACCESS:          0  HIT:          0  MISS:          0
cpu0_L1I WRITEBACK ACCESS:          0  HIT:          0  MISS:          0
cpu0_STLB TOTAL     ACCESS:     682672  HIT:     620523  MISS:      62149
cpu0_STLB LOAD      ACCESS:     682098  HIT:     619949  MISS:      62149
cpu0_STLB RFO       ACCESS:        574  HIT:        574  MISS:          0
cpu0_STLB PREFETCH  ACCESS:          0  HIT:          0  MISS:          0
cpu0_STLB WRITEBACK ACCESS:          0  HIT:          0  MISS:          0
cpu0_L1D TOTAL     ACCESS:   21016430  HIT:   19182317  MISS:    1834113
cpu0_L1D LOAD      ACCESS:   19515716  HIT:   17689405  MISS:    1826311
cpu0_L1D RFO       ACCESS:    1438584  HIT:    1438581  MISS:          3
cpu0_L1D PREFETCH  ACCESS:          0  HIT:          0  MISS:          0
cpu0_L1D WRITEBACK ACCESS:          0  HIT:          0  MISS:          0
cpu0_L2C TOTAL     ACCESS:    2244937  HIT:    1921950  MISS:     322987
cpu0_L2C LOAD      ACCESS:    1826345  HIT:    1503489  MISS:     322856
cpu0_L2C RFO       ACCESS:          3  HIT:          0  MISS:          3
cpu0_L2C PREFETCH  ACCESS:          0  HIT:          0  MISS:          0
cpu0_L2C WRITEBACK ACCESS:     410790  HIT:     410790  MISS:          0
LLC TOTAL     ACCESS:     324643  HIT:       2284  MISS:     322359
LLC LOAD      ACCESS:     322856  HIT:       2068  MISS:     320788
LLC RFO       ACCESS:          3  HIT:          0  MISS:          3
LLC PREFETCH  ACCESS:          0  HIT:          0  MISS:          0
LLC WRITEBACK ACCESS:       1656  HIT:        205  MISS:       1451
Heartbeat CPU 0 instructions: 96000001 cycles: 72830249 heartbeat IPC: 1.28188 cumulative IPC: 0.990692 (Simulation time: 1 hr 55 min 43 sec) 

Region of Interest Statistics
cpu0_DTLB TOTAL     ACCESS:   17798105  HIT:   17097168  MISS:     700937
cpu0_DTLB LOAD      ACCESS:   16373936  HIT:   15673599  MISS:     700337
cpu0_DTLB RFO       ACCESS:    1424169  HIT:    1423569  MISS:        600
cpu0_DTLB PREFETCH  ACCESS:          0  HIT:          0  MISS:          0
cpu0_DTLB WRITEBACK ACCESS:          0  HIT:          0  MISS:          0
cpu0_ITLB TOTAL     ACCESS:     586235  HIT:     586235  MISS:          0
cpu0_ITLB LOAD      ACCESS:     586235  HIT:     586235  MISS:          0
cpu0_ITLB RFO       ACCESS:          0  HIT:          0  MISS:          0
cpu0_ITLB PREFETCH  ACCESS:          0  HIT:          0  MISS:          0
cpu0_ITLB WRITEBACK ACCESS:          0  HIT:          0  MISS:          0
cpu0_L1I TOTAL     ACCESS:    2621185  HIT:    2621151  MISS:         34
cpu0_L1I LOAD      ACCESS:    2621185  HIT:    2621151  MISS:         34
cpu0_L1I RFO       ACCESS:          0  HIT:          0  MISS:          0
cpu0_L1I PREFETCH  ACCESS:          0  HIT:          0  MISS:          0
cpu0_L1I WRITEBACK ACCESS:          0  HIT:          0  MISS:          0
cpu0_STLB TOTAL     ACCESS:     700937  HIT:     638788  MISS:      62149
cpu0_STLB LOAD      ACCESS:     700337  HIT:     638188  MISS:      62149
cpu0_STLB RFO       ACCESS:        600  HIT:        600  MISS:          0
cpu0_STLB PREFETCH  ACCESS:          0  HIT:          0  MISS:          0
cpu0_STLB WRITEBACK ACCESS:          0  HIT:          0  MISS:          0
cpu0_L1D TOTAL     ACCESS:   22015260  HIT:   20129636  MISS:    1885624
cpu0_L1D LOAD      ACCESS:   20445800  HIT:   18567978  MISS:    1877822
cpu0_L1D RFO       ACCESS:    1507330  HIT:    1507327  MISS:          3
cpu0_L1D PREFETCH  ACCESS:          0  HIT:          0  MISS:          0
cpu0_L1D WRITEBACK ACCESS:          0  HIT:          0  MISS:          0
cpu0_L2C TOTAL     ACCESS:    2296448  HIT:    1967935  MISS:     328513
cpu0_L2C LOAD      ACCESS:    1877856  HIT:    1549474  MISS:     328382
cpu0_L2C RFO       ACCESS:          3  HIT:          0  MISS:          3
cpu0_L2C PREFETCH  ACCESS:          0  HIT:          0  MISS:          0
cpu0_L2C WRITEBACK ACCESS:     410790  HIT:     410790  MISS:          0
LLC TOTAL     ACCESS:     330294  HIT:       2360  MISS:     327934
LLC LOAD      ACCESS:     328382  HIT:       2144  MISS:     326238
LLC RFO       ACCESS:          3  HIT:          0  MISS:          3
LLC PREFETCH  ACCESS:          0  HIT:          0  MISS:          0
LLC WRITEBACK ACCESS:       1781  HIT:        205  MISS:       1576
Heartbeat CPU 0 instructions: 98000003 cycles: 74387192 heartbeat IPC: 1.28457 cumulative IPC: 1.00023 (Simulation time: 1 hr 58 min 3 sec) 

Region of Interest Statistics
cpu0_DTLB TOTAL     ACCESS:   18595796  HIT:   17876587  MISS:     719209
cpu0_DTLB LOAD      ACCESS:   17103923  HIT:   16385342  MISS:     718581
cpu0_DTLB RFO       ACCESS:    1491873  HIT:    1491245  MISS:        628
cpu0_DTLB PREFETCH  ACCESS:          0  HIT:          0  MISS:          0
cpu0_DTLB WRITEBACK ACCESS:          0  HIT:          0  MISS:          0
cpu0_ITLB TOTAL     ACCESS:     622231  HIT:     622231  MISS:          0
cpu0_ITLB LOAD      ACCESS:     622231  HIT:     622231  MISS:          0
cpu0_ITLB RFO       ACCESS:          0  HIT:          0  MISS:          0
cpu0_ITLB PREFETCH  ACCESS:          0  HIT:          0  MISS:          0
cpu0_ITLB WRITEBACK ACCESS:          0  HIT:          0  MISS:          0
cpu0_L1I TOTAL     ACCESS:    2818892  HIT:    2818858  MISS:         34
cpu0_L1I LOAD      ACCESS:    2818892  HIT:    2818858  MISS:         34
cpu0_L1I RFO       ACCESS:          0  HIT:          0  MISS:          0
cpu0_L1I PREFETCH  ACCESS:          0  HIT:          0  MISS:          0
cpu0_L1I WRITEBACK ACCESS:          0  HIT:          0  MISS:          0
cpu0_STLB TOTAL     ACCESS:     719209  HIT:     657060  MISS:      62149
cpu0_STLB LOAD      ACCESS:     718581  HIT:     656432  MISS:      62149
cpu0_STLB RFO       ACCESS:        628  HIT:        628  MISS:          0
cpu0_STLB PREFETCH  ACCESS:          0  HIT:          0  MISS:          0
cpu0_STLB WRITEBACK ACCESS:          0  HIT:          0  MISS:          0
cpu0_L1D TOTAL     ACCESS:   23013811  HIT:   21076679  MISS:    1937132
cpu0_L1D LOAD      ACCESS:   21375610  HIT:   19446280  MISS:    1929330
cpu0_L1D RFO       ACCESS:    1576071  HIT:    1576068  MISS:          3
cpu0_L1D PREFETCH  ACCESS:          0  HIT:          0  MISS:          0
cpu0_L1D WRITEBACK ACCESS:          0  HIT:          0  MISS:          0
cpu0_L2C TOTAL     ACCESS:    2347957  HIT:    2013943  MISS:     334014
cpu0_L2C LOAD      ACCESS:    1929365  HIT:    1595482  MISS:     333883
cpu0_L2C RFO       ACCESS:          3  HIT:          0  MISS:          3
cpu0_L2C PREFETCH  ACCESS:          0  HIT:          0  MISS:          0
cpu0_L2C WRITEBACK ACCESS:     410790  HIT:     410790  MISS:          0
LLC TOTAL     ACCESS:     335802  HIT:       2439  MISS:     333363
LLC LOAD      ACCESS:     333883  HIT:       2223  MISS:     331660
LLC RFO       ACCESS:          3  HIT:          0  MISS:          3
LLC PREFETCH  ACCESS:          0  HIT:          0  MISS:          0
LLC WRITEBACK ACCESS:       1788  HIT:        205  MISS:       1583
Heartbeat CPU 0 instructions: 100000001 cycles: 75944455 heartbeat IPC: 1.2843 cumulative IPC: 1.00916 (Simulation time: 2 hr 0 min 27 sec) 

Region of Interest Statistics
cpu0_DTLB TOTAL     ACCESS:   19393147  HIT:   18655469  MISS:     737678
cpu0_DTLB LOAD      ACCESS:   17833576  HIT:   17096557  MISS:     737019
cpu0_DTLB RFO       ACCESS:    1559571  HIT:    1558912  MISS:        659
cpu0_DTLB PREFETCH  ACCESS:          0  HIT:          0  MISS:          0
cpu0_DTLB WRITEBACK ACCESS:          0  HIT:          0  MISS:          0
cpu0_ITLB TOTAL     ACCESS:     658233  HIT:     658233  MISS:          0
cpu0_ITLB LOAD      ACCESS:     658233  HIT:     658233  MISS:          0
cpu0_ITLB RFO       ACCESS:          0  HIT:          0  MISS:          0
cpu0_ITLB PREFETCH  ACCESS:          0  HIT:          0  MISS:          0
cpu0_ITLB WRITEBACK ACCESS:          0  HIT:          0  MISS:          0
cpu0_L1I TOTAL     ACCESS:    3016516  HIT:    3016482  MISS:         34
cpu0_L1I LOAD      ACCESS:    3016516  HIT:    3016482  MISS:         34
cpu0_L1I RFO       ACCESS:          0  HIT:          0  MISS:          0
cpu0_L1I PREFETCH  ACCESS:          0  HIT:          0  MISS:          0
cpu0_L1I WRITEBACK ACCESS:          0  HIT:          0  MISS:          0
cpu0_STLB TOTAL     ACCESS:     737678  HIT:     675529  MISS:      62149
cpu0_STLB LOAD      ACCESS:     737019  HIT:     674870  MISS:      62149
cpu0_STLB RFO       ACCESS:        659  HIT:        659  MISS:          0
cpu0_STLB PREFETCH  ACCESS:          0  HIT:          0  MISS:          0
cpu0_STLB WRITEBACK ACCESS:          0  HIT:          0  MISS:          0
cpu0_L1D TOTAL     ACCESS:   24011950  HIT:   22023302  MISS:    1988648
cpu0_L1D LOAD      ACCESS:   22305004  HIT:   20324158  MISS:    1980846
cpu0_L1D RFO       ACCESS:    1644816  HIT:    1644813  MISS:          3
cpu0_L1D PREFETCH  ACCESS:          0  HIT:          0  MISS:          0
cpu0_L1D WRITEBACK ACCESS:          0  HIT:          0  MISS:          0
cpu0_L2C TOTAL     ACCESS:    2399472  HIT:    2059981  MISS:     339491
cpu0_L2C LOAD      ACCESS:    1980880  HIT:    1641520  MISS:     339360
cpu0_L2C RFO       ACCESS:          3  HIT:          0  MISS:          3
cpu0_L2C PREFETCH  ACCESS:          0  HIT:          0  MISS:          0
cpu0_L2C WRITEBACK ACCESS:     410790  HIT:     410790  MISS:          0
LLC TOTAL     ACCESS:     341280  HIT:       2504  MISS:     338776
LLC LOAD      ACCESS:     339360  HIT:       2288  MISS:     337072
LLC RFO       ACCESS:          3  HIT:          0  MISS:          3
LLC PREFETCH  ACCESS:          0  HIT:          0  MISS:          0
LLC WRITEBACK ACCESS:       1789  HIT:        205  MISS:       1584
Heartbeat CPU 0 instructions: 102000003 cycles: 77504491 heartbeat IPC: 1.28202 cumulative IPC: 1.01748 (Simulation time: 2 hr 2 min 40 sec) 

Region of Interest Statistics
cpu0_DTLB TOTAL     ACCESS:   20190836  HIT:   19434838  MISS:     755998
cpu0_DTLB LOAD      ACCESS:   18563563  HIT:   17808252  MISS:     755311
cpu0_DTLB RFO       ACCESS:    1627273  HIT:    1626586  MISS:        687
cpu0_DTLB PREFETCH  ACCESS:          0  HIT:          0  MISS:          0
cpu0_DTLB WRITEBACK ACCESS:          0  HIT:          0  MISS:          0
cpu0_ITLB TOTAL     ACCESS:     694239  HIT:     694239  MISS:          0
cpu0_ITLB LOAD      ACCESS:     694239  HIT:     694239  MISS:          0
cpu0_ITLB RFO       ACCESS:          0  HIT:          0  MISS:          0
cpu0_ITLB PREFETCH  ACCESS:          0  HIT:          0  MISS:          0
cpu0_ITLB WRITEBACK ACCESS:          0  HIT:          0  MISS:          0
cpu0_L1I TOTAL     ACCESS:    3214153  HIT:    3214119  MISS:         34
cpu0_L1I LOAD      ACCESS:    3214153  HIT:    3214119  MISS:         34
cpu0_L1I RFO       ACCESS:          0  HIT:          0  MISS:          0
cpu0_L1I PREFETCH  ACCESS:          0  HIT:          0  MISS:          0
cpu0_L1I WRITEBACK ACCESS:          0  HIT:          0  MISS:          0
cpu0_STLB TOTAL     ACCESS:     755998  HIT:     693849  MISS:      62149
cpu0_STLB LOAD      ACCESS:     755311  HIT:     693162  MISS:      62149
cpu0_STLB RFO       ACCESS:        687  HIT:        687  MISS:          0
cpu0_STLB PREFETCH  ACCESS:          0  HIT:          0  MISS:          0
cpu0_STLB WRITEBACK ACCESS:          0  HIT:          0  MISS:          0
cpu0_L1D TOTAL     ACCESS:   25010502  HIT:   22970348  MISS:    2040154
cpu0_L1D LOAD      ACCESS:   23234814  HIT:   21202462  MISS:    2032352
cpu0_L1D RFO       ACCESS:    1713558  HIT:    1713555  MISS:          3
cpu0_L1D PREFETCH  ACCESS:          0  HIT:          0  MISS:          0
cpu0_L1D WRITEBACK ACCESS:          0  HIT:          0  MISS:          0
cpu0_L2C TOTAL     ACCESS:    2450978  HIT:    2105996  MISS:     344982
cpu0_L2C LOAD      ACCESS:    2032386  HIT:    1687535  MISS:     344851
cpu0_L2C RFO       ACCESS:          3  HIT:          0  MISS:          3
cpu0_L2C PREFETCH  ACCESS:          0  HIT:          0  MISS:          0
cpu0_L2C WRITEBACK ACCESS:     410790  HIT:     410790  MISS:          0
LLC TOTAL     ACCESS:     346771  HIT:       2559  MISS:     344212
LLC LOAD      ACCESS:     344851  HIT:       2343  MISS:     342508
LLC RFO       ACCESS:          3  HIT:          0  MISS:          3
LLC PREFETCH  ACCESS:          0  HIT:          0  MISS:          0
LLC WRITEBACK ACCESS:       1789  HIT:        205  MISS:       1584
Heartbeat CPU 0 instructions: 104000002 cycles: 79066342 heartbeat IPC: 1.28053 cumulative IPC: 1.02529 (Simulation time: 2 hr 5 min 0 sec) 

Region of Interest Statistics
cpu0_DTLB TOTAL     ACCESS:   20988405  HIT:   20214148  MISS:     774257
cpu0_DTLB LOAD      ACCESS:   19293413  HIT:   18519870  MISS:     773543
cpu0_DTLB RFO       ACCESS:    1694992  HIT:    1694278  MISS:        714
cpu0_DTLB PREFETCH  ACCESS:          0  HIT:          0  MISS:          0
cpu0_DTLB WRITEBACK ACCESS:          0  HIT:          0  MISS:          0
cpu0_ITLB TOTAL     ACCESS:     730238  HIT:     730238  MISS:          0
cpu0_ITLB LOAD      ACCESS:     730238  HIT:     730238  MISS:          0
cpu0_ITLB RFO       ACCESS:          0  HIT:          0  MISS:          0
cpu0_ITLB PREFETCH  ACCESS:          0  HIT:          0  MISS:          0
cpu0_ITLB WRITEBACK ACCESS:          0  HIT:          0  MISS:          0
cpu0_L1I TOTAL     ACCESS:    3411793  HIT:    3411759  MISS:         34
cpu0_L1I LOAD      ACCESS:    3411793  HIT:    3411759  MISS:         34
cpu0_L1I RFO       ACCESS:          0  HIT:          0  MISS:          0
cpu0_L1I PREFETCH  ACCESS:          0  HIT:          0  MISS:          0
cpu0_L1I WRITEBACK ACCESS:          0  HIT:          0  MISS:          0
cpu0_STLB TOTAL     ACCESS:     774257  HIT:     712108  MISS:      62149
cpu0_STLB LOAD      ACCESS:     773543  HIT:     711394  MISS:      62149
cpu0_STLB RFO       ACCESS:        714  HIT:        714  MISS:          0
cpu0_STLB PREFETCH  ACCESS:          0  HIT:          0  MISS:          0
cpu0_STLB WRITEBACK ACCESS:          0  HIT:          0  MISS:          0
cpu0_L1D TOTAL     ACCESS:   26009048  HIT:   23917381  MISS:    2091667
cpu0_L1D LOAD      ACCESS:   24164615  HIT:   22080750  MISS:    2083865
cpu0_L1D RFO       ACCESS:    1782303  HIT:    1782300  MISS:          3
cpu0_L1D PREFETCH  ACCESS:          0  HIT:          0  MISS:          0
cpu0_L1D WRITEBACK ACCESS:          0  HIT:          0  MISS:          0
cpu0_L2C TOTAL     ACCESS:    2502491  HIT:    2152039  MISS:     350452
cpu0_L2C LOAD      ACCESS:    2083899  HIT:    1733578  MISS:     350321
cpu0_L2C RFO       ACCESS:          3  HIT:          0  MISS:          3
cpu0_L2C PREFETCH  ACCESS:          0  HIT:          0  MISS:          0
cpu0_L2C WRITEBACK ACCESS:     410790  HIT:     410790  MISS:          0
LLC TOTAL     ACCESS:     352241  HIT:       2597  MISS:     349644
LLC LOAD      ACCESS:     350321  HIT:       2381  MISS:     347940
LLC RFO       ACCESS:          3  HIT:          0  MISS:          3
LLC PREFETCH  ACCESS:          0  HIT:          0  MISS:          0
LLC WRITEBACK ACCESS:       1789  HIT:        205  MISS:       1584
Heartbeat CPU 0 instructions: 106000003 cycles: 80625794 heartbeat IPC: 1.2825 cumulative IPC: 1.03268 (Simulation time: 2 hr 7 min 19 sec) 

Region of Interest Statistics
cpu0_DTLB TOTAL     ACCESS:   21786272  HIT:   20993692  MISS:     792580
cpu0_DTLB LOAD      ACCESS:   20023599  HIT:   19231761  MISS:     791838
cpu0_DTLB RFO       ACCESS:    1762673  HIT:    1761931  MISS:        742
cpu0_DTLB PREFETCH  ACCESS:          0  HIT:          0  MISS:          0
cpu0_DTLB WRITEBACK ACCESS:          0  HIT:          0  MISS:          0
cpu0_ITLB TOTAL     ACCESS:     766238  HIT:     766238  MISS:          0
cpu0_ITLB LOAD      ACCESS:     766238  HIT:     766238  MISS:          0
cpu0_ITLB RFO       ACCESS:          0  HIT:          0  MISS:          0
cpu0_ITLB PREFETCH  ACCESS:          0  HIT:          0  MISS:          0
cpu0_ITLB WRITEBACK ACCESS:          0  HIT:          0  MISS:          0
cpu0_L1I TOTAL     ACCESS:    3609439  HIT:    3609405  MISS:         34
cpu0_L1I LOAD      ACCESS:    3609439  HIT:    3609405  MISS:         34
cpu0_L1I RFO       ACCESS:          0  HIT:          0  MISS:          0
cpu0_L1I PREFETCH  ACCESS:          0  HIT:          0  MISS:          0
cpu0_L1I WRITEBACK ACCESS:          0  HIT:          0  MISS:          0
cpu0_STLB TOTAL     ACCESS:     792580  HIT:     730431  MISS:      62149
cpu0_STLB LOAD      ACCESS:     791838  HIT:     729689  MISS:      62149
cpu0_STLB RFO       ACCESS:        742  HIT:        742  MISS:          0
cpu0_STLB PREFETCH  ACCESS:          0  HIT:          0  MISS:          0
cpu0_STLB WRITEBACK ACCESS:          0  HIT:          0  MISS:          0
cpu0_L1D TOTAL     ACCESS:   27007718  HIT:   24864541  MISS:    2143177
cpu0_L1D LOAD      ACCESS:   25094540  HIT:   22959165  MISS:    2135375
cpu0_L1D RFO       ACCESS:    1851048  HIT:    1851045  MISS:          3
cpu0_L1D PREFETCH  ACCESS:          0  HIT:          0  MISS:          0
cpu0_L1D WRITEBACK ACCESS:          0  HIT:          0  MISS:          0
cpu0_L2C TOTAL     ACCESS:    2554001  HIT:    2198132  MISS:     355869
cpu0_L2C LOAD      ACCESS:    2135409  HIT:    1779671  MISS:     355738
cpu0_L2C RFO       ACCESS:          3  HIT:          0  MISS:          3
cpu0_L2C PREFETCH  ACCESS:          0  HIT:          0  MISS:          0
[...]
cpu0_DTLB LOAD      ACCESS:  491738986  HIT:  487278187  MISS:    4460799
cpu0_DTLB RFO       ACCESS:   63672537  HIT:   62554222  MISS:    1118315
cpu0_DTLB PREFETCH  ACCESS:          0  HIT:          0  MISS:          0
cpu0_DTLB WRITEBACK ACCESS:          0  HIT:          0  MISS:          0
cpu0_ITLB TOTAL     ACCESS:   20863979  HIT:   20863949  MISS:         30
cpu0_ITLB LOAD      ACCESS:   20863979  HIT:   20863949  MISS:         30
cpu0_ITLB RFO       ACCESS:          0  HIT:          0  MISS:          0
cpu0_ITLB PREFETCH  ACCESS:          0  HIT:          0  MISS:          0
cpu0_ITLB WRITEBACK ACCESS:          0  HIT:          0  MISS:          0
cpu0_L1I TOTAL     ACCESS:   91741821  HIT:   91741084  MISS:        737
cpu0_L1I LOAD      ACCESS:   91741821  HIT:   91741084  MISS:        737
cpu0_L1I RFO       ACCESS:          0  HIT:          0  MISS:          0
cpu0_L1I PREFETCH  ACCESS:          0  HIT:          0  MISS:          0
cpu0_L1I WRITEBACK ACCESS:          0  HIT:          0  MISS:          0
cpu0_STLB TOTAL     ACCESS:    5579144  HIT:    4777144  MISS:     802000
cpu0_STLB LOAD      ACCESS:    4460829  HIT:    3659609  MISS:     801220
cpu0_STLB RFO       ACCESS:    1118315  HIT:    1117535  MISS:        780
cpu0_STLB PREFETCH  ACCESS:          0  HIT:          0  MISS:          0
cpu0_STLB WRITEBACK ACCESS:          0  HIT:          0  MISS:          0
cpu0_L1D TOTAL     ACCESS:  589139315  HIT:  565193131  MISS:   23946184
cpu0_L1D LOAD      ACCESS:  488361424  HIT:  464624192  MISS:   23737232
cpu0_L1D RFO       ACCESS:  100040722  HIT:   99875242  MISS:     165480
cpu0_L1D PREFETCH  ACCESS:          0  HIT:          0  MISS:          0
cpu0_L1D WRITEBACK ACCESS:          0  HIT:          0  MISS:          0
cpu0_L2C TOTAL     ACCESS:   33234149  HIT:   12462606  MISS:   20771543
cpu0_L2C LOAD      ACCESS:   23737969  HIT:    3099377  MISS:   20638592
cpu0_L2C RFO       ACCESS:     165480  HIT:      34024  MISS:     131456
cpu0_L2C PREFETCH  ACCESS:          0  HIT:          0  MISS:          0
cpu0_L2C WRITEBACK ACCESS:    9287228  HIT:    9286853  MISS:        375
LLC TOTAL     ACCESS:   29608470  HIT:       9197  MISS:   29599273
LLC LOAD      ACCESS:   20638592  HIT:       5052  MISS:   20633540
LLC RFO       ACCESS:     131456  HIT:       3929  MISS:     127527
LLC PREFETCH  ACCESS:          0  HIT:          0  MISS:          0
LLC WRITEBACK ACCESS:    8837302  HIT:        205  MISS:    8837097
Heartbeat CPU 0 instructions: 1550000000 cycles: 2858366287 heartbeat IPC: 0.345424 cumulative IPC: 0.529667 (Simulation time: 20 hr 13 min 15 sec) 

Region of Interest Statistics
cpu0_DTLB TOTAL     ACCESS:  555985846  HIT:  550405888  MISS:    5579958
cpu0_DTLB LOAD      ACCESS:  492218821  HIT:  487757178  MISS:    4461643
cpu0_DTLB RFO       ACCESS:   63767025  HIT:   62648710  MISS:    1118315
cpu0_DTLB PREFETCH  ACCESS:          0  HIT:          0  MISS:          0
cpu0_DTLB WRITEBACK ACCESS:          0  HIT:          0  MISS:          0
cpu0_ITLB TOTAL     ACCESS:   20869142  HIT:   20869112  MISS:         30
cpu0_ITLB LOAD      ACCESS:   20869142  HIT:   20869112  MISS:         30
cpu0_ITLB RFO       ACCESS:          0  HIT:          0  MISS:          0
cpu0_ITLB PREFETCH  ACCESS:          0  HIT:          0  MISS:          0
cpu0_ITLB WRITEBACK ACCESS:          0  HIT:          0  MISS:          0
cpu0_L1I TOTAL     ACCESS:   91741853  HIT:   91741116  MISS:        737
cpu0_L1I LOAD      ACCESS:   91741853  HIT:   91741116  MISS:        737
cpu0_L1I RFO       ACCESS:          0  HIT:          0  MISS:          0
cpu0_L1I PREFETCH  ACCESS:          0  HIT:          0  MISS:          0
cpu0_L1I WRITEBACK ACCESS:          0  HIT:          0  MISS:          0
cpu0_STLB TOTAL     ACCESS:    5579988  HIT:    4777354  MISS:     802634
cpu0_STLB LOAD      ACCESS:    4461673  HIT:    3659819  MISS:     801854
cpu0_STLB RFO       ACCESS:    1118315  HIT:    1117535  MISS:        780
cpu0_STLB PREFETCH  ACCESS:          0  HIT:          0  MISS:          0
cpu0_STLB WRITEBACK ACCESS:          0  HIT:          0  MISS:          0
cpu0_L1D TOTAL     ACCESS:  589603759  HIT:  565608500  MISS:   23995259
cpu0_L1D LOAD      ACCESS:  488681483  HIT:  464895176  MISS:   23786307
cpu0_L1D RFO       ACCESS:  100184473  HIT:  100018993  MISS:     165480
cpu0_L1D PREFETCH  ACCESS:          0  HIT:          0  MISS:          0
cpu0_L1D WRITEBACK ACCESS:          0  HIT:          0  MISS:          0
cpu0_L2C TOTAL     ACCESS:   33301569  HIT:   12480951  MISS:   20820618
cpu0_L2C LOAD      ACCESS:   23787044  HIT:    3099377  MISS:   20687667
cpu0_L2C RFO       ACCESS:     165480  HIT:      34024  MISS:     131456
cpu0_L2C PREFETCH  ACCESS:          0  HIT:          0  MISS:          0
cpu0_L2C WRITEBACK ACCESS:    9305573  HIT:    9305198  MISS:        375
LLC TOTAL     ACCESS:   29675828  HIT:       9197  MISS:   29666631
LLC LOAD      ACCESS:   20687667  HIT:       5052  MISS:   20682615
LLC RFO       ACCESS:     131456  HIT:       3929  MISS:     127527
LLC PREFETCH  ACCESS:          0  HIT:          0  MISS:          0
LLC WRITEBACK ACCESS:    8855585  HIT:        205  MISS:    8855380
Finished CPU 0 instructions: 1500000004 cycles: 2831968231 cumulative IPC: 0.529667 (Simulation time: 20 hr 13 min 15 sec) 

ChampSim completed all CPUs

Region of Interest Statistics

CPU 0 cumulative IPC: 0.529667 instructions: 1500000004 cycles: 2831968231
cpu0_DTLB TOTAL     ACCESS:  555985846  HIT:  550405888  MISS:    5579958
cpu0_DTLB LOAD      ACCESS:  492218821  HIT:  487757178  MISS:    4461643
cpu0_DTLB RFO       ACCESS:   63767025  HIT:   62648710  MISS:    1118315
cpu0_DTLB PREFETCH  ACCESS:          0  HIT:          0  MISS:          0
cpu0_DTLB WRITEBACK ACCESS:          0  HIT:          0  MISS:          0
cpu0_DTLB TRANSLATION ACCESS:          0  HIT:          0  MISS:          0
cpu0_DTLB PREFETCH  REQUESTED:          0  ISSUED:          0  USEFUL:          0  USELESS:          0
cpu0_DTLB AVERAGE MISS LATENCY: 22.9871 cycles
cpu0_ITLB TOTAL     ACCESS:   20869142  HIT:   20869112  MISS:         30
cpu0_ITLB LOAD      ACCESS:   20869142  HIT:   20869112  MISS:         30
cpu0_ITLB RFO       ACCESS:          0  HIT:          0  MISS:          0
cpu0_ITLB PREFETCH  ACCESS:          0  HIT:          0  MISS:          0
cpu0_ITLB WRITEBACK ACCESS:          0  HIT:          0  MISS:          0
cpu0_ITLB TRANSLATION ACCESS:          0  HIT:          0  MISS:          0
cpu0_ITLB PREFETCH  REQUESTED:          0  ISSUED:          0  USEFUL:          0  USELESS:          0
cpu0_ITLB AVERAGE MISS LATENCY: 285.767 cycles
cpu0_L1I TOTAL     ACCESS:   91741853  HIT:   91741116  MISS:        737
cpu0_L1I LOAD      ACCESS:   91741853  HIT:   91741116  MISS:        737
cpu0_L1I RFO       ACCESS:          0  HIT:          0  MISS:          0
cpu0_L1I PREFETCH  ACCESS:          0  HIT:          0  MISS:          0
cpu0_L1I WRITEBACK ACCESS:          0  HIT:          0  MISS:          0
cpu0_L1I TRANSLATION ACCESS:          0  HIT:          0  MISS:          0
cpu0_L1I PREFETCH  REQUESTED:          0  ISSUED:          0  USEFUL:          0  USELESS:          0
cpu0_L1I AVERAGE MISS LATENCY: 347.817 cycles
cpu0_STLB TOTAL     ACCESS:    5579988  HIT:    4777354  MISS:     802634
cpu0_STLB LOAD      ACCESS:    4461673  HIT:    3659819  MISS:     801854
cpu0_STLB RFO       ACCESS:    1118315  HIT:    1117535  MISS:        780
cpu0_STLB PREFETCH  ACCESS:          0  HIT:          0  MISS:          0
cpu0_STLB WRITEBACK ACCESS:          0  HIT:          0  MISS:          0
cpu0_STLB TRANSLATION ACCESS:          0  HIT:          0  MISS:          0
cpu0_STLB PREFETCH  REQUESTED:          0  ISSUED:          0  USEFUL:          0  USELESS:          0
cpu0_STLB AVERAGE MISS LATENCY: 97.1767 cycles
cpu0_L1D TOTAL     ACCESS:  589603759  HIT:  565608500  MISS:   23995259
cpu0_L1D LOAD      ACCESS:  488681483  HIT:  464895176  MISS:   23786307
cpu0_L1D RFO       ACCESS:  100184473  HIT:  100018993  MISS:     165480
cpu0_L1D PREFETCH  ACCESS:          0  HIT:          0  MISS:          0
cpu0_L1D WRITEBACK ACCESS:          0  HIT:          0  MISS:          0
cpu0_L1D TRANSLATION ACCESS:     737803  HIT:     694331  MISS:      43472
cpu0_L1D PREFETCH  REQUESTED:          0  ISSUED:          0  USEFUL:          0  USELESS:          0
cpu0_L1D AVERAGE MISS LATENCY: 448.133 cycles
cpu0_L2C TOTAL     ACCESS:   33301569  HIT:   12480951  MISS:   20820618
cpu0_L2C LOAD      ACCESS:   23787044  HIT:    3099377  MISS:   20687667
cpu0_L2C RFO       ACCESS:     165480  HIT:      34024  MISS:     131456
cpu0_L2C PREFETCH  ACCESS:          0  HIT:          0  MISS:          0
cpu0_L2C WRITEBACK ACCESS:    9305573  HIT:    9305198  MISS:        375
cpu0_L2C TRANSLATION ACCESS:      43472  HIT:      42352  MISS:       1120
cpu0_L2C PREFETCH  REQUESTED:          0  ISSUED:          0  USEFUL:          0  USELESS:          0
cpu0_L2C AVERAGE MISS LATENCY: 503.75 cycles
LLC TOTAL     ACCESS:   29675828  HIT:       9197  MISS:   29666631
LLC LOAD      ACCESS:   20687667  HIT:       5052  MISS:   20682615
LLC RFO       ACCESS:     131456  HIT:       3929  MISS:     127527
LLC PREFETCH  ACCESS:          0  HIT:          0  MISS:          0
LLC WRITEBACK ACCESS:    8855585  HIT:        205  MISS:    8855380
LLC TRANSLATION ACCESS:       1120  HIT:         11  MISS:       1109
LLC PREFETCH  REQUESTED:          0  ISSUED:          0  USEFUL:          0  USELESS:          0
LLC AVERAGE MISS LATENCY: 338.803 cycles
~~~~~~~~~~Reuse Distance Profiler output~~~~~~~~~~
0	0	0
1	0	0
2	0	0
3	0	0
4	0	0
5	0	0
6	0	0
7	0	0
8	0	0
9	0	0
10	0	0
11	0	0
12	0	0
13	0	0
14	0	0
15	0	0
16	0	0
17	0	0
18	0	0
19	0	0
20	0	0
21	0	0
22	0	0
23	0	0
24	0	0
25	0	0
26	0	0
27	0	0
28	0	0
29	0	0
30	0	0
31	0	0
32	0	0
33	0	0
34	0	0
35	0	0
36	0	0
37	0	0
38	0	0
39	0	0
40	0	0
41	0	0
42	0	0
43	0	0
44	0	0
45	0	0
46	0	0
47	0	0
48	0	0
49	0	0
50	0	0
51	0	0
52	0	0
53	0	0
54	0	0
55	0	0
56	0	0
57	0	0
58	0	0
59	0	0
60	0	0
61	0	0
62	0	0
63	0	0
64	0	0
66	0	0
68	0	0
70	0	0
72	0	0
74	0	0
76	0	0
78	0	0
80	0	0
82	0	0
84	0	0
86	0	0
88	0	0
90	0	0
92	0	0
94	0	0
96	0	0
98	0	0
100	0	0
102	0	0
104	0	0
106	0	0
108	0	0
110	0	0
112	0	0
114	0	0
116	0	0
118	0	0
120	0	0
122	0	0
124	0	0
126	0	0
128	0	0
132	0	0
136	0	0
140	0	0
144	0	0
148	0	0
152	0	0
156	0	0
160	0	0
164	0	0
168	0	0
172	0	0
176	0	0
180	0	0
184	0	0
188	0	0
192	0	0
196	0	0
200	0	0
204	0	0
208	0	0
212	0	0
216	0	0
220	0	0
224	0	0
228	0	0
232	0	0
236	0	0
240	0	0
244	0	0
248	0	0
252	0	0
256	0	0
264	0	0
272	0	0
280	0	0
288	0	0
296	0	0
304	0	0
312	0	0
320	0	0
328	0	0
336	0	0
344	0	0
352	0	0
360	0	0
368	0	0
376	0	0
384	0	0
392	0	0
400	0	0
408	0	0
416	0	0
424	0	0
432	0	0
440	0	0
448	0	0
456	0	0
464	0	0
472	0	0
480	0	0
488	0	0
496	0	0
504	0	0
512	0	0
528	0	0
544	0	0
560	0	0
576	0	0
592	0	0
608	0	0
624	0	0
640	0	0
656	0	0
672	0	0
688	0	0
704	0	0
720	0	0
736	0	0
752	0	0
768	0	0
784	0	0
800	0	0
816	0	0
832	0	0
848	0	0
864	0	0
880	0	0
896	0	0
912	0	0
928	0	0
944	0	0
960	0	0
976	0	0
992	0	0
1008	0	0
1024	0	0
1056	0	0
1088	0	0
1120	0	0
1152	0	0
1184	0	0
1216	0	0
1248	0	0
1280	0	0
1312	0	0
1344	0	0
1376	0	0
1408	0	0
1440	0	0
1472	0	0
1504	0	0
1536	0	0
1568	0	0
1600	0	0
1632	0	0
1664	0	0
1696	0	0
1728	0	0
1760	0	0
1792	0	0
1824	0	0
1856	0	0
1888	0	0
1920	0	0
1952	0	0
1984	0	0
2016	0	0
2048	0	0
2112	0	0
2176	0	0
2240	0	0
2304	0	0
2368	0	0
2432	0	0
2496	0	0
2560	0	0
2624	0	0
2688	0	0
2752	0	0
2816	0	0
2880	0	0
2944	0	0
3008	0	0
3072	0	0
3136	0	0
3200	0	0
3264	0	0
3328	0	0
3392	0	0
3456	0	0
3520	0	0
3584	0	0
3648	0	0
3712	0	0
3776	0	0
3840	0	0
3904	0	0
3968	0	0
4032	0	0
4096	0	0
4224	0	0
4352	0	0
4480	0	0
4608	0	0
4736	0	0
4864	0	0
4992	0	0
5120	0	0
5248	0	0
5376	0	0
5504	0	0
5632	0	0
5760	0	0
5888	0	0
6016	0	0
6144	0	0
6272	0	0
6400	0	0
6528	0	0
6656	0	0
6784	0	0
6912	0	0
7040	0	0
7168	0	0
7296	0	0
7424	0	0
7552	0	0
7680	0	0
7808	0	0
7936	0	0
8064	0	0
8192	0	0
8448	0	0
8704	0	0
8960	0	0
9216	0	0
9472	0	0
9728	0	0
9984	0	0
10240	0	0
10496	0	0
10752	0	0
11008	0	0
11264	0	0
11520	0	0
11776	0	0
12032	0	0
12288	0	0
12544	0	0
12800	0	0
13056	0	0
13312	0	0
13568	0	0
13824	0	0
14080	0	0
14336	0	0
14592	0	0
14848	0	0
15104	0	0
15360	0	0
15616	0	0
15872	0	0
16128	0	0
16384	0	0
16896	0	0
17408	0	0
17920	0	0
18432	0	0
18944	0	0
19456	0	0
19968	0	0
20480	0	0
20992	0	0
21504	0	0
22016	0	0
22528	0	0
23040	0	0
23552	0	0
24064	0	0
24576	0	0
25088	0	0
25600	0	0
26112	0	0
26624	0	0
27136	0	0
27648	0	0
28160	0	0
28672	0	0
29184	0	0
29696	0	0
30208	0	0
30720	0	0
31232	0	0
31744	0	0
32256	0	0
32768	0	0
33792	0	0
34816	0	0
35840	0	0
36864	0	0
37888	0	0
38912	0	0
39936	0	0
40960	0	0
41984	0	0
43008	0	0
44032	0	0
45056	0	0
46080	0	0
47104	0	0
48128	0	0
49152	0	0
50176	0	0
51200	0	0
52224	0	0
53248	0	0
54272	0	0
55296	0	0
56320	0	0
57344	0	0
58368	0	0
59392	0	0
60416	0	0
61440	0	0
62464	0	0
63488	0	0
64512	0	0
65536	0	0
67584	0	0
69632	0	0
71680	0	0
73728	0	0
75776	0	0
77824	0	0
79872	0	0
81920	0	0
83968	0	0
86016	0	0
88064	0	0
90112	0	0
92160	0	0
94208	0	0
96256	0	0
98304	0	0
100352	0	0
102400	0	0
104448	0	0
106496	0	0
108544	0	0
110592	0	0
112640	0	0
114688	0	0
116736	0	0
118784	0	0
120832	0	0
122880	0	0
124928	0	0
126976	0	0
129024	0	0
131072	0	0
135168	0	0
139264	0	0
143360	0	0
147456	0	0
151552	0	0
155648	0	0
159744	0	0
163840	0	0
167936	0	0
172032	0	0
176128	0	0
180224	0	0
184320	0	0
188416	0	0
192512	0	0
196608	0	0
200704	0	0
204800	0	0
208896	0	0
212992	0	0
217088	0	0
221184	0	0
225280	0	0
229376	0	0
233472	0	0
237568	0	0
241664	0	0
245760	0	0
249856	0	0
253952	0	0
258048	0	0
262144	0	0
270336	0	0
278528	0	0
286720	0	0
294912	0	0
303104	0	0
311296	0	0
319488	0	0
327680	0	0
335872	0	0
344064	0	0
352256	0	0
360448	0	0
368640	0	0
376832	0	0
385024	0	0
393216	0	0
401408	0	0
409600	0	0
417792	0	0
425984	0	0
434176	0	0
442368	0	0
450560	0	0
458752	0	0
466944	0	0
475136	0	0
483328	0	0
491520	0	0
499712	0	0
507904	0	0
516096	0	0
524288	0	0
540672	0	0
557056	0	0
573440	0	0
589824	0	0
606208	0	0
622592	0	0
638976	0	0
655360	0	0
671744	0	0
688128	0	0
704512	0	0
720896	0	0
737280	0	0
753664	0	0
770048	0	0
786432	0	0
802816	0	0
819200	0	0
835584	0	0
851968	0	0
868352	0	0
884736	0	0
901120	0	0
917504	0	0
933888	0	0
950272	0	0
966656	0	0
983040	0	0
999424	0	0
1015808	0	0
1032192	0	0
1048576	0	0
1081344	0	0
1114112	0	0
1146880	0	0
1179648	0	0
1212416	0	0
1245184	0	0
1277952	0	0
1310720	0	0
1343488	0	0
1376256	0	0
1409024	0	0
1441792	0	0
1474560	0	0
1507328	0	0
1540096	0	0
1572864	0	0
1605632	0	0
1638400	0	0
1671168	0	0
1703936	0	0
1736704	0	0
1769472	0	0
1802240	0	0
1835008	0	0
1867776	0	0
1900544	0	0
1933312	0	0
1966080	0	0
1998848	0	0
2031616	0	0
2064384	0	0
2097152	0	0
2162688	0	0
2228224	0	0
2293760	0	0
2359296	0	0
2424832	0	0
2490368	0	0
2555904	0	0
2621440	0	0
2686976	0	0
2752512	0	0
2818048	0	0
2883584	0	0
2949120	0	0
3014656	0	0
3080192	0	0
3145728	0	0
3211264	0	0
3276800	0	0
3342336	0	0
3407872	0	0
3473408	0	0
3538944	0	0
3604480	0	0
3670016	0	0
3735552	0	0
3801088	0	0
3866624	0	0
3932160	0	0
3997696	0	0
4063232	0	0
4128768	0	0
4194304	0	0
4325376	0	0
4456448	0	0
4587520	0	0
4718592	0	0
4849664	0	0
4980736	0	0
5111808	0	0
5242880	0	0
5373952	0	0
5505024	0	0
5636096	0	0
5767168	0	0
5898240	0	0
6029312	0	0
6160384	0	0
6291456	0	0
6422528	0	0
6553600	0	0
6684672	0	0
6815744	0	0
6946816	0	0
7077888	0	0
7208960	0	0
7340032	0	0
7471104	0	0
7602176	0	0
7733248	0	0
7864320	0	0
7995392	0	0
8126464	0	0
8257536	0	0
8388608	0	0
8650752	0	0
8912896	0	0
9175040	0	0
9437184	0	0
9699328	0	0
9961472	0	0
10223616	0	0
10485760	0	0
10747904	0	0
11010048	0	0
11272192	0	0
11534336	0	0
11796480	0	0
12058624	0	0
12320768	0	0
12582912	0	0
12845056	0	0
13107200	0	0
13369344	0	0
13631488	0	0
13893632	0	0
14155776	0	0
14417920	0	0
14680064	0	0
14942208	0	0
15204352	0	0
15466496	0	0
15728640	0	0
15990784	0	0
16252928	0	0
16515072	0	0
16777216	0	0
17301504	0	0
17825792	0	0
18350080	0	0
18874368	0	0
19398656	0	0
19922944	0	0
20447232	0	0
20971520	0	0
21495808	0	0
22020096	0	0
22544384	0	0
23068672	0	0
23592960	0	0
24117248	0	0
24641536	0	0
25165824	0	0
25690112	0	0
26214400	0	0
26738688	0	0
27262976	0	0
27787264	0	0
28311552	0	0
28835840	0	0
29360128	0	0
29884416	0	0
30408704	0	0
30932992	0	0
31457280	0	0
31981568	0	0
32505856	0	0
33030144	0	0
33554432	0	0
34603008	0	0
35651584	0	0
36700160	0	0
37748736	0	0
38797312	0	0
39845888	0	0
40894464	0	0
41943040	0	0
42991616	0	0
44040192	0	0
45088768	0	0
46137344	0	0
47185920	0	0
48234496	0	0
49283072	0	0
50331648	0	0
51380224	0	0
52428800	0	0
53477376	0	0
54525952	0	0
55574528	0	0
56623104	0	0
57671680	0	0
58720256	0	0
59768832	0	0
60817408	0	0
61865984	0	0
62914560	0	0
63963136	0	0
65011712	0	0
66060288	0	0
67108864	0	0
69206016	0	0
71303168	0	0
73400320	0	0
75497472	0	0
77594624	0	0
79691776	0	0
81788928	0	0
83886080	0	0
85983232	0	0
88080384	0	0
90177536	0	0
92274688	0	0
94371840	0	0
96468992	0	0
98566144	0	0
100663296	0	0
102760448	0	0
104857600	0	0
106954752	0	0
109051904	0	0
111149056	0	0
113246208	0	0
115343360	0	0
117440512	0	0
119537664	0	0
121634816	0	0
123731968	0	0
125829120	0	0
127926272	0	0
130023424	0	0
132120576	0	0
134217728	0	0
138412032	0	0
142606336	0	0
146800640	0	0
150994944	0	0
155189248	0	0
159383552	0	0
163577856	0	0
167772160	0	0
171966464	0	0
176160768	0	0
180355072	0	0
184549376	0	0
188743680	0	0
192937984	0	0
197132288	0	0
201326592	0	0
205520896	0	0
209715200	0	0
213909504	0	0
218103808	0	0
222298112	0	0
226492416	0	0
230686720	0	0
234881024	0	0
239075328	0	0
243269632	0	0
247463936	0	0
251658240	0	0
255852544	0	0
260046848	0	0
264241152	0	0
268435456	0	0
276824064	0	0
285212672	0	0
293601280	0	0
301989888	0	0
310378496	0	0
318767104	0	0
327155712	0	0
335544320	0	0
343932928	0	0
352321536	0	0
360710144	0	0
369098752	0	0
377487360	0	0
385875968	0	0
394264576	0	0
402653184	0	0
411041792	0	0
419430400	0	0
427819008	0	0
436207616	0	0
444596224	0	0
452984832	0	0
461373440	0	0
469762048	0	0
478150656	0	0
486539264	0	0
494927872	0	0
503316480	0	0
511705088	0	0
520093696	0	0
528482304	0	0
536870912	0	0
553648128	0	0
570425344	0	0
587202560	0	0
603979776	0	0
620756992	0	0
637534208	0	0
654311424	0	0
671088640	0	0
687865856	0	0
704643072	0	0
721420288	0	0
738197504	0	0
754974720	0	0
771751936	0	0
788529152	0	0
805306368	0	0
822083584	0	0
838860800	0	0
855638016	0	0
872415232	0	0
889192448	0	0
905969664	0	0
922746880	0	0
939524096	0	0
956301312	0	0
973078528	0	0
989855744	0	0
1006632960	0	0
1023410176	0	0
1040187392	0	0
1056964608	0	0
1073741824	0	0
1107296256	0	0
1140850688	0	0
1174405120	0	0
1207959552	0	0
1241513984	0	0
1275068416	0	0
1308622848	0	0
1342177280	0	0
1375731712	0	0
1409286144	0	0
1442840576	0	0
1476395008	0	0
1509949440	0	0
1543503872	0	0
1577058304	0	0
1610612736	0	0
1644167168	0	0
1677721600	0	0
1711276032	0	0
1744830464	0	0
1778384896	0	0
1811939328	0	0
1845493760	0	0
1879048192	0	0
1912602624	0	0
1946157056	0	0
1979711488	0	0
2013265920	0	0
2046820352	0	0
2080374784	0	0
2113929216	0	0
2147483648	0	0
2214592512	0	0
2281701376	0	0
2348810240	0	0
2415919104	0	0
2483027968	0	0
2550136832	0	0
2617245696	0	0
2684354560	0	0
2751463424	0	0
2818572288	0	0
2885681152	0	0
2952790016	0	0
3019898880	0	0
3087007744	0	0
3154116608	0	0
3221225472	0	0
3288334336	0	0
3355443200	0	0
3422552064	0	0
3489660928	0	0
3556769792	0	0
3623878656	0	0
3690987520	0	0
3758096384	0	0
3825205248	0	0
3892314112	0	0
3959422976	0	0
4026531840	0	0
4093640704	0	0
4160749568	0	0
4227858432	0	0
~~~~~~~~~~Reuse Distance Profiler output end~~~~~~~~~~


DRAM Statistics
 CHANNEL 0
 RQ ROW_BUFFER_HIT:     106922  ROW_BUFFER_MISS:   20703589
 DBUS AVG_CONGESTED_CYCLE:    3.98195
 WQ ROW_BUFFER_HIT:     642885  ROW_BUFFER_MISS:    8212320  FULL:          0


CPU 0 Branch Prediction Accuracy: 98.5949% MPKI: 0.266477 Average ROB Occupancy at Mispredict: 343.14
Branch type MPKI
BRANCH_DIRECT_JUMP: 2.2e-05
BRANCH_INDIRECT: 2e-06
BRANCH_CONDITIONAL: 0.266325
BRANCH_DIRECT_CALL: 6.66667e-05
BRANCH_INDIRECT_CALL: 0
BRANCH_RETURN: 6.2e-05

