
*** ChampSim Multicore Out-of-Order Simulator ***

Warmup Instructions: 50000000
Simulation Instructions: 1500000000
Number of CPUs: 1
Off-chip DRAM Size: 4 GiB Channels: 1 Width: 64-bit Data Rate: 3200 MT/s

VirtualMemory physical capacity: 8588881920 num_ppages: 2096895
VirtualMemory page size: 4096 log2_page_size: 12

CPU 0 runs traces/459.GemsFDTD-1211B.champsimtrace.xz
CPU 0 Bimodal branch predictor
Basic BTB sets: 1024 ways: 8 indirect buffer size: 4096 RAS size: 64
Initializing LRU.
Initializing LRU.
Initializing LRU.
Initializing LRU.
Initializing rdLRU.
Initializing LRU.
Initializing LRU.
Heartbeat CPU 0 instructions: 2000000 cycles: 1091267 heartbeat IPC: 1.83273 cumulative IPC: 1.83273 (Simulation time: 0 hr 2 min 36 sec) 
Heartbeat CPU 0 instructions: 4000002 cycles: 2182394 heartbeat IPC: 1.83297 cumulative IPC: 1.83285 (Simulation time: 0 hr 5 min 1 sec) 
Heartbeat CPU 0 instructions: 6000000 cycles: 3273528 heartbeat IPC: 1.83295 cumulative IPC: 1.83288 (Simulation time: 0 hr 7 min 31 sec) 
Heartbeat CPU 0 instructions: 8000000 cycles: 4364666 heartbeat IPC: 1.83295 cumulative IPC: 1.8329 (Simulation time: 0 hr 10 min 3 sec) 
Heartbeat CPU 0 instructions: 10000004 cycles: 5455809 heartbeat IPC: 1.83294 cumulative IPC: 1.83291 (Simulation time: 0 hr 12 min 44 sec) 
Heartbeat CPU 0 instructions: 12000000 cycles: 6546928 heartbeat IPC: 1.83298 cumulative IPC: 1.83292 (Simulation time: 0 hr 15 min 19 sec) 
Heartbeat CPU 0 instructions: 14000002 cycles: 7638064 heartbeat IPC: 1.83295 cumulative IPC: 1.83293 (Simulation time: 0 hr 17 min 49 sec) 
Heartbeat CPU 0 instructions: 16000003 cycles: 8729224 heartbeat IPC: 1.83291 cumulative IPC: 1.83292 (Simulation time: 0 hr 20 min 23 sec) 
Heartbeat CPU 0 instructions: 18000003 cycles: 9820368 heartbeat IPC: 1.83294 cumulative IPC: 1.83293 (Simulation time: 0 hr 22 min 56 sec) 
Heartbeat CPU 0 instructions: 20000000 cycles: 10911480 heartbeat IPC: 1.83299 cumulative IPC: 1.83293 (Simulation time: 0 hr 25 min 31 sec) 
Heartbeat CPU 0 instructions: 22000001 cycles: 12002625 heartbeat IPC: 1.83294 cumulative IPC: 1.83293 (Simulation time: 0 hr 28 min 4 sec) 
Heartbeat CPU 0 instructions: 24000001 cycles: 13093759 heartbeat IPC: 1.83296 cumulative IPC: 1.83293 (Simulation time: 0 hr 30 min 39 sec) 
Heartbeat CPU 0 instructions: 26000000 cycles: 14184895 heartbeat IPC: 1.83295 cumulative IPC: 1.83294 (Simulation time: 0 hr 33 min 14 sec) 
Heartbeat CPU 0 instructions: 28000001 cycles: 15276018 heartbeat IPC: 1.83297 cumulative IPC: 1.83294 (Simulation time: 0 hr 35 min 46 sec) 
Heartbeat CPU 0 instructions: 30000003 cycles: 16367160 heartbeat IPC: 1.83294 cumulative IPC: 1.83294 (Simulation time: 0 hr 38 min 14 sec) 
Heartbeat CPU 0 instructions: 32000001 cycles: 17458290 heartbeat IPC: 1.83296 cumulative IPC: 1.83294 (Simulation time: 0 hr 40 min 46 sec) 
Heartbeat CPU 0 instructions: 34000000 cycles: 18549434 heartbeat IPC: 1.83294 cumulative IPC: 1.83294 (Simulation time: 0 hr 43 min 15 sec) 
Heartbeat CPU 0 instructions: 36000001 cycles: 19640546 heartbeat IPC: 1.83299 cumulative IPC: 1.83294 (Simulation time: 0 hr 45 min 48 sec) 
Heartbeat CPU 0 instructions: 38000000 cycles: 20731693 heartbeat IPC: 1.83293 cumulative IPC: 1.83294 (Simulation time: 0 hr 48 min 24 sec) 
Heartbeat CPU 0 instructions: 40000000 cycles: 21854955 heartbeat IPC: 1.78053 cumulative IPC: 1.83025 (Simulation time: 0 hr 50 min 58 sec) 
Heartbeat CPU 0 instructions: 42000004 cycles: 23081020 heartbeat IPC: 1.63124 cumulative IPC: 1.81968 (Simulation time: 0 hr 53 min 43 sec) 
Heartbeat CPU 0 instructions: 44000000 cycles: 24229256 heartbeat IPC: 1.7418 cumulative IPC: 1.81599 (Simulation time: 0 hr 56 min 21 sec) 
Heartbeat CPU 0 instructions: 46000000 cycles: 25321504 heartbeat IPC: 1.83109 cumulative IPC: 1.81664 (Simulation time: 0 hr 58 min 48 sec) 
Heartbeat CPU 0 instructions: 48000001 cycles: 26413748 heartbeat IPC: 1.83109 cumulative IPC: 1.81724 (Simulation time: 1 hr 1 min 23 sec) 
Heartbeat CPU 0 instructions: 50000002 cycles: 27505991 heartbeat IPC: 1.8311 cumulative IPC: 1.81779 (Simulation time: 1 hr 4 min 0 sec) 

Warmup complete CPU 0 instructions: 50000002 cycles: 27505991 (Simulation time: 1 hr 4 min 0 sec) 

Heartbeat CPU 0 instructions: 52000000 cycles: 30412985 heartbeat IPC: 0.687995 cumulative IPC: 0.687995 (Simulation time: 1 hr 7 min 21 sec) 

Region of Interest Statistics
cpu0_DTLB TOTAL     ACCESS:     911362  HIT:     896087  MISS:      15275
cpu0_DTLB LOAD      ACCESS:     824972  HIT:     811112  MISS:      13860
cpu0_DTLB RFO       ACCESS:      86390  HIT:      84975  MISS:       1415
cpu0_DTLB PREFETCH  ACCESS:          0  HIT:          0  MISS:          0
cpu0_DTLB WRITEBACK ACCESS:          0  HIT:          0  MISS:          0
cpu0_ITLB TOTAL     ACCESS:      37988  HIT:      37988  MISS:          0
cpu0_ITLB LOAD      ACCESS:      37988  HIT:      37988  MISS:          0
cpu0_ITLB RFO       ACCESS:          0  HIT:          0  MISS:          0
cpu0_ITLB PREFETCH  ACCESS:          0  HIT:          0  MISS:          0
cpu0_ITLB WRITEBACK ACCESS:          0  HIT:          0  MISS:          0
cpu0_L1I TOTAL     ACCESS:     223802  HIT:     223802  MISS:          0
cpu0_L1I LOAD      ACCESS:     223802  HIT:     223802  MISS:          0
cpu0_L1I RFO       ACCESS:          0  HIT:          0  MISS:          0
cpu0_L1I PREFETCH  ACCESS:          0  HIT:          0  MISS:          0
cpu0_L1I WRITEBACK ACCESS:          0  HIT:          0  MISS:          0
cpu0_STLB TOTAL     ACCESS:      15275  HIT:      13124  MISS:       2151
cpu0_STLB LOAD      ACCESS:      13860  HIT:      11709  MISS:       2151
cpu0_STLB RFO       ACCESS:       1415  HIT:       1415  MISS:          0
cpu0_STLB PREFETCH  ACCESS:          0  HIT:          0  MISS:          0
cpu0_STLB WRITEBACK ACCESS:          0  HIT:          0  MISS:          0
cpu0_L1D TOTAL     ACCESS:    1069442  HIT:    1051189  MISS:      18253
cpu0_L1D LOAD      ACCESS:     913922  HIT:     895687  MISS:      18235
cpu0_L1D RFO       ACCESS:     153372  HIT:     153372  MISS:          0
cpu0_L1D PREFETCH  ACCESS:          0  HIT:          0  MISS:          0
cpu0_L1D WRITEBACK ACCESS:          0  HIT:          0  MISS:          0
cpu0_L2C TOTAL     ACCESS:      26826  HIT:      12023  MISS:      14803
cpu0_L2C LOAD      ACCESS:      18235  HIT:       3434  MISS:      14801
cpu0_L2C RFO       ACCESS:          0  HIT:          0  MISS:          0
cpu0_L2C PREFETCH  ACCESS:          0  HIT:          0  MISS:          0
cpu0_L2C WRITEBACK ACCESS:       8573  HIT:       8573  MISS:          0
LLC TOTAL     ACCESS:      23315  HIT:          0  MISS:      23315
LLC LOAD      ACCESS:      14801  HIT:          0  MISS:      14801
LLC RFO       ACCESS:          0  HIT:          0  MISS:          0
LLC PREFETCH  ACCESS:          0  HIT:          0  MISS:          0
LLC WRITEBACK ACCESS:       8512  HIT:          0  MISS:       8512
Heartbeat CPU 0 instructions: 54000004 cycles: 33338837 heartbeat IPC: 0.683563 cumulative IPC: 0.685772 (Simulation time: 1 hr 10 min 50 sec) 

Region of Interest Statistics
cpu0_DTLB TOTAL     ACCESS:    1823854  HIT:    1794002  MISS:      29852
cpu0_DTLB LOAD      ACCESS:    1651065  HIT:    1624181  MISS:      26884
cpu0_DTLB RFO       ACCESS:     172789  HIT:     169821  MISS:       2968
cpu0_DTLB PREFETCH  ACCESS:          0  HIT:          0  MISS:          0
cpu0_DTLB WRITEBACK ACCESS:          0  HIT:          0  MISS:          0
cpu0_ITLB TOTAL     ACCESS:      76003  HIT:      76003  MISS:          0
cpu0_ITLB LOAD      ACCESS:      76003  HIT:      76003  MISS:          0
cpu0_ITLB RFO       ACCESS:          0  HIT:          0  MISS:          0
cpu0_ITLB PREFETCH  ACCESS:          0  HIT:          0  MISS:          0
cpu0_ITLB WRITEBACK ACCESS:          0  HIT:          0  MISS:          0
cpu0_L1I TOTAL     ACCESS:     447666  HIT:     447666  MISS:          0
cpu0_L1I LOAD      ACCESS:     447666  HIT:     447666  MISS:          0
cpu0_L1I RFO       ACCESS:          0  HIT:          0  MISS:          0
cpu0_L1I PREFETCH  ACCESS:          0  HIT:          0  MISS:          0
cpu0_L1I WRITEBACK ACCESS:          0  HIT:          0  MISS:          0
cpu0_STLB TOTAL     ACCESS:      29852  HIT:      25542  MISS:       4310
cpu0_STLB LOAD      ACCESS:      26884  HIT:      22574  MISS:       4310
cpu0_STLB RFO       ACCESS:       2968  HIT:       2968  MISS:          0
cpu0_STLB PREFETCH  ACCESS:          0  HIT:          0  MISS:          0
cpu0_STLB WRITEBACK ACCESS:          0  HIT:          0  MISS:          0
cpu0_L1D TOTAL     ACCESS:    2139446  HIT:    2102925  MISS:      36521
cpu0_L1D LOAD      ACCESS:    1828399  HIT:    1791915  MISS:      36484
cpu0_L1D RFO       ACCESS:     306749  HIT:     306749  MISS:          0
cpu0_L1D PREFETCH  ACCESS:          0  HIT:          0  MISS:          0
cpu0_L1D WRITEBACK ACCESS:          0  HIT:          0  MISS:          0
cpu0_L2C TOTAL     ACCESS:      53693  HIT:      23902  MISS:      29791
cpu0_L2C LOAD      ACCESS:      36484  HIT:       6697  MISS:      29787
cpu0_L2C RFO       ACCESS:          0  HIT:          0  MISS:          0
cpu0_L2C PREFETCH  ACCESS:          0  HIT:          0  MISS:          0
cpu0_L2C WRITEBACK ACCESS:      17172  HIT:      17172  MISS:          0
LLC TOTAL     ACCESS:      46885  HIT:          0  MISS:      46885
LLC LOAD      ACCESS:      29787  HIT:          0  MISS:      29787
LLC RFO       ACCESS:          0  HIT:          0  MISS:          0
LLC PREFETCH  ACCESS:          0  HIT:          0  MISS:          0
LLC WRITEBACK ACCESS:      17094  HIT:          0  MISS:      17094
Heartbeat CPU 0 instructions: 56000004 cycles: 36247554 heartbeat IPC: 0.687588 cumulative IPC: 0.686376 (Simulation time: 1 hr 14 min 19 sec) 

Region of Interest Statistics
cpu0_DTLB TOTAL     ACCESS:    2738208  HIT:    2697903  MISS:      40305
cpu0_DTLB LOAD      ACCESS:    2479015  HIT:    2442549  MISS:      36466
cpu0_DTLB RFO       ACCESS:     259193  HIT:     255354  MISS:       3839
cpu0_DTLB PREFETCH  ACCESS:          0  HIT:          0  MISS:          0
cpu0_DTLB WRITEBACK ACCESS:          0  HIT:          0  MISS:          0
cpu0_ITLB TOTAL     ACCESS:     113993  HIT:     113993  MISS:          0
cpu0_ITLB LOAD      ACCESS:     113993  HIT:     113993  MISS:          0
cpu0_ITLB RFO       ACCESS:          0  HIT:          0  MISS:          0
cpu0_ITLB PREFETCH  ACCESS:          0  HIT:          0  MISS:          0
cpu0_ITLB WRITEBACK ACCESS:          0  HIT:          0  MISS:          0
cpu0_L1I TOTAL     ACCESS:     671492  HIT:     671492  MISS:          0
cpu0_L1I LOAD      ACCESS:     671492  HIT:     671492  MISS:          0
cpu0_L1I RFO       ACCESS:          0  HIT:          0  MISS:          0
cpu0_L1I PREFETCH  ACCESS:          0  HIT:          0  MISS:          0
cpu0_L1I WRITEBACK ACCESS:          0  HIT:          0  MISS:          0
cpu0_STLB TOTAL     ACCESS:      40305  HIT:      33839  MISS:       6466
cpu0_STLB LOAD      ACCESS:      36466  HIT:      30000  MISS:       6466
cpu0_STLB RFO       ACCESS:       3839  HIT:       3839  MISS:          0
cpu0_STLB PREFETCH  ACCESS:          0  HIT:          0  MISS:          0
cpu0_STLB WRITEBACK ACCESS:          0  HIT:          0  MISS:          0
cpu0_L1D TOTAL     ACCESS:    3209188  HIT:    3154404  MISS:      54784
cpu0_L1D LOAD      ACCESS:    2742620  HIT:    2687891  MISS:      54729
cpu0_L1D RFO       ACCESS:     460118  HIT:     460118  MISS:          0
cpu0_L1D PREFETCH  ACCESS:          0  HIT:          0  MISS:          0
cpu0_L1D WRITEBACK ACCESS:          0  HIT:          0  MISS:          0
cpu0_L2C TOTAL     ACCESS:      80528  HIT:      35751  MISS:      44777
cpu0_L2C LOAD      ACCESS:      54729  HIT:       9957  MISS:      44772
cpu0_L2C RFO       ACCESS:          0  HIT:          0  MISS:          0
cpu0_L2C PREFETCH  ACCESS:          0  HIT:          0  MISS:          0
cpu0_L2C WRITEBACK ACCESS:      25744  HIT:      25744  MISS:          0
LLC TOTAL     ACCESS:      70490  HIT:          0  MISS:      70490
LLC LOAD      ACCESS:      44772  HIT:          0  MISS:      44772
LLC RFO       ACCESS:          0  HIT:          0  MISS:          0
LLC PREFETCH  ACCESS:          0  HIT:          0  MISS:          0
LLC WRITEBACK ACCESS:      25713  HIT:          0  MISS:      25713
Heartbeat CPU 0 instructions: 58000004 cycles: 39141775 heartbeat IPC: 0.691032 cumulative IPC: 0.687534 (Simulation time: 1 hr 17 min 45 sec) 

Region of Interest Statistics
cpu0_DTLB TOTAL     ACCESS:    3651516  HIT:    3598861  MISS:      52655
cpu0_DTLB LOAD      ACCESS:    3306024  HIT:    3258196  MISS:      47828
cpu0_DTLB RFO       ACCESS:     345492  HIT:     340665  MISS:       4827
cpu0_DTLB PREFETCH  ACCESS:          0  HIT:          0  MISS:          0
cpu0_DTLB WRITEBACK ACCESS:          0  HIT:          0  MISS:          0
cpu0_ITLB TOTAL     ACCESS:     151981  HIT:     151981  MISS:          0
cpu0_ITLB LOAD      ACCESS:     151981  HIT:     151981  MISS:          0
cpu0_ITLB RFO       ACCESS:          0  HIT:          0  MISS:          0
cpu0_ITLB PREFETCH  ACCESS:          0  HIT:          0  MISS:          0
cpu0_ITLB WRITEBACK ACCESS:          0  HIT:          0  MISS:          0
cpu0_L1I TOTAL     ACCESS:     895351  HIT:     895351  MISS:          0
cpu0_L1I LOAD      ACCESS:     895351  HIT:     895351  MISS:          0
cpu0_L1I RFO       ACCESS:          0  HIT:          0  MISS:          0
cpu0_L1I PREFETCH  ACCESS:          0  HIT:          0  MISS:          0
cpu0_L1I WRITEBACK ACCESS:          0  HIT:          0  MISS:          0
cpu0_STLB TOTAL     ACCESS:      52655  HIT:      44033  MISS:       8622
cpu0_STLB LOAD      ACCESS:      47828  HIT:      39206  MISS:       8622
cpu0_STLB RFO       ACCESS:       4827  HIT:       4827  MISS:          0
cpu0_STLB PREFETCH  ACCESS:          0  HIT:          0  MISS:          0
cpu0_STLB WRITEBACK ACCESS:          0  HIT:          0  MISS:          0
cpu0_L1D TOTAL     ACCESS:    4278610  HIT:    4205563  MISS:      73047
cpu0_L1D LOAD      ACCESS:    3656520  HIT:    3583550  MISS:      72970
cpu0_L1D RFO       ACCESS:     613488  HIT:     613488  MISS:          0
cpu0_L1D PREFETCH  ACCESS:          0  HIT:          0  MISS:          0
cpu0_L1D WRITEBACK ACCESS:          0  HIT:          0  MISS:          0
cpu0_L2C TOTAL     ACCESS:     107391  HIT:      47788  MISS:      59603
cpu0_L2C LOAD      ACCESS:      72970  HIT:      13375  MISS:      59595
cpu0_L2C RFO       ACCESS:          0  HIT:          0  MISS:          0
cpu0_L2C PREFETCH  ACCESS:          0  HIT:          0  MISS:          0
cpu0_L2C WRITEBACK ACCESS:      34344  HIT:      34344  MISS:          0
LLC TOTAL     ACCESS:      93852  HIT:          0  MISS:      93852
LLC LOAD      ACCESS:      59595  HIT:          0  MISS:      59595
LLC RFO       ACCESS:          0  HIT:          0  MISS:          0
LLC PREFETCH  ACCESS:          0  HIT:          0  MISS:          0
LLC WRITEBACK ACCESS:      34249  HIT:          0  MISS:      34249
Heartbeat CPU 0 instructions: 60000001 cycles: 42035536 heartbeat IPC: 0.691141 cumulative IPC: 0.688253 (Simulation time: 1 hr 21 min 2 sec) 

Region of Interest Statistics
cpu0_DTLB TOTAL     ACCESS:    4564357  HIT:    4497660  MISS:      66697
cpu0_DTLB LOAD      ACCESS:    4132554  HIT:    4071926  MISS:      60628
cpu0_DTLB RFO       ACCESS:     431803  HIT:     425734  MISS:       6069
cpu0_DTLB PREFETCH  ACCESS:          0  HIT:          0  MISS:          0
cpu0_DTLB WRITEBACK ACCESS:          0  HIT:          0  MISS:          0
cpu0_ITLB TOTAL     ACCESS:     189966  HIT:     189966  MISS:          0
cpu0_ITLB LOAD      ACCESS:     189966  HIT:     189966  MISS:          0
cpu0_ITLB RFO       ACCESS:          0  HIT:          0  MISS:          0
cpu0_ITLB PREFETCH  ACCESS:          0  HIT:          0  MISS:          0
cpu0_ITLB WRITEBACK ACCESS:          0  HIT:          0  MISS:          0
cpu0_L1I TOTAL     ACCESS:    1119273  HIT:    1119273  MISS:          0
cpu0_L1I LOAD      ACCESS:    1119273  HIT:    1119273  MISS:          0
cpu0_L1I RFO       ACCESS:          0  HIT:          0  MISS:          0
cpu0_L1I PREFETCH  ACCESS:          0  HIT:          0  MISS:          0
cpu0_L1I WRITEBACK ACCESS:          0  HIT:          0  MISS:          0
cpu0_STLB TOTAL     ACCESS:      66697  HIT:      55918  MISS:      10779
cpu0_STLB LOAD      ACCESS:      60628  HIT:      49849  MISS:      10779
cpu0_STLB RFO       ACCESS:       6069  HIT:       6069  MISS:          0
cpu0_STLB PREFETCH  ACCESS:          0  HIT:          0  MISS:          0
cpu0_STLB WRITEBACK ACCESS:          0  HIT:          0  MISS:          0
cpu0_L1D TOTAL     ACCESS:    5347813  HIT:    5256512  MISS:      91301
cpu0_L1D LOAD      ACCESS:    4570220  HIT:    4479014  MISS:      91206
cpu0_L1D RFO       ACCESS:     766839  HIT:     766839  MISS:          0
cpu0_L1D PREFETCH  ACCESS:          0  HIT:          0  MISS:          0
cpu0_L1D WRITEBACK ACCESS:          0  HIT:          0  MISS:          0
cpu0_L2C TOTAL     ACCESS:     134223  HIT:      59748  MISS:      74475
cpu0_L2C LOAD      ACCESS:      91206  HIT:      16739  MISS:      74467
cpu0_L2C RFO       ACCESS:          0  HIT:          0  MISS:          0
cpu0_L2C PREFETCH  ACCESS:          0  HIT:          0  MISS:          0
cpu0_L2C WRITEBACK ACCESS:      42922  HIT:      42922  MISS:          0
LLC TOTAL     ACCESS:     117290  HIT:          0  MISS:     117290
LLC LOAD      ACCESS:      74467  HIT:          0  MISS:      74467
LLC RFO       ACCESS:          0  HIT:          0  MISS:          0
LLC PREFETCH  ACCESS:          0  HIT:          0  MISS:          0
LLC WRITEBACK ACCESS:      42815  HIT:          0  MISS:      42815
Heartbeat CPU 0 instructions: 62000001 cycles: 44947418 heartbeat IPC: 0.686841 cumulative IPC: 0.688017 (Simulation time: 1 hr 24 min 26 sec) 

Region of Interest Statistics
cpu0_DTLB TOTAL     ACCESS:    5477111  HIT:    5394992  MISS:      82119
cpu0_DTLB LOAD      ACCESS:    4958898  HIT:    4884284  MISS:      74614
cpu0_DTLB RFO       ACCESS:     518213  HIT:     510708  MISS:       7505
cpu0_DTLB PREFETCH  ACCESS:          0  HIT:          0  MISS:          0
cpu0_DTLB WRITEBACK ACCESS:          0  HIT:          0  MISS:          0
cpu0_ITLB TOTAL     ACCESS:     227948  HIT:     227948  MISS:          0
cpu0_ITLB LOAD      ACCESS:     227948  HIT:     227948  MISS:          0
cpu0_ITLB RFO       ACCESS:          0  HIT:          0  MISS:          0
cpu0_ITLB PREFETCH  ACCESS:          0  HIT:          0  MISS:          0
cpu0_ITLB WRITEBACK ACCESS:          0  HIT:          0  MISS:          0
cpu0_L1I TOTAL     ACCESS:    1343022  HIT:    1343022  MISS:          0
cpu0_L1I LOAD      ACCESS:    1343022  HIT:    1343022  MISS:          0
cpu0_L1I RFO       ACCESS:          0  HIT:          0  MISS:          0
cpu0_L1I PREFETCH  ACCESS:          0  HIT:          0  MISS:          0
cpu0_L1I WRITEBACK ACCESS:          0  HIT:          0  MISS:          0
cpu0_STLB TOTAL     ACCESS:      82119  HIT:      69183  MISS:      12936
cpu0_STLB LOAD      ACCESS:      74614  HIT:      61678  MISS:      12936
cpu0_STLB RFO       ACCESS:       7505  HIT:       7505  MISS:          0
cpu0_STLB PREFETCH  ACCESS:          0  HIT:          0  MISS:          0
cpu0_STLB WRITEBACK ACCESS:          0  HIT:          0  MISS:          0
cpu0_L1D TOTAL     ACCESS:    6417259  HIT:    6307684  MISS:     109575
cpu0_L1D LOAD      ACCESS:    5484123  HIT:    5374665  MISS:     109458
cpu0_L1D RFO       ACCESS:     920229  HIT:     920229  MISS:          0
cpu0_L1D PREFETCH  ACCESS:          0  HIT:          0  MISS:          0
cpu0_L1D WRITEBACK ACCESS:          0  HIT:          0  MISS:          0
cpu0_L2C TOTAL     ACCESS:     161065  HIT:      71705  MISS:      89360
cpu0_L2C LOAD      ACCESS:     109458  HIT:      20109  MISS:      89349
cpu0_L2C RFO       ACCESS:          0  HIT:          0  MISS:          0
cpu0_L2C PREFETCH  ACCESS:          0  HIT:          0  MISS:          0
cpu0_L2C WRITEBACK ACCESS:      51490  HIT:      51490  MISS:          0
LLC TOTAL     ACCESS:     140888  HIT:          0  MISS:     140888
LLC LOAD      ACCESS:      89349  HIT:          0  MISS:      89349
LLC RFO       ACCESS:          0  HIT:          0  MISS:          0
LLC PREFETCH  ACCESS:          0  HIT:          0  MISS:          0
LLC WRITEBACK ACCESS:      51528  HIT:          0  MISS:      51528
Heartbeat CPU 0 instructions: 64000001 cycles: 47848896 heartbeat IPC: 0.689304 cumulative IPC: 0.688201 (Simulation time: 1 hr 27 min 58 sec) 

Region of Interest Statistics
cpu0_DTLB TOTAL     ACCESS:    6389963  HIT:    6293703  MISS:      96260
cpu0_DTLB LOAD      ACCESS:    5785316  HIT:    5697769  MISS:      87547
cpu0_DTLB RFO       ACCESS:     604647  HIT:     595934  MISS:       8713
cpu0_DTLB PREFETCH  ACCESS:          0  HIT:          0  MISS:          0
cpu0_DTLB WRITEBACK ACCESS:          0  HIT:          0  MISS:          0
cpu0_ITLB TOTAL     ACCESS:     265933  HIT:     265933  MISS:          0
cpu0_ITLB LOAD      ACCESS:     265933  HIT:     265933  MISS:          0
cpu0_ITLB RFO       ACCESS:          0  HIT:          0  MISS:          0
cpu0_ITLB PREFETCH  ACCESS:          0  HIT:          0  MISS:          0
cpu0_ITLB WRITEBACK ACCESS:          0  HIT:          0  MISS:          0
cpu0_L1I TOTAL     ACCESS:    1566863  HIT:    1566863  MISS:          0
cpu0_L1I LOAD      ACCESS:    1566863  HIT:    1566863  MISS:          0
cpu0_L1I RFO       ACCESS:          0  HIT:          0  MISS:          0
cpu0_L1I PREFETCH  ACCESS:          0  HIT:          0  MISS:          0
cpu0_L1I WRITEBACK ACCESS:          0  HIT:          0  MISS:          0
cpu0_STLB TOTAL     ACCESS:      96260  HIT:      81169  MISS:      15091
cpu0_STLB LOAD      ACCESS:      87547  HIT:      72456  MISS:      15091
cpu0_STLB RFO       ACCESS:       8713  HIT:       8713  MISS:          0
cpu0_STLB PREFETCH  ACCESS:          0  HIT:          0  MISS:          0
cpu0_STLB WRITEBACK ACCESS:          0  HIT:          0  MISS:          0
cpu0_L1D TOTAL     ACCESS:    7487094  HIT:    7359261  MISS:     127833
cpu0_L1D LOAD      ACCESS:    6398444  HIT:    6270744  MISS:     127700
cpu0_L1D RFO       ACCESS:    1073598  HIT:    1073598  MISS:          0
cpu0_L1D PREFETCH  ACCESS:          0  HIT:          0  MISS:          0
cpu0_L1D WRITEBACK ACCESS:          0  HIT:          0  MISS:          0
cpu0_L2C TOTAL     ACCESS:     187922  HIT:      83766  MISS:     104156
cpu0_L2C LOAD      ACCESS:     127700  HIT:      23555  MISS:     104145
cpu0_L2C RFO       ACCESS:          0  HIT:          0  MISS:          0
cpu0_L2C PREFETCH  ACCESS:          0  HIT:          0  MISS:          0
cpu0_L2C WRITEBACK ACCESS:      60089  HIT:      60089  MISS:          0
LLC TOTAL     ACCESS:     164149  HIT:          0  MISS:     164149
LLC LOAD      ACCESS:     104145  HIT:          0  MISS:     104145
LLC RFO       ACCESS:          0  HIT:          0  MISS:          0
LLC PREFETCH  ACCESS:          0  HIT:          0  MISS:          0
LLC WRITEBACK ACCESS:      59993  HIT:          0  MISS:      59993
Heartbeat CPU 0 instructions: 66000003 cycles: 50757483 heartbeat IPC: 0.68762 cumulative IPC: 0.688128 (Simulation time: 1 hr 31 min 23 sec) 

Region of Interest Statistics
cpu0_DTLB TOTAL     ACCESS:    7303158  HIT:    7194782  MISS:     108376
cpu0_DTLB LOAD      ACCESS:    6612068  HIT:    6513767  MISS:      98301
cpu0_DTLB RFO       ACCESS:     691090  HIT:     681015  MISS:      10075
cpu0_DTLB PREFETCH  ACCESS:          0  HIT:          0  MISS:          0
cpu0_DTLB WRITEBACK ACCESS:          0  HIT:          0  MISS:          0
cpu0_ITLB TOTAL     ACCESS:     303944  HIT:     303944  MISS:          0
cpu0_ITLB LOAD      ACCESS:     303944  HIT:     303944  MISS:          0
cpu0_ITLB RFO       ACCESS:          0  HIT:          0  MISS:          0
cpu0_ITLB PREFETCH  ACCESS:          0  HIT:          0  MISS:          0
cpu0_ITLB WRITEBACK ACCESS:          0  HIT:          0  MISS:          0
cpu0_L1I TOTAL     ACCESS:    1790740  HIT:    1790740  MISS:          0
cpu0_L1I LOAD      ACCESS:    1790740  HIT:    1790740  MISS:          0
cpu0_L1I RFO       ACCESS:          0  HIT:          0  MISS:          0
cpu0_L1I PREFETCH  ACCESS:          0  HIT:          0  MISS:          0
cpu0_L1I WRITEBACK ACCESS:          0  HIT:          0  MISS:          0
cpu0_STLB TOTAL     ACCESS:     108376  HIT:      91132  MISS:      17244
cpu0_STLB LOAD      ACCESS:      98301  HIT:      81057  MISS:      17244
cpu0_STLB RFO       ACCESS:      10075  HIT:      10075  MISS:          0
cpu0_STLB PREFETCH  ACCESS:          0  HIT:          0  MISS:          0
cpu0_STLB WRITEBACK ACCESS:          0  HIT:          0  MISS:          0
cpu0_L1D TOTAL     ACCESS:    8556867  HIT:    8410777  MISS:     146090
cpu0_L1D LOAD      ACCESS:    7312709  HIT:    7166769  MISS:     145940
cpu0_L1D RFO       ACCESS:    1226958  HIT:    1226958  MISS:          0
cpu0_L1D PREFETCH  ACCESS:          0  HIT:          0  MISS:          0
cpu0_L1D WRITEBACK ACCESS:          0  HIT:          0  MISS:          0
cpu0_L2C TOTAL     ACCESS:     214767  HIT:      95603  MISS:     119164
cpu0_L2C LOAD      ACCESS:     145940  HIT:      26787  MISS:     119153
cpu0_L2C RFO       ACCESS:          0  HIT:          0  MISS:          0
cpu0_L2C PREFETCH  ACCESS:          0  HIT:          0  MISS:          0
cpu0_L2C WRITEBACK ACCESS:      68677  HIT:      68677  MISS:          0
LLC TOTAL     ACCESS:     187812  HIT:          2  MISS:     187810
LLC LOAD      ACCESS:     119153  HIT:          2  MISS:     119151
LLC RFO       ACCESS:          0  HIT:          0  MISS:          0
LLC PREFETCH  ACCESS:          0  HIT:          0  MISS:          0
LLC WRITEBACK ACCESS:      68648  HIT:          0  MISS:      68648
Heartbeat CPU 0 instructions: 68000001 cycles: 53660427 heartbeat IPC: 0.688955 cumulative IPC: 0.68822 (Simulation time: 1 hr 34 min 46 sec) 

Region of Interest Statistics
cpu0_DTLB TOTAL     ACCESS:    8216405  HIT:    8096201  MISS:     120204
cpu0_DTLB LOAD      ACCESS:    7438973  HIT:    7329754  MISS:     109219
cpu0_DTLB RFO       ACCESS:     777432  HIT:     766447  MISS:      10985
cpu0_DTLB PREFETCH  ACCESS:          0  HIT:          0  MISS:          0
cpu0_DTLB WRITEBACK ACCESS:          0  HIT:          0  MISS:          0
cpu0_ITLB TOTAL     ACCESS:     341947  HIT:     341947  MISS:          0
cpu0_ITLB LOAD      ACCESS:     341947  HIT:     341947  MISS:          0
cpu0_ITLB RFO       ACCESS:          0  HIT:          0  MISS:          0
cpu0_ITLB PREFETCH  ACCESS:          0  HIT:          0  MISS:          0
cpu0_ITLB WRITEBACK ACCESS:          0  HIT:          0  MISS:          0
cpu0_L1I TOTAL     ACCESS:    2014592  HIT:    2014592  MISS:          0
cpu0_L1I LOAD      ACCESS:    2014592  HIT:    2014592  MISS:          0
cpu0_L1I RFO       ACCESS:          0  HIT:          0  MISS:          0
cpu0_L1I PREFETCH  ACCESS:          0  HIT:          0  MISS:          0
cpu0_L1I WRITEBACK ACCESS:          0  HIT:          0  MISS:          0
cpu0_STLB TOTAL     ACCESS:     120205  HIT:     100806  MISS:      19399
cpu0_STLB LOAD      ACCESS:     109220  HIT:      89821  MISS:      19399
cpu0_STLB RFO       ACCESS:      10985  HIT:      10985  MISS:          0
cpu0_STLB PREFETCH  ACCESS:          0  HIT:          0  MISS:          0
cpu0_STLB WRITEBACK ACCESS:          0  HIT:          0  MISS:          0
cpu0_L1D TOTAL     ACCESS:    9626279  HIT:    9461928  MISS:     164351
cpu0_L1D LOAD      ACCESS:    8226590  HIT:    8062407  MISS:     164183
cpu0_L1D RFO       ACCESS:    1380339  HIT:    1380339  MISS:          0
cpu0_L1D PREFETCH  ACCESS:          0  HIT:          0  MISS:          0
cpu0_L1D WRITEBACK ACCESS:          0  HIT:          0  MISS:          0
cpu0_L2C TOTAL     ACCESS:     241593  HIT:     107507  MISS:     134086
cpu0_L2C LOAD      ACCESS:     164183  HIT:      30110  MISS:     134073
cpu0_L2C RFO       ACCESS:          0  HIT:          0  MISS:          0
cpu0_L2C PREFETCH  ACCESS:          0  HIT:          0  MISS:          0
cpu0_L2C WRITEBACK ACCESS:      77242  HIT:      77242  MISS:          0
LLC TOTAL     ACCESS:     211315  HIT:          2  MISS:     211313
LLC LOAD      ACCESS:     134073  HIT:          2  MISS:     134071
LLC RFO       ACCESS:          0  HIT:          0  MISS:          0
LLC PREFETCH  ACCESS:          0  HIT:          0  MISS:          0
LLC WRITEBACK ACCESS:      77229  HIT:          0  MISS:      77229
Heartbeat CPU 0 instructions: 70000004 cycles: 56559962 heartbeat IPC: 0.689767 cumulative IPC: 0.688374 (Simulation time: 1 hr 38 min 7 sec) 

Region of Interest Statistics
cpu0_DTLB TOTAL     ACCESS:    9130277  HIT:    8996670  MISS:     133607
cpu0_DTLB LOAD      ACCESS:    8266558  HIT:    8145026  MISS:     121532
cpu0_DTLB RFO       ACCESS:     863719  HIT:     851644  MISS:      12075
cpu0_DTLB PREFETCH  ACCESS:          0  HIT:          0  MISS:          0
cpu0_DTLB WRITEBACK ACCESS:          0  HIT:          0  MISS:          0
cpu0_ITLB TOTAL     ACCESS:     379924  HIT:     379924  MISS:          0
cpu0_ITLB LOAD      ACCESS:     379924  HIT:     379924  MISS:          0
cpu0_ITLB RFO       ACCESS:          0  HIT:          0  MISS:          0
cpu0_ITLB PREFETCH  ACCESS:          0  HIT:          0  MISS:          0
cpu0_ITLB WRITEBACK ACCESS:          0  HIT:          0  MISS:          0
cpu0_L1I TOTAL     ACCESS:    2238495  HIT:    2238495  MISS:          0
cpu0_L1I LOAD      ACCESS:    2238495  HIT:    2238495  MISS:          0
cpu0_L1I RFO       ACCESS:          0  HIT:          0  MISS:          0
cpu0_L1I PREFETCH  ACCESS:          0  HIT:          0  MISS:          0
cpu0_L1I WRITEBACK ACCESS:          0  HIT:          0  MISS:          0
cpu0_STLB TOTAL     ACCESS:     133607  HIT:     112049  MISS:      21558
cpu0_STLB LOAD      ACCESS:     121532  HIT:      99974  MISS:      21558
cpu0_STLB RFO       ACCESS:      12075  HIT:      12075  MISS:          0
cpu0_STLB PREFETCH  ACCESS:          0  HIT:          0  MISS:          0
cpu0_STLB WRITEBACK ACCESS:          0  HIT:          0  MISS:          0
cpu0_L1D TOTAL     ACCESS:   10696035  HIT:   10513414  MISS:     182621
cpu0_L1D LOAD      ACCESS:    9140812  HIT:    8958382  MISS:     182430
cpu0_L1D RFO       ACCESS:    1533718  HIT:    1533718  MISS:          0
cpu0_L1D PREFETCH  ACCESS:          0  HIT:          0  MISS:          0
cpu0_L1D WRITEBACK ACCESS:          0  HIT:          0  MISS:          0
cpu0_L2C TOTAL     ACCESS:     268449  HIT:     119427  MISS:     149022
cpu0_L2C LOAD      ACCESS:     182430  HIT:      33424  MISS:     149006
cpu0_L2C RFO       ACCESS:          0  HIT:          0  MISS:          0
cpu0_L2C PREFETCH  ACCESS:          0  HIT:          0  MISS:          0
cpu0_L2C WRITEBACK ACCESS:      85828  HIT:      85828  MISS:          0
LLC TOTAL     ACCESS:     234809  HIT:          2  MISS:     234807
LLC LOAD      ACCESS:     149006  HIT:          2  MISS:     149004
LLC RFO       ACCESS:          0  HIT:          0  MISS:          0
LLC PREFETCH  ACCESS:          0  HIT:          0  MISS:          0
LLC WRITEBACK ACCESS:      85787  HIT:          0  MISS:      85787
Heartbeat CPU 0 instructions: 72000000 cycles: 59461739 heartbeat IPC: 0.689231 cumulative IPC: 0.688452 (Simulation time: 1 hr 41 min 18 sec) 

Region of Interest Statistics
cpu0_DTLB TOTAL     ACCESS:   10043252  HIT:    9896267  MISS:     146985
cpu0_DTLB LOAD      ACCESS:    9093226  HIT:    8959380  MISS:     133846
cpu0_DTLB RFO       ACCESS:     950026  HIT:     936887  MISS:      13139
cpu0_DTLB PREFETCH  ACCESS:          0  HIT:          0  MISS:          0
cpu0_DTLB WRITEBACK ACCESS:          0  HIT:          0  MISS:          0
cpu0_ITLB TOTAL     ACCESS:     417914  HIT:     417914  MISS:          0
cpu0_ITLB LOAD      ACCESS:     417914  HIT:     417914  MISS:          0
cpu0_ITLB RFO       ACCESS:          0  HIT:          0  MISS:          0
cpu0_ITLB PREFETCH  ACCESS:          0  HIT:          0  MISS:          0
cpu0_ITLB WRITEBACK ACCESS:          0  HIT:          0  MISS:          0
cpu0_L1I TOTAL     ACCESS:    2462302  HIT:    2462302  MISS:          0
cpu0_L1I LOAD      ACCESS:    2462302  HIT:    2462302  MISS:          0
cpu0_L1I RFO       ACCESS:          0  HIT:          0  MISS:          0
cpu0_L1I PREFETCH  ACCESS:          0  HIT:          0  MISS:          0
cpu0_L1I WRITEBACK ACCESS:          0  HIT:          0  MISS:          0
cpu0_STLB TOTAL     ACCESS:     146985  HIT:     123275  MISS:      23710
cpu0_STLB LOAD      ACCESS:     133846  HIT:     110136  MISS:      23710
cpu0_STLB RFO       ACCESS:      13139  HIT:      13139  MISS:          0
cpu0_STLB PREFETCH  ACCESS:          0  HIT:          0  MISS:          0
cpu0_STLB WRITEBACK ACCESS:          0  HIT:          0  MISS:          0
cpu0_L1D TOTAL     ACCESS:   11764969  HIT:   11564093  MISS:     200876
cpu0_L1D LOAD      ACCESS:   10054248  HIT:    9853582  MISS:     200666
cpu0_L1D RFO       ACCESS:    1687069  HIT:    1687069  MISS:          0
cpu0_L1D PREFETCH  ACCESS:          0  HIT:          0  MISS:          0
cpu0_L1D WRITEBACK ACCESS:          0  HIT:          0  MISS:          0
cpu0_L2C TOTAL     ACCESS:     295299  HIT:     131364  MISS:     163935
cpu0_L2C LOAD      ACCESS:     200666  HIT:      36749  MISS:     163917
cpu0_L2C RFO       ACCESS:          0  HIT:          0  MISS:          0
cpu0_L2C PREFETCH  ACCESS:          0  HIT:          0  MISS:          0
cpu0_L2C WRITEBACK ACCESS:      94423  HIT:      94423  MISS:          0
LLC TOTAL     ACCESS:     258398  HIT:          2  MISS:     258396
LLC LOAD      ACCESS:     163917  HIT:          2  MISS:     163915
LLC RFO       ACCESS:          0  HIT:          0  MISS:          0
LLC PREFETCH  ACCESS:          0  HIT:          0  MISS:          0
LLC WRITEBACK ACCESS:      94463  HIT:          0  MISS:      94463
Heartbeat CPU 0 instructions: 74000000 cycles: 62371954 heartbeat IPC: 0.687234 cumulative IPC: 0.68835 (Simulation time: 1 hr 44 min 29 sec) 

Region of Interest Statistics
cpu0_DTLB TOTAL     ACCESS:   10955241  HIT:   10792405  MISS:     162836
cpu0_DTLB LOAD      ACCESS:    9918790  HIT:    9770598  MISS:     148192
cpu0_DTLB RFO       ACCESS:    1036451  HIT:    1021807  MISS:      14644
cpu0_DTLB PREFETCH  ACCESS:          0  HIT:          0  MISS:          0
cpu0_DTLB WRITEBACK ACCESS:          0  HIT:          0  MISS:          0
cpu0_ITLB TOTAL     ACCESS:     455914  HIT:     455914  MISS:          0
cpu0_ITLB LOAD      ACCESS:     455914  HIT:     455914  MISS:          0
cpu0_ITLB RFO       ACCESS:          0  HIT:          0  MISS:          0
cpu0_ITLB PREFETCH  ACCESS:          0  HIT:          0  MISS:          0
cpu0_ITLB WRITEBACK ACCESS:          0  HIT:          0  MISS:          0
cpu0_L1I TOTAL     ACCESS:    2686091  HIT:    2686091  MISS:          0
cpu0_L1I LOAD      ACCESS:    2686091  HIT:    2686091  MISS:          0
cpu0_L1I RFO       ACCESS:          0  HIT:          0  MISS:          0
cpu0_L1I PREFETCH  ACCESS:          0  HIT:          0  MISS:          0
cpu0_L1I WRITEBACK ACCESS:          0  HIT:          0  MISS:          0
cpu0_STLB TOTAL     ACCESS:     162836  HIT:     136970  MISS:      25866
cpu0_STLB LOAD      ACCESS:     148192  HIT:     122326  MISS:      25866
cpu0_STLB RFO       ACCESS:      14644  HIT:      14644  MISS:          0
cpu0_STLB PREFETCH  ACCESS:          0  HIT:          0  MISS:          0
cpu0_STLB WRITEBACK ACCESS:          0  HIT:          0  MISS:          0
cpu0_L1D TOTAL     ACCESS:   12834714  HIT:   12615583  MISS:     219131
cpu0_L1D LOAD      ACCESS:   10968475  HIT:   10749571  MISS:     218904
cpu0_L1D RFO       ACCESS:    1840438  HIT:    1840438  MISS:          0
cpu0_L1D PREFETCH  ACCESS:          0  HIT:          0  MISS:          0
cpu0_L1D WRITEBACK ACCESS:          0  HIT:          0  MISS:          0
cpu0_L2C TOTAL     ACCESS:     322135  HIT:     143225  MISS:     178910
cpu0_L2C LOAD      ACCESS:     218904  HIT:      40012  MISS:     178892
cpu0_L2C RFO       ACCESS:          0  HIT:          0  MISS:          0
cpu0_L2C PREFETCH  ACCESS:          0  HIT:          0  MISS:          0
cpu0_L2C WRITEBACK ACCESS:     103004  HIT:     103004  MISS:          0
LLC TOTAL     ACCESS:     281871  HIT:          2  MISS:     281869
LLC LOAD      ACCESS:     178892  HIT:          2  MISS:     178890
LLC RFO       ACCESS:          0  HIT:          0  MISS:          0
LLC PREFETCH  ACCESS:          0  HIT:          0  MISS:          0
LLC WRITEBACK ACCESS:     102961  HIT:          0  MISS:     102961
Heartbeat CPU 0 instructions: 76000000 cycles: 65286306 heartbeat IPC: 0.686259 cumulative IPC: 0.688189 (Simulation time: 1 hr 47 min 36 sec) 

Region of Interest Statistics
cpu0_DTLB TOTAL     ACCESS:   11867795  HIT:   11690783  MISS:     177012
cpu0_DTLB LOAD      ACCESS:   10744974  HIT:   10584351  MISS:     160623
cpu0_DTLB RFO       ACCESS:    1122821  HIT:    1106432  MISS:      16389
cpu0_DTLB PREFETCH  ACCESS:          0  HIT:          0  MISS:          0
cpu0_DTLB WRITEBACK ACCESS:          0  HIT:          0  MISS:          0
cpu0_ITLB TOTAL     ACCESS:     493905  HIT:     493905  MISS:          0
cpu0_ITLB LOAD      ACCESS:     493905  HIT:     493905  MISS:          0
cpu0_ITLB RFO       ACCESS:          0  HIT:          0  MISS:          0
cpu0_ITLB PREFETCH  ACCESS:          0  HIT:          0  MISS:          0
cpu0_ITLB WRITEBACK ACCESS:          0  HIT:          0  MISS:          0
cpu0_L1I TOTAL     ACCESS:    2909925  HIT:    2909925  MISS:          0
cpu0_L1I LOAD      ACCESS:    2909925  HIT:    2909925  MISS:          0
cpu0_L1I RFO       ACCESS:          0  HIT:          0  MISS:          0
cpu0_L1I PREFETCH  ACCESS:          0  HIT:          0  MISS:          0
cpu0_L1I WRITEBACK ACCESS:          0  HIT:          0  MISS:          0
cpu0_STLB TOTAL     ACCESS:     177012  HIT:     148987  MISS:      28025
cpu0_STLB LOAD      ACCESS:     160623  HIT:     132598  MISS:      28025
cpu0_STLB RFO       ACCESS:      16389  HIT:      16389  MISS:          0
cpu0_STLB PREFETCH  ACCESS:          0  HIT:          0  MISS:          0
cpu0_STLB WRITEBACK ACCESS:          0  HIT:          0  MISS:          0
cpu0_L1D TOTAL     ACCESS:   13904427  HIT:   13667020  MISS:     237407
cpu0_L1D LOAD      ACCESS:   11882641  HIT:   11645480  MISS:     237161
cpu0_L1D RFO       ACCESS:    1993828  HIT:    1993828  MISS:          0
cpu0_L1D PREFETCH  ACCESS:          0  HIT:          0  MISS:          0
cpu0_L1D WRITEBACK ACCESS:          0  HIT:          0  MISS:          0
cpu0_L2C TOTAL     ACCESS:     348988  HIT:     155156  MISS:     193832
cpu0_L2C LOAD      ACCESS:     237161  HIT:      43349  MISS:     193812
cpu0_L2C RFO       ACCESS:          0  HIT:          0  MISS:          0
cpu0_L2C PREFETCH  ACCESS:          0  HIT:          0  MISS:          0
cpu0_L2C WRITEBACK ACCESS:     111581  HIT:     111581  MISS:          0
LLC TOTAL     ACCESS:     305371  HIT:          2  MISS:     305369
LLC LOAD      ACCESS:     193812  HIT:          2  MISS:     193810
LLC RFO       ACCESS:          0  HIT:          0  MISS:          0
LLC PREFETCH  ACCESS:          0  HIT:          0  MISS:          0
LLC WRITEBACK ACCESS:     111539  HIT:          0  MISS:     111539
Heartbeat CPU 0 instructions: 78000000 cycles: 68178846 heartbeat IPC: 0.691434 cumulative IPC: 0.68842 (Simulation time: 1 hr 50 min 44 sec) 

Region of Interest Statistics
cpu0_DTLB TOTAL     ACCESS:   12782632  HIT:   12595115  MISS:     187517
cpu0_DTLB LOAD      ACCESS:   11573438  HIT:   11403060  MISS:     170378
cpu0_DTLB RFO       ACCESS:    1209194  HIT:    1192055  MISS:      17139
cpu0_DTLB PREFETCH  ACCESS:          0  HIT:          0  MISS:          0
cpu0_DTLB WRITEBACK ACCESS:          0  HIT:          0  MISS:          0
cpu0_ITLB TOTAL     ACCESS:     531896  HIT:     531896  MISS:          0
cpu0_ITLB LOAD      ACCESS:     531896  HIT:     531896  MISS:          0
cpu0_ITLB RFO       ACCESS:          0  HIT:          0  MISS:          0
cpu0_ITLB PREFETCH  ACCESS:          0  HIT:          0  MISS:          0
cpu0_ITLB WRITEBACK ACCESS:          0  HIT:          0  MISS:          0
cpu0_L1I TOTAL     ACCESS:    3133748  HIT:    3133748  MISS:          0
cpu0_L1I LOAD      ACCESS:    3133748  HIT:    3133748  MISS:          0
cpu0_L1I RFO       ACCESS:          0  HIT:          0  MISS:          0
cpu0_L1I PREFETCH  ACCESS:          0  HIT:          0  MISS:          0
cpu0_L1I WRITEBACK ACCESS:          0  HIT:          0  MISS:          0
cpu0_STLB TOTAL     ACCESS:     187517  HIT:     157340  MISS:      30177
cpu0_STLB LOAD      ACCESS:     170378  HIT:     140201  MISS:      30177
cpu0_STLB RFO       ACCESS:      17139  HIT:      17139  MISS:          0
cpu0_STLB PREFETCH  ACCESS:          0  HIT:          0  MISS:          0
cpu0_STLB WRITEBACK ACCESS:          0  HIT:          0  MISS:          0
cpu0_L1D TOTAL     ACCESS:   14973992  HIT:   14718338  MISS:     255654
cpu0_L1D LOAD      ACCESS:   12796703  HIT:   12541314  MISS:     255389
cpu0_L1D RFO       ACCESS:    2147183  HIT:    2147183  MISS:          0
cpu0_L1D PREFETCH  ACCESS:          0  HIT:          0  MISS:          0
cpu0_L1D WRITEBACK ACCESS:          0  HIT:          0  MISS:          0
cpu0_L2C TOTAL     ACCESS:     375818  HIT:     167144  MISS:     208674
cpu0_L2C LOAD      ACCESS:     255389  HIT:      46736  MISS:     208653
cpu0_L2C RFO       ACCESS:          0  HIT:          0  MISS:          0
cpu0_L2C PREFETCH  ACCESS:          0  HIT:          0  MISS:          0
cpu0_L2C WRITEBACK ACCESS:     120164  HIT:     120164  MISS:          0
LLC TOTAL     ACCESS:     328769  HIT:          2  MISS:     328767
LLC LOAD      ACCESS:     208653  HIT:          2  MISS:     208651
LLC RFO       ACCESS:          0  HIT:          0  MISS:          0
LLC PREFETCH  ACCESS:          0  HIT:          0  MISS:          0
LLC WRITEBACK ACCESS:     120095  HIT:          0  MISS:     120095
Heartbeat CPU 0 instructions: 80000003 cycles: 71084957 heartbeat IPC: 0.688206 cumulative IPC: 0.688406 (Simulation time: 1 hr 54 min 1 sec) 

Region of Interest Statistics
cpu0_DTLB TOTAL     ACCESS:   13696012  HIT:   13495748  MISS:     200264
cpu0_DTLB LOAD      ACCESS:   12400551  HIT:   12218414  MISS:     182137
cpu0_DTLB RFO       ACCESS:    1295461  HIT:    1277334  MISS:      18127
cpu0_DTLB PREFETCH  ACCESS:          0  HIT:          0  MISS:          0
cpu0_DTLB WRITEBACK ACCESS:          0  HIT:          0  MISS:          0
cpu0_ITLB TOTAL     ACCESS:     569865  HIT:     569865  MISS:          0
cpu0_ITLB LOAD      ACCESS:     569865  HIT:     569865  MISS:          0
cpu0_ITLB RFO       ACCESS:          0  HIT:          0  MISS:          0
cpu0_ITLB PREFETCH  ACCESS:          0  HIT:          0  MISS:          0
cpu0_ITLB WRITEBACK ACCESS:          0  HIT:          0  MISS:          0
cpu0_L1I TOTAL     ACCESS:    3357630  HIT:    3357630  MISS:          0
cpu0_L1I LOAD      ACCESS:    3357630  HIT:    3357630  MISS:          0
cpu0_L1I RFO       ACCESS:          0  HIT:          0  MISS:          0
cpu0_L1I PREFETCH  ACCESS:          0  HIT:          0  MISS:          0
cpu0_L1I WRITEBACK ACCESS:          0  HIT:          0  MISS:          0
cpu0_STLB TOTAL     ACCESS:     200264  HIT:     167929  MISS:      32335
cpu0_STLB LOAD      ACCESS:     182137  HIT:     149802  MISS:      32335
cpu0_STLB RFO       ACCESS:      18127  HIT:      18127  MISS:          0
cpu0_STLB PREFETCH  ACCESS:          0  HIT:          0  MISS:          0
cpu0_STLB WRITEBACK ACCESS:          0  HIT:          0  MISS:          0
cpu0_L1D TOTAL     ACCESS:   16043444  HIT:   15769523  MISS:     273921
cpu0_L1D LOAD      ACCESS:   13710628  HIT:   13436993  MISS:     273635
cpu0_L1D RFO       ACCESS:    2300558  HIT:    2300558  MISS:          0
cpu0_L1D PREFETCH  ACCESS:          0  HIT:          0  MISS:          0
cpu0_L1D WRITEBACK ACCESS:          0  HIT:          0  MISS:          0
cpu0_L2C TOTAL     ACCESS:     402680  HIT:     179092  MISS:     223588
cpu0_L2C LOAD      ACCESS:     273635  HIT:      50071  MISS:     223564
cpu0_L2C RFO       ACCESS:          0  HIT:          0  MISS:          0
cpu0_L2C PREFETCH  ACCESS:          0  HIT:          0  MISS:          0
cpu0_L2C WRITEBACK ACCESS:     128759  HIT:     128759  MISS:          0
LLC TOTAL     ACCESS:     352278  HIT:          2  MISS:     352276
LLC LOAD      ACCESS:     223564  HIT:          2  MISS:     223562
LLC RFO       ACCESS:          0  HIT:          0  MISS:          0
LLC PREFETCH  ACCESS:          0  HIT:          0  MISS:          0
LLC WRITEBACK ACCESS:     128690  HIT:          0  MISS:     128690
Heartbeat CPU 0 instructions: 82000003 cycles: 73986944 heartbeat IPC: 0.689183 cumulative IPC: 0.688454 (Simulation time: 1 hr 57 min 24 sec) 

Region of Interest Statistics
cpu0_DTLB TOTAL     ACCESS:   14608912  HIT:   14394165  MISS:     214747
cpu0_DTLB LOAD      ACCESS:   13227116  HIT:   13031743  MISS:     195373
cpu0_DTLB RFO       ACCESS:    1381796  HIT:    1362422  MISS:      19374
cpu0_DTLB PREFETCH  ACCESS:          0  HIT:          0  MISS:          0
cpu0_DTLB WRITEBACK ACCESS:          0  HIT:          0  MISS:          0
cpu0_ITLB TOTAL     ACCESS:     607855  HIT:     607855  MISS:          0
cpu0_ITLB LOAD      ACCESS:     607855  HIT:     607855  MISS:          0
cpu0_ITLB RFO       ACCESS:          0  HIT:          0  MISS:          0
cpu0_ITLB PREFETCH  ACCESS:          0  HIT:          0  MISS:          0
cpu0_ITLB WRITEBACK ACCESS:          0  HIT:          0  MISS:          0
cpu0_L1I TOTAL     ACCESS:    3581507  HIT:    3581507  MISS:          0
cpu0_L1I LOAD      ACCESS:    3581507  HIT:    3581507  MISS:          0
cpu0_L1I RFO       ACCESS:          0  HIT:          0  MISS:          0
cpu0_L1I PREFETCH  ACCESS:          0  HIT:          0  MISS:          0
cpu0_L1I WRITEBACK ACCESS:          0  HIT:          0  MISS:          0
cpu0_STLB TOTAL     ACCESS:     214747  HIT:     180258  MISS:      34489
cpu0_STLB LOAD      ACCESS:     195373  HIT:     160884  MISS:      34489
cpu0_STLB RFO       ACCESS:      19374  HIT:      19374  MISS:          0
cpu0_STLB PREFETCH  ACCESS:          0  HIT:          0  MISS:          0
cpu0_STLB WRITEBACK ACCESS:          0  HIT:          0  MISS:          0
cpu0_L1D TOTAL     ACCESS:   17112511  HIT:   16820327  MISS:     292184
cpu0_L1D LOAD      ACCESS:   14624174  HIT:   14332296  MISS:     291878
cpu0_L1D RFO       ACCESS:    2453927  HIT:    2453927  MISS:          0
cpu0_L1D PREFETCH  ACCESS:          0  HIT:          0  MISS:          0
cpu0_L1D WRITEBACK ACCESS:          0  HIT:          0  MISS:          0
cpu0_L2C TOTAL     ACCESS:     429509  HIT:     191003  MISS:     238506
cpu0_L2C LOAD      ACCESS:     291878  HIT:      53397  MISS:     238481
cpu0_L2C RFO       ACCESS:          0  HIT:          0  MISS:          0
cpu0_L2C PREFETCH  ACCESS:          0  HIT:          0  MISS:          0
cpu0_L2C WRITEBACK ACCESS:     137325  HIT:     137325  MISS:          0
LLC TOTAL     ACCESS:     375745  HIT:          2  MISS:     375743
LLC LOAD      ACCESS:     238481  HIT:          2  MISS:     238479
LLC RFO       ACCESS:          0  HIT:          0  MISS:          0
LLC PREFETCH  ACCESS:          0  HIT:          0  MISS:          0
LLC WRITEBACK ACCESS:     137239  HIT:          0  MISS:     137239
Heartbeat CPU 0 instructions: 84000003 cycles: 76905662 heartbeat IPC: 0.685232 cumulative IPC: 0.688264 (Simulation time: 2 hr 0 min 41 sec) 

Region of Interest Statistics
cpu0_DTLB TOTAL     ACCESS:   15521485  HIT:   15291329  MISS:     230156
cpu0_DTLB LOAD      ACCESS:   14053283  HIT:   13843959  MISS:     209324
cpu0_DTLB RFO       ACCESS:    1468202  HIT:    1447370  MISS:      20832
cpu0_DTLB PREFETCH  ACCESS:          0  HIT:          0  MISS:          0
cpu0_DTLB WRITEBACK ACCESS:          0  HIT:          0  MISS:          0
cpu0_ITLB TOTAL     ACCESS:     645851  HIT:     645851  MISS:          0
cpu0_ITLB LOAD      ACCESS:     645851  HIT:     645851  MISS:          0
cpu0_ITLB RFO       ACCESS:          0  HIT:          0  MISS:          0
cpu0_ITLB PREFETCH  ACCESS:          0  HIT:          0  MISS:          0
cpu0_ITLB WRITEBACK ACCESS:          0  HIT:          0  MISS:          0
cpu0_L1I TOTAL     ACCESS:    3805299  HIT:    3805299  MISS:          0
cpu0_L1I LOAD      ACCESS:    3805299  HIT:    3805299  MISS:          0
cpu0_L1I RFO       ACCESS:          0  HIT:          0  MISS:          0
cpu0_L1I PREFETCH  ACCESS:          0  HIT:          0  MISS:          0
cpu0_L1I WRITEBACK ACCESS:          0  HIT:          0  MISS:          0
cpu0_STLB TOTAL     ACCESS:     230156  HIT:     193514  MISS:      36642
cpu0_STLB LOAD      ACCESS:     209324  HIT:     172682  MISS:      36642
cpu0_STLB RFO       ACCESS:      20832  HIT:      20832  MISS:          0
cpu0_STLB PREFETCH  ACCESS:          0  HIT:          0  MISS:          0
cpu0_STLB WRITEBACK ACCESS:          0  HIT:          0  MISS:          0
cpu0_L1D TOTAL     ACCESS:   18182222  HIT:   17871778  MISS:     310444
cpu0_L1D LOAD      ACCESS:   15538367  HIT:   15228246  MISS:     310121
cpu0_L1D RFO       ACCESS:    2607298  HIT:    2607298  MISS:          0
cpu0_L1D PREFETCH  ACCESS:          0  HIT:          0  MISS:          0
cpu0_L1D WRITEBACK ACCESS:          0  HIT:          0  MISS:          0
cpu0_L2C TOTAL     ACCESS:     456353  HIT:     202922  MISS:     253431
cpu0_L2C LOAD      ACCESS:     310121  HIT:      56715  MISS:     253406
cpu0_L2C RFO       ACCESS:          0  HIT:          0  MISS:          0
cpu0_L2C PREFETCH  ACCESS:          0  HIT:          0  MISS:          0
cpu0_L2C WRITEBACK ACCESS:     145909  HIT:     145909  MISS:          0
LLC TOTAL     ACCESS:     399231  HIT:          2  MISS:     399229
LLC LOAD      ACCESS:     253406  HIT:          2  MISS:     253404
LLC RFO       ACCESS:          0  HIT:          0  MISS:          0
LLC PREFETCH  ACCESS:          0  HIT:          0  MISS:          0
LLC WRITEBACK ACCESS:     145800  HIT:          0  MISS:     145800
Heartbeat CPU 0 instructions: 86000004 cycles: 79807776 heartbeat IPC: 0.689153 cumulative IPC: 0.688313 (Simulation time: 2 hr 3 min 57 sec) 

Region of Interest Statistics
cpu0_DTLB TOTAL     ACCESS:   16434225  HIT:   16190451  MISS:     243774
cpu0_DTLB LOAD      ACCESS:   14879569  HIT:   14657876  MISS:     221693
cpu0_DTLB RFO       ACCESS:    1554656  HIT:    1532575  MISS:      22081
cpu0_DTLB PREFETCH  ACCESS:          0  HIT:          0  MISS:          0
cpu0_DTLB WRITEBACK ACCESS:          0  HIT:          0  MISS:          0
cpu0_ITLB TOTAL     ACCESS:     683843  HIT:     683843  MISS:          0
cpu0_ITLB LOAD      ACCESS:     683843  HIT:     683843  MISS:          0
cpu0_ITLB RFO       ACCESS:          0  HIT:          0  MISS:          0
cpu0_ITLB PREFETCH  ACCESS:          0  HIT:          0  MISS:          0
cpu0_ITLB WRITEBACK ACCESS:          0  HIT:          0  MISS:          0
cpu0_L1I TOTAL     ACCESS:    4029128  HIT:    4029128  MISS:          0
cpu0_L1I LOAD      ACCESS:    4029128  HIT:    4029128  MISS:          0
cpu0_L1I RFO       ACCESS:          0  HIT:          0  MISS:          0
cpu0_L1I PREFETCH  ACCESS:          0  HIT:          0  MISS:          0
cpu0_L1I WRITEBACK ACCESS:          0  HIT:          0  MISS:          0
cpu0_STLB TOTAL     ACCESS:     243774  HIT:     204980  MISS:      38794
cpu0_STLB LOAD      ACCESS:     221693  HIT:     182899  MISS:      38794
cpu0_STLB RFO       ACCESS:      22081  HIT:      22081  MISS:          0
cpu0_STLB PREFETCH  ACCESS:          0  HIT:          0  MISS:          0
cpu0_STLB WRITEBACK ACCESS:          0  HIT:          0  MISS:          0
cpu0_L1D TOTAL     ACCESS:   19252464  HIT:   18923754  MISS:     328710
cpu0_L1D LOAD      ACCESS:   16453090  HIT:   16124722  MISS:     328368
cpu0_L1D RFO       ACCESS:    2760668  HIT:    2760668  MISS:          0
cpu0_L1D PREFETCH  ACCESS:          0  HIT:          0  MISS:          0
cpu0_L1D WRITEBACK ACCESS:          0  HIT:          0  MISS:          0
cpu0_L2C TOTAL     ACCESS:     483215  HIT:     214939  MISS:     268276
cpu0_L2C LOAD      ACCESS:     328368  HIT:      60118  MISS:     268250
cpu0_L2C RFO       ACCESS:          0  HIT:          0  MISS:          0
cpu0_L2C PREFETCH  ACCESS:          0  HIT:          0  MISS:          0
cpu0_L2C WRITEBACK ACCESS:     154505  HIT:     154505  MISS:          0
LLC TOTAL     ACCESS:     422711  HIT:          2  MISS:     422709
LLC LOAD      ACCESS:     268250  HIT:          2  MISS:     268248
LLC RFO       ACCESS:          0  HIT:          0  MISS:          0
LLC PREFETCH  ACCESS:          0  HIT:          0  MISS:          0
LLC WRITEBACK ACCESS:     154435  HIT:          0  MISS:     154435
Heartbeat CPU 0 instructions: 88000004 cycles: 82700877 heartbeat IPC: 0.6913 cumulative IPC: 0.68847 (Simulation time: 2 hr 7 min 26 sec) 

Region of Interest Statistics
cpu0_DTLB TOTAL     ACCESS:   17347734  HIT:   17093123  MISS:     254611
cpu0_DTLB LOAD      ACCESS:   15706639  HIT:   15475079  MISS:     231560
cpu0_DTLB RFO       ACCESS:    1641095  HIT:    1618044  MISS:      23051
cpu0_DTLB PREFETCH  ACCESS:          0  HIT:          0  MISS:          0
cpu0_DTLB WRITEBACK ACCESS:          0  HIT:          0  MISS:          0
cpu0_ITLB TOTAL     ACCESS:     721847  HIT:     721847  MISS:          0
cpu0_ITLB LOAD      ACCESS:     721847  HIT:     721847  MISS:          0
cpu0_ITLB RFO       ACCESS:          0  HIT:          0  MISS:          0
cpu0_ITLB PREFETCH  ACCESS:          0  HIT:          0  MISS:          0
cpu0_ITLB WRITEBACK ACCESS:          0  HIT:          0  MISS:          0
cpu0_L1I TOTAL     ACCESS:    4252987  HIT:    4252987  MISS:          0
cpu0_L1I LOAD      ACCESS:    4252987  HIT:    4252987  MISS:          0
cpu0_L1I RFO       ACCESS:          0  HIT:          0  MISS:          0
cpu0_L1I PREFETCH  ACCESS:          0  HIT:          0  MISS:          0
cpu0_L1I WRITEBACK ACCESS:          0  HIT:          0  MISS:          0
cpu0_STLB TOTAL     ACCESS:     254611  HIT:     213659  MISS:      40952
cpu0_STLB LOAD      ACCESS:     231560  HIT:     190608  MISS:      40952
cpu0_STLB RFO       ACCESS:      23051  HIT:      23051  MISS:          0
cpu0_STLB PREFETCH  ACCESS:          0  HIT:          0  MISS:          0
cpu0_STLB WRITEBACK ACCESS:          0  HIT:          0  MISS:          0
cpu0_L1D TOTAL     ACCESS:   20322214  HIT:   19975250  MISS:     346964
cpu0_L1D LOAD      ACCESS:   17367318  HIT:   17020715  MISS:     346603
cpu0_L1D RFO       ACCESS:    2914038  HIT:    2914038  MISS:          0
cpu0_L1D PREFETCH  ACCESS:          0  HIT:          0  MISS:          0
cpu0_L1D WRITEBACK ACCESS:          0  HIT:          0  MISS:          0
cpu0_L2C TOTAL     ACCESS:     510060  HIT:     226914  MISS:     283146
cpu0_L2C LOAD      ACCESS:     346603  HIT:      63484  MISS:     283119
cpu0_L2C RFO       ACCESS:          0  HIT:          0  MISS:          0
cpu0_L2C PREFETCH  ACCESS:          0  HIT:          0  MISS:          0
cpu0_L2C WRITEBACK ACCESS:     163096  HIT:     163096  MISS:          0
LLC TOTAL     ACCESS:     446166  HIT:          2  MISS:     446164
LLC LOAD      ACCESS:     283119  HIT:          2  MISS:     283117
LLC RFO       ACCESS:          0  HIT:          0  MISS:          0
LLC PREFETCH  ACCESS:          0  HIT:          0  MISS:          0
LLC WRITEBACK ACCESS:     163020  HIT:          0  MISS:     163020
Heartbeat CPU 0 instructions: 90000001 cycles: 85599371 heartbeat IPC: 0.690012 cumulative IPC: 0.688547 (Simulation time: 2 hr 10 min 50 sec) 

Region of Interest Statistics
cpu0_DTLB TOTAL     ACCESS:   18261294  HIT:   17994701  MISS:     266593
cpu0_DTLB LOAD      ACCESS:   16533916  HIT:   16291288  MISS:     242628
cpu0_DTLB RFO       ACCESS:    1727378  HIT:    1703413  MISS:      23965
cpu0_DTLB PREFETCH  ACCESS:          0  HIT:          0  MISS:          0
cpu0_DTLB WRITEBACK ACCESS:          0  HIT:          0  MISS:          0
cpu0_ITLB TOTAL     ACCESS:     759833  HIT:     759833  MISS:          0
cpu0_ITLB LOAD      ACCESS:     759833  HIT:     759833  MISS:          0
cpu0_ITLB RFO       ACCESS:          0  HIT:          0  MISS:          0
cpu0_ITLB PREFETCH  ACCESS:          0  HIT:          0  MISS:          0
cpu0_ITLB WRITEBACK ACCESS:          0  HIT:          0  MISS:          0
cpu0_L1I TOTAL     ACCESS:    4476823  HIT:    4476823  MISS:          0
cpu0_L1I LOAD      ACCESS:    4476823  HIT:    4476823  MISS:          0
cpu0_L1I RFO       ACCESS:          0  HIT:          0  MISS:          0
cpu0_L1I PREFETCH  ACCESS:          0  HIT:          0  MISS:          0
cpu0_L1I WRITEBACK ACCESS:          0  HIT:          0  MISS:          0
cpu0_STLB TOTAL     ACCESS:     266593  HIT:     223489  MISS:      43104
cpu0_STLB LOAD      ACCESS:     242628  HIT:     199524  MISS:      43104
cpu0_STLB RFO       ACCESS:      23965  HIT:      23965  MISS:          0
cpu0_STLB PREFETCH  ACCESS:          0  HIT:          0  MISS:          0
cpu0_STLB WRITEBACK ACCESS:          0  HIT:          0  MISS:          0
cpu0_L1D TOTAL     ACCESS:   21392030  HIT:   21026810  MISS:     365220
cpu0_L1D LOAD      ACCESS:   18281627  HIT:   17916786  MISS:     364841
cpu0_L1D RFO       ACCESS:    3067398  HIT:    3067398  MISS:          0
cpu0_L1D PREFETCH  ACCESS:          0  HIT:          0  MISS:          0
cpu0_L1D WRITEBACK ACCESS:          0  HIT:          0  MISS:          0
cpu0_L2C TOTAL     ACCESS:     536877  HIT:     238817  MISS:     298060
cpu0_L2C LOAD      ACCESS:     364841  HIT:      66808  MISS:     298033
cpu0_L2C RFO       ACCESS:          0  HIT:          0  MISS:          0
cpu0_L2C PREFETCH  ACCESS:          0  HIT:          0  MISS:          0
cpu0_L2C WRITEBACK ACCESS:     171657  HIT:     171657  MISS:          0
LLC TOTAL     ACCESS:     469634  HIT:          2  MISS:     469632
LLC LOAD      ACCESS:     298033  HIT:          2  MISS:     298031
LLC RFO       ACCESS:          0  HIT:          0  MISS:          0
LLC PREFETCH  ACCESS:          0  HIT:          0  MISS:          0
LLC WRITEBACK ACCESS:     171574  HIT:          0  MISS:     171574
Heartbeat CPU 0 instructions: 92000000 cycles: 88498999 heartbeat IPC: 0.689743 cumulative IPC: 0.688603 (Simulation time: 2 hr 14 min 22 sec) 

Region of Interest Statistics
cpu0_DTLB TOTAL     ACCESS:   19174383  HIT:   18893560  MISS:     280823
cpu0_DTLB LOAD      ACCESS:   17360720  HIT:   17105137  MISS:     255583
cpu0_DTLB RFO       ACCESS:    1813663  HIT:    1788423  MISS:      25240
cpu0_DTLB PREFETCH  ACCESS:          0  HIT:          0  MISS:          0
cpu0_DTLB WRITEBACK ACCESS:          0  HIT:          0  MISS:          0
cpu0_ITLB TOTAL     ACCESS:     797817  HIT:     797817  MISS:          0
cpu0_ITLB LOAD      ACCESS:     797817  HIT:     797817  MISS:          0
cpu0_ITLB RFO       ACCESS:          0  HIT:          0  MISS:          0
cpu0_ITLB PREFETCH  ACCESS:          0  HIT:          0  MISS:          0
cpu0_ITLB WRITEBACK ACCESS:          0  HIT:          0  MISS:          0
cpu0_L1I TOTAL     ACCESS:    4700684  HIT:    4700684  MISS:          0
cpu0_L1I LOAD      ACCESS:    4700684  HIT:    4700684  MISS:          0
cpu0_L1I RFO       ACCESS:          0  HIT:          0  MISS:          0
cpu0_L1I PREFETCH  ACCESS:          0  HIT:          0  MISS:          0
cpu0_L1I WRITEBACK ACCESS:          0  HIT:          0  MISS:          0
cpu0_STLB TOTAL     ACCESS:     280823  HIT:     235558  MISS:      45265
cpu0_STLB LOAD      ACCESS:     255583  HIT:     210318  MISS:      45265
cpu0_STLB RFO       ACCESS:      25240  HIT:      25240  MISS:          0
cpu0_STLB PREFETCH  ACCESS:          0  HIT:          0  MISS:          0
cpu0_STLB WRITEBACK ACCESS:          0  HIT:          0  MISS:          0
cpu0_L1D TOTAL     ACCESS:   22461578  HIT:   22078084  MISS:     383494
cpu0_L1D LOAD      ACCESS:   19195637  HIT:   18812545  MISS:     383092
cpu0_L1D RFO       ACCESS:    3220779  HIT:    3220779  MISS:          0
cpu0_L1D PREFETCH  ACCESS:          0  HIT:          0  MISS:          0
cpu0_L1D WRITEBACK ACCESS:          0  HIT:          0  MISS:          0
cpu0_L2C TOTAL     ACCESS:     563731  HIT:     250793  MISS:     312938
cpu0_L2C LOAD      ACCESS:     383092  HIT:      70184  MISS:     312908
cpu0_L2C RFO       ACCESS:          0  HIT:          0  MISS:          0
cpu0_L2C PREFETCH  ACCESS:          0  HIT:          0  MISS:          0
cpu0_L2C WRITEBACK ACCESS:     180237  HIT:     180237  MISS:          0
LLC TOTAL     ACCESS:     493142  HIT:          2  MISS:     493140
LLC LOAD      ACCESS:     312908  HIT:          2  MISS:     312906
LLC RFO       ACCESS:          0  HIT:          0  MISS:          0
LLC PREFETCH  ACCESS:          0  HIT:          0  MISS:          0
LLC WRITEBACK ACCESS:     180204  HIT:          0  MISS:     180204
Heartbeat CPU 0 instructions: 94000002 cycles: 91401933 heartbeat IPC: 0.688959 cumulative IPC: 0.68862 (Simulation time: 2 hr 17 min 48 sec) 

Region of Interest Statistics
cpu0_DTLB TOTAL     ACCESS:   20087020  HIT:   19791456  MISS:     295564
cpu0_DTLB LOAD      ACCESS:   18186988  HIT:   17917973  MISS:     269015
cpu0_DTLB RFO       ACCESS:    1900032  HIT:    1873483  MISS:      26549
cpu0_DTLB PREFETCH  ACCESS:          0  HIT:          0  MISS:          0
cpu0_DTLB WRITEBACK ACCESS:          0  HIT:          0  MISS:          0
cpu0_ITLB TOTAL     ACCESS:     835796  HIT:     835796  MISS:          0
cpu0_ITLB LOAD      ACCESS:     835796  HIT:     835796  MISS:          0
cpu0_ITLB RFO       ACCESS:          0  HIT:          0  MISS:          0
cpu0_ITLB PREFETCH  ACCESS:          0  HIT:          0  MISS:          0
cpu0_ITLB WRITEBACK ACCESS:          0  HIT:          0  MISS:          0
cpu0_L1I TOTAL     ACCESS:    4924446  HIT:    4924446  MISS:          0
cpu0_L1I LOAD      ACCESS:    4924446  HIT:    4924446  MISS:          0
cpu0_L1I RFO       ACCESS:          0  HIT:          0  MISS:          0
cpu0_L1I PREFETCH  ACCESS:          0  HIT:          0  MISS:          0
cpu0_L1I WRITEBACK ACCESS:          0  HIT:          0  MISS:          0
cpu0_STLB TOTAL     ACCESS:     295564  HIT:     248143  MISS:      47421
cpu0_STLB LOAD      ACCESS:     269015  HIT:     221594  MISS:      47421
cpu0_STLB RFO       ACCESS:      26549  HIT:      26549  MISS:          0
cpu0_STLB PREFETCH  ACCESS:          0  HIT:          0  MISS:          0
cpu0_STLB WRITEBACK ACCESS:          0  HIT:          0  MISS:          0
cpu0_L1D TOTAL     ACCESS:   23530970  HIT:   23129217  MISS:     401753
cpu0_L1D LOAD      ACCESS:   20109502  HIT:   19708170  MISS:     401332
cpu0_L1D RFO       ACCESS:    3374158  HIT:    3374158  MISS:          0
cpu0_L1D PREFETCH  ACCESS:          0  HIT:          0  MISS:          0
cpu0_L1D WRITEBACK ACCESS:          0  HIT:          0  MISS:          0
cpu0_L2C TOTAL     ACCESS:     590588  HIT:     262820  MISS:     327768
cpu0_L2C LOAD      ACCESS:     401332  HIT:      73595  MISS:     327737
cpu0_L2C RFO       ACCESS:          0  HIT:          0  MISS:          0
cpu0_L2C PREFETCH  ACCESS:          0  HIT:          0  MISS:          0
cpu0_L2C WRITEBACK ACCESS:     188835  HIT:     188835  MISS:          0
LLC TOTAL     ACCESS:     516523  HIT:          2  MISS:     516521
LLC LOAD      ACCESS:     327737  HIT:          2  MISS:     327735
LLC RFO       ACCESS:          0  HIT:          0  MISS:          0
LLC PREFETCH  ACCESS:          0  HIT:          0  MISS:          0
LLC WRITEBACK ACCESS:     188755  HIT:          0  MISS:     188755
Heartbeat CPU 0 instructions: 96000003 cycles: 94312042 heartbeat IPC: 0.68726 cumulative IPC: 0.68856 (Simulation time: 2 hr 21 min 8 sec) 

Region of Interest Statistics
cpu0_DTLB TOTAL     ACCESS:   20999050  HIT:   20689556  MISS:     309494
cpu0_DTLB LOAD      ACCESS:   19012564  HIT:   18730726  MISS:     281838
cpu0_DTLB RFO       ACCESS:    1986486  HIT:    1958830  MISS:      27656
cpu0_DTLB PREFETCH  ACCESS:          0  HIT:          0  MISS:          0
cpu0_DTLB WRITEBACK ACCESS:          0  HIT:          0  MISS:          0
cpu0_ITLB TOTAL     ACCESS:     873780  HIT:     873780  MISS:          0
cpu0_ITLB LOAD      ACCESS:     873780  HIT:     873780  MISS:          0
cpu0_ITLB RFO       ACCESS:          0  HIT:          0  MISS:          0
cpu0_ITLB PREFETCH  ACCESS:          0  HIT:          0  MISS:          0
cpu0_ITLB WRITEBACK ACCESS:          0  HIT:          0  MISS:          0
cpu0_L1I TOTAL     ACCESS:    5148270  HIT:    5148270  MISS:          0
cpu0_L1I LOAD      ACCESS:    5148270  HIT:    5148270  MISS:          0
cpu0_L1I RFO       ACCESS:          0  HIT:          0  MISS:          0
cpu0_L1I PREFETCH  ACCESS:          0  HIT:          0  MISS:          0
cpu0_L1I WRITEBACK ACCESS:          0  HIT:          0  MISS:          0
cpu0_STLB TOTAL     ACCESS:     309494  HIT:     259921  MISS:      49573
cpu0_STLB LOAD      ACCESS:     281838  HIT:     232265  MISS:      49573
cpu0_STLB RFO       ACCESS:      27656  HIT:      27656  MISS:          0
cpu0_STLB PREFETCH  ACCESS:          0  HIT:          0  MISS:          0
cpu0_STLB WRITEBACK ACCESS:          0  HIT:          0  MISS:          0
cpu0_L1D TOTAL     ACCESS:   24601089  HIT:   24181074  MISS:     420015
cpu0_L1D LOAD      ACCESS:   21024121  HIT:   20604547  MISS:     419574
cpu0_L1D RFO       ACCESS:    3527509  HIT:    3527509  MISS:          0
cpu0_L1D PREFETCH  ACCESS:          0  HIT:          0  MISS:          0
cpu0_L1D WRITEBACK ACCESS:          0  HIT:          0  MISS:          0
cpu0_L2C TOTAL     ACCESS:     617420  HIT:     274692  MISS:     342728
cpu0_L2C LOAD      ACCESS:     419574  HIT:      76879  MISS:     342695
cpu0_L2C RFO       ACCESS:          0  HIT:          0  MISS:          0
cpu0_L2C PREFETCH  ACCESS:          0  HIT:          0  MISS:          0
cpu0_L2C WRITEBACK ACCESS:     197405  HIT:     197405  MISS:          0
LLC TOTAL     ACCESS:     540009  HIT:          2  MISS:     540007
LLC LOAD      ACCESS:     342695  HIT:          2  MISS:     342693
LLC RFO       ACCESS:          0  HIT:          0  MISS:          0
LLC PREFETCH  ACCESS:          0  HIT:          0  MISS:          0
LLC WRITEBACK ACCESS:     197281  HIT:          0  MISS:     197281
Heartbeat CPU 0 instructions: 98000003 cycles: 97225138 heartbeat IPC: 0.686555 cumulative IPC: 0.688477 (Simulation time: 2 hr 24 min 29 sec) 

Region of Interest Statistics
cpu0_DTLB TOTAL     ACCESS:   21912182  HIT:   21589909  MISS:     322273
cpu0_DTLB LOAD      ACCESS:   19839281  HIT:   19546128  MISS:     293153
cpu0_DTLB RFO       ACCESS:    2072901  HIT:    2043781  MISS:      29120
cpu0_DTLB PREFETCH  ACCESS:          0  HIT:          0  MISS:          0
cpu0_DTLB WRITEBACK ACCESS:          0  HIT:          0  MISS:          0
cpu0_ITLB TOTAL     ACCESS:     911775  HIT:     911775  MISS:          0
cpu0_ITLB LOAD      ACCESS:     911775  HIT:     911775  MISS:          0
cpu0_ITLB RFO       ACCESS:          0  HIT:          0  MISS:          0
cpu0_ITLB PREFETCH  ACCESS:          0  HIT:          0  MISS:          0
cpu0_ITLB WRITEBACK ACCESS:          0  HIT:          0  MISS:          0
cpu0_L1I TOTAL     ACCESS:    5372155  HIT:    5372155  MISS:          0
cpu0_L1I LOAD      ACCESS:    5372155  HIT:    5372155  MISS:          0
cpu0_L1I RFO       ACCESS:          0  HIT:          0  MISS:          0
cpu0_L1I PREFETCH  ACCESS:          0  HIT:          0  MISS:          0
cpu0_L1I WRITEBACK ACCESS:          0  HIT:          0  MISS:          0
cpu0_STLB TOTAL     ACCESS:     322273  HIT:     270544  MISS:      51729
cpu0_STLB LOAD      ACCESS:     293153  HIT:     241424  MISS:      51729
cpu0_STLB RFO       ACCESS:      29120  HIT:      29120  MISS:          0
cpu0_STLB PREFETCH  ACCESS:          0  HIT:          0  MISS:          0
cpu0_STLB WRITEBACK ACCESS:          0  HIT:          0  MISS:          0
cpu0_L1D TOTAL     ACCESS:   25671145  HIT:   25232881  MISS:     438264
cpu0_L1D LOAD      ACCESS:   21938661  HIT:   21500856  MISS:     437805
cpu0_L1D RFO       ACCESS:    3680878  HIT:    3680878  MISS:          0
cpu0_L1D PREFETCH  ACCESS:          0  HIT:          0  MISS:          0
cpu0_L1D WRITEBACK ACCESS:          0  HIT:          0  MISS:          0
cpu0_L2C TOTAL     ACCESS:     644269  HIT:     286598  MISS:     357671
cpu0_L2C LOAD      ACCESS:     437805  HIT:      80168  MISS:     357637
cpu0_L2C RFO       ACCESS:          0  HIT:          0  MISS:          0
cpu0_L2C PREFETCH  ACCESS:          0  HIT:          0  MISS:          0
cpu0_L2C WRITEBACK ACCESS:     206005  HIT:     206005  MISS:          0
LLC TOTAL     ACCESS:     563559  HIT:          2  MISS:     563557
LLC LOAD      ACCESS:     357637  HIT:          2  MISS:     357635
LLC RFO       ACCESS:          0  HIT:          0  MISS:          0
LLC PREFETCH  ACCESS:          0  HIT:          0  MISS:          0
LLC WRITEBACK ACCESS:     205888  HIT:          0  MISS:     205888
Heartbeat CPU 0 instructions: 100000003 cycles: 100132011 heartbeat IPC: 0.688025 cumulative IPC: 0.688459 (Simulation time: 2 hr 27 min 49 sec) 

Region of Interest Statistics
cpu0_DTLB TOTAL     ACCESS:   22826685  HIT:   22493311  MISS:     333374
cpu0_DTLB LOAD      ACCESS:   20667369  HIT:   20363906  MISS:     303463
cpu0_DTLB RFO       ACCESS:    2159316  HIT:    2129405  MISS:      29911
cpu0_DTLB PREFETCH  ACCESS:          0  HIT:          0  MISS:          0
cpu0_DTLB WRITEBACK ACCESS:          0  HIT:          0  MISS:          0
cpu0_ITLB TOTAL     ACCESS:     949760  HIT:     949760  MISS:          0
cpu0_ITLB LOAD      ACCESS:     949760  HIT:     949760  MISS:          0
cpu0_ITLB RFO       ACCESS:          0  HIT:          0  MISS:          0
cpu0_ITLB PREFETCH  ACCESS:          0  HIT:          0  MISS:          0
cpu0_ITLB WRITEBACK ACCESS:          0  HIT:          0  MISS:          0
cpu0_L1I TOTAL     ACCESS:    5595963  HIT:    5595963  MISS:          0
cpu0_L1I LOAD      ACCESS:    5595963  HIT:    5595963  MISS:          0
cpu0_L1I RFO       ACCESS:          0  HIT:          0  MISS:          0
cpu0_L1I PREFETCH  ACCESS:          0  HIT:          0  MISS:          0
cpu0_L1I WRITEBACK ACCESS:          0  HIT:          0  MISS:          0
cpu0_STLB TOTAL     ACCESS:     333374  HIT:     279492  MISS:      53882
cpu0_STLB LOAD      ACCESS:     303463  HIT:     249581  MISS:      53882
cpu0_STLB RFO       ACCESS:      29911  HIT:      29911  MISS:          0
cpu0_STLB PREFETCH  ACCESS:          0  HIT:          0  MISS:          0
cpu0_STLB WRITEBACK ACCESS:          0  HIT:          0  MISS:          0
cpu0_L1D TOTAL     ACCESS:   26740919  HIT:   26284380  MISS:     456539
cpu0_L1D LOAD      ACCESS:   22852899  HIT:   22396838  MISS:     456061
cpu0_L1D RFO       ACCESS:    3834268  HIT:    3834268  MISS:          0
cpu0_L1D PREFETCH  ACCESS:          0  HIT:          0  MISS:          0
cpu0_L1D WRITEBACK ACCESS:          0  HIT:          0  MISS:          0
cpu0_L2C TOTAL     ACCESS:     671120  HIT:     298486  MISS:     372634
cpu0_L2C LOAD      ACCESS:     456061  HIT:      83462  MISS:     372599
cpu0_L2C RFO       ACCESS:          0  HIT:          0  MISS:          0
cpu0_L2C PREFETCH  ACCESS:          0  HIT:          0  MISS:          0
cpu0_L2C WRITEBACK ACCESS:     214581  HIT:     214581  MISS:          0
LLC TOTAL     ACCESS:     587096  HIT:          2  MISS:     587094
LLC LOAD      ACCESS:     372599  HIT:          2  MISS:     372597
LLC RFO       ACCESS:          0  HIT:          0  MISS:          0
LLC PREFETCH  ACCESS:          0  HIT:          0  MISS:          0
LLC WRITEBACK ACCESS:     214462  HIT:          0  MISS:     214462
Heartbeat CPU 0 instructions: 102000004 cycles: 103035162 heartbeat IPC: 0.688907 cumulative IPC: 0.688476 (Simulation time: 2 hr 31 min 14 sec) 

Region of Interest Statistics
cpu0_DTLB TOTAL     ACCESS:   23739980  HIT:   23393401  MISS:     346579
cpu0_DTLB LOAD      ACCESS:   21494338  HIT:   21178720  MISS:     315618
cpu0_DTLB RFO       ACCESS:    2245642  HIT:    2214681  MISS:      30961
cpu0_DTLB PREFETCH  ACCESS:          0  HIT:          0  MISS:          0
cpu0_DTLB WRITEBACK ACCESS:          0  HIT:          0  MISS:          0
cpu0_ITLB TOTAL     ACCESS:     987752  HIT:     987752  MISS:          0
cpu0_ITLB LOAD      ACCESS:     987752  HIT:     987752  MISS:          0
cpu0_ITLB RFO       ACCESS:          0  HIT:          0  MISS:          0
cpu0_ITLB PREFETCH  ACCESS:          0  HIT:          0  MISS:          0
cpu0_ITLB WRITEBACK ACCESS:          0  HIT:          0  MISS:          0
cpu0_L1I TOTAL     ACCESS:    5819836  HIT:    5819836  MISS:          0
cpu0_L1I LOAD      ACCESS:    5819836  HIT:    5819836  MISS:          0
cpu0_L1I RFO       ACCESS:          0  HIT:          0  MISS:          0
cpu0_L1I PREFETCH  ACCESS:          0  HIT:          0  MISS:          0
cpu0_L1I WRITEBACK ACCESS:          0  HIT:          0  MISS:          0
cpu0_STLB TOTAL     ACCESS:     346579  HIT:     290539  MISS:      56040
cpu0_STLB LOAD      ACCESS:     315618  HIT:     259578  MISS:      56040
cpu0_STLB RFO       ACCESS:      30961  HIT:      30961  MISS:          0
cpu0_STLB PREFETCH  ACCESS:          0  HIT:          0  MISS:          0
cpu0_STLB WRITEBACK ACCESS:          0  HIT:          0  MISS:          0
cpu0_L1D TOTAL     ACCESS:   27810652  HIT:   27335858  MISS:     474794
cpu0_L1D LOAD      ACCESS:   23767123  HIT:   23292827  MISS:     474296
cpu0_L1D RFO       ACCESS:    3987622  HIT:    3987622  MISS:          0
cpu0_L1D PREFETCH  ACCESS:          0  HIT:          0  MISS:          0
cpu0_L1D WRITEBACK ACCESS:          0  HIT:          0  MISS:          0
cpu0_L2C TOTAL     ACCESS:     697974  HIT:     310427  MISS:     387547
cpu0_L2C LOAD      ACCESS:     474296  HIT:      86785  MISS:     387511
cpu0_L2C RFO       ACCESS:          0  HIT:          0  MISS:          0
cpu0_L2C PREFETCH  ACCESS:          0  HIT:          0  MISS:          0
cpu0_L2C WRITEBACK ACCESS:     223180  HIT:     223180  MISS:          0
LLC TOTAL     ACCESS:     610626  HIT:          2  MISS:     610624
LLC LOAD      ACCESS:     387511  HIT:          2  MISS:     387509
LLC RFO       ACCESS:          0  HIT:          0  MISS:          0
LLC PREFETCH  ACCESS:          0  HIT:          0  MISS:          0
LLC WRITEBACK ACCESS:     223079  HIT:          0  MISS:     223079
Heartbeat CPU 0 instructions: 104000003 cycles: 105928218 heartbeat IPC: 0.69131 cumulative IPC: 0.68858 (Simulation time: 2 hr 34 min 44 sec) 

Region of Interest Statistics
cpu0_DTLB TOTAL     ACCESS:   24653241  HIT:   24293968  MISS:     359273
cpu0_DTLB LOAD      ACCESS:   22321218  HIT:   21993767  MISS:     327451
cpu0_DTLB RFO       ACCESS:    2332023  HIT:    2300201  MISS:      31822
cpu0_DTLB PREFETCH  ACCESS:          0  HIT:          0  MISS:          0
cpu0_DTLB WRITEBACK ACCESS:          0  HIT:          0  MISS:          0
cpu0_ITLB TOTAL     ACCESS:    1025724  HIT:    1025724  MISS:          0
cpu0_ITLB LOAD      ACCESS:    1025724  HIT:    1025724  MISS:          0
cpu0_ITLB RFO       ACCESS:          0  HIT:          0  MISS:          0
cpu0_ITLB PREFETCH  ACCESS:          0  HIT:          0  MISS:          0
cpu0_ITLB WRITEBACK ACCESS:          0  HIT:          0  MISS:          0
cpu0_L1I TOTAL     ACCESS:    6043713  HIT:    6043713  MISS:          0
cpu0_L1I LOAD      ACCESS:    6043713  HIT:    6043713  MISS:          0
cpu0_L1I RFO       ACCESS:          0  HIT:          0  MISS:          0
cpu0_L1I PREFETCH  ACCESS:          0  HIT:          0  MISS:          0
cpu0_L1I WRITEBACK ACCESS:          0  HIT:          0  MISS:          0
cpu0_STLB TOTAL     ACCESS:     359273  HIT:     301078  MISS:      58195
cpu0_STLB LOAD      ACCESS:     327451  HIT:     269256  MISS:      58195
cpu0_STLB RFO       ACCESS:      31822  HIT:      31822  MISS:          0
cpu0_STLB PREFETCH  ACCESS:          0  HIT:          0  MISS:          0
cpu0_STLB WRITEBACK ACCESS:          0  HIT:          0  MISS:          0
cpu0_L1D TOTAL     ACCESS:   28880308  HIT:   28387249  MISS:     493059
cpu0_L1D LOAD      ACCESS:   24681255  HIT:   24188716  MISS:     492539
cpu0_L1D RFO       ACCESS:    4140998  HIT:    4140998  MISS:          0
cpu0_L1D PREFETCH  ACCESS:          0  HIT:          0  MISS:          0
cpu0_L1D WRITEBACK ACCESS:          0  HIT:          0  MISS:          0
cpu0_L2C TOTAL     ACCESS:     724796  HIT:     322308  MISS:     402488
cpu0_L2C LOAD      ACCESS:     492539  HIT:      90090  MISS:     402449
cpu0_L2C RFO       ACCESS:          0  HIT:          0  MISS:          0
cpu0_L2C PREFETCH  ACCESS:          0  HIT:          0  MISS:          0
cpu0_L2C WRITEBACK ACCESS:     231737  HIT:     231737  MISS:          0
LLC TOTAL     ACCESS:     634112  HIT:          2  MISS:     634110
LLC LOAD      ACCESS:     402449  HIT:          2  MISS:     402447
LLC RFO       ACCESS:          0  HIT:          0  MISS:          0
LLC PREFETCH  ACCESS:          0  HIT:          0  MISS:          0
LLC WRITEBACK ACCESS:     231624  HIT:          0  MISS:     231624
Heartbeat CPU 0 instructions: 106000001 cycles: 108853775 heartbeat IPC: 0.68363 cumulative IPC: 0.688402 (Simulation time: 2 hr 38 min 6 sec) 

Region of Interest Statistics
cpu0_DTLB TOTAL     ACCESS:   25565182  HIT:   25189857  MISS:     375325
cpu0_DTLB LOAD      ACCESS:   23146777  HIT:   22804795  MISS:     341982
cpu0_DTLB RFO       ACCESS:    2418405  HIT:    2385062  MISS:      33343
cpu0_DTLB PREFETCH  ACCESS:          0  HIT:          0  MISS:          0
cpu0_DTLB WRITEBACK ACCESS:          0  HIT:          0  MISS:          0
cpu0_ITLB TOTAL     ACCESS:    1063718  HIT:    1063718  MISS:          0
cpu0_ITLB LOAD      ACCESS:    1063718  HIT:    1063718  MISS:          0
cpu0_ITLB RFO       ACCESS:          0  HIT:          0  MISS:          0
cpu0_ITLB PREFETCH  ACCESS:          0  HIT:          0  MISS:          0
cpu0_ITLB WRITEBACK ACCESS:          0  HIT:          0  MISS:          0
cpu0_L1I TOTAL     ACCESS:    6267473  HIT:    6267473  MISS:          0
cpu0_L1I LOAD      ACCESS:    6267473  HIT:    6267473  MISS:          0
cpu0_L1I RFO       ACCESS:          0  HIT:          0  MISS:          0
cpu0_L1I PREFETCH  ACCESS:          0  HIT:          0  MISS:          0
cpu0_L1I WRITEBACK ACCESS:          0  HIT:          0  MISS:          0
cpu0_STLB TOTAL     ACCESS:     375325  HIT:     314973  MISS:      60352
cpu0_STLB LOAD      ACCESS:     341982  HIT:     281630  MISS:      60352
cpu0_STLB RFO       ACCESS:      33343  HIT:      33343  MISS:          0
cpu0_STLB PREFETCH  ACCESS:          0  HIT:          0  MISS:          0
cpu0_STLB WRITEBACK ACCESS:          0  HIT:          0  MISS:          0
cpu0_L1D TOTAL     ACCESS:   29950239  HIT:   29438913  MISS:     511326
cpu0_L1D LOAD      ACCESS:   25595664  HIT:   25084877  MISS:     510787
cpu0_L1D RFO       ACCESS:    4294367  HIT:    4294367  MISS:          0
cpu0_L1D PREFETCH  ACCESS:          0  HIT:          0  MISS:          0
cpu0_L1D WRITEBACK ACCESS:          0  HIT:          0  MISS:          0
cpu0_L2C TOTAL     ACCESS:     751654  HIT:     334161  MISS:     417493
cpu0_L2C LOAD      ACCESS:     510787  HIT:      93334  MISS:     417453
cpu0_L2C RFO       ACCESS:          0  HIT:          0  MISS:          0
cpu0_L2C PREFETCH  ACCESS:          0  HIT:          0  MISS:          0
[...]
cpu0_DTLB LOAD      ACCESS:  536074036  HIT:  530350249  MISS:    5723787
cpu0_DTLB RFO       ACCESS:   65375472  HIT:   63944921  MISS:    1430551
cpu0_DTLB PREFETCH  ACCESS:          0  HIT:          0  MISS:          0
cpu0_DTLB WRITEBACK ACCESS:          0  HIT:          0  MISS:          0
cpu0_ITLB TOTAL     ACCESS:   26274838  HIT:   26274799  MISS:         39
cpu0_ITLB LOAD      ACCESS:   26274838  HIT:   26274799  MISS:         39
cpu0_ITLB RFO       ACCESS:          0  HIT:          0  MISS:          0
cpu0_ITLB PREFETCH  ACCESS:          0  HIT:          0  MISS:          0
cpu0_ITLB WRITEBACK ACCESS:          0  HIT:          0  MISS:          0
cpu0_L1I TOTAL     ACCESS:  114875183  HIT:  114874184  MISS:        999
cpu0_L1I LOAD      ACCESS:  114875183  HIT:  114874184  MISS:        999
cpu0_L1I RFO       ACCESS:          0  HIT:          0  MISS:          0
cpu0_L1I PREFETCH  ACCESS:          0  HIT:          0  MISS:          0
cpu0_L1I WRITEBACK ACCESS:          0  HIT:          0  MISS:          0
cpu0_STLB TOTAL     ACCESS:    7154377  HIT:    6195850  MISS:     958527
cpu0_STLB LOAD      ACCESS:    5723826  HIT:    4766006  MISS:     957820
cpu0_STLB RFO       ACCESS:    1430551  HIT:    1429844  MISS:        707
cpu0_STLB PREFETCH  ACCESS:          0  HIT:          0  MISS:          0
cpu0_STLB WRITEBACK ACCESS:          0  HIT:          0  MISS:          0
cpu0_L1D TOTAL     ACCESS:  662497965  HIT:  643433428  MISS:   19064537
cpu0_L1D LOAD      ACCESS:  559257101  HIT:  540404863  MISS:   18852238
cpu0_L1D RFO       ACCESS:  102347261  HIT:  102181532  MISS:     165729
cpu0_L1D PREFETCH  ACCESS:          0  HIT:          0  MISS:          0
cpu0_L1D WRITEBACK ACCESS:          0  HIT:          0  MISS:          0
cpu0_L2C TOTAL     ACCESS:   27414587  HIT:    9860782  MISS:   17553805
cpu0_L2C LOAD      ACCESS:   18853237  HIT:    1426721  MISS:   17426516
cpu0_L2C RFO       ACCESS:     165729  HIT:      40239  MISS:     125490
cpu0_L2C PREFETCH  ACCESS:          0  HIT:          0  MISS:          0
cpu0_L2C WRITEBACK ACCESS:    8349051  HIT:    8348453  MISS:        598
LLC TOTAL     ACCESS:   25856531  HIT:       5777  MISS:   25850754
LLC LOAD      ACCESS:   17426513  HIT:       4036  MISS:   17422477
LLC RFO       ACCESS:     125490  HIT:       1741  MISS:     123749
LLC PREFETCH  ACCESS:          0  HIT:          0  MISS:          0
LLC WRITEBACK ACCESS:    8303327  HIT:          0  MISS:    8303327
Heartbeat CPU 0 instructions: 1550000002 cycles: 2767546813 heartbeat IPC: 0.759917 cumulative IPC: 0.547437 (Simulation time: 20 hr 3 min 50 sec) 

Region of Interest Statistics
cpu0_DTLB TOTAL     ACCESS:  602401060  HIT:  595245066  MISS:    7155994
cpu0_DTLB LOAD      ACCESS:  536947183  HIT:  531221900  MISS:    5725283
cpu0_DTLB RFO       ACCESS:   65453877  HIT:   64023166  MISS:    1430711
cpu0_DTLB PREFETCH  ACCESS:          0  HIT:          0  MISS:          0
cpu0_DTLB WRITEBACK ACCESS:          0  HIT:          0  MISS:          0
cpu0_ITLB TOTAL     ACCESS:   26309345  HIT:   26309306  MISS:         39
cpu0_ITLB LOAD      ACCESS:   26309345  HIT:   26309306  MISS:         39
cpu0_ITLB RFO       ACCESS:          0  HIT:          0  MISS:          0
cpu0_ITLB PREFETCH  ACCESS:          0  HIT:          0  MISS:          0
cpu0_ITLB WRITEBACK ACCESS:          0  HIT:          0  MISS:          0
cpu0_L1I TOTAL     ACCESS:  115091004  HIT:  115090005  MISS:        999
cpu0_L1I LOAD      ACCESS:  115091004  HIT:  115090005  MISS:        999
cpu0_L1I RFO       ACCESS:          0  HIT:          0  MISS:          0
cpu0_L1I PREFETCH  ACCESS:          0  HIT:          0  MISS:          0
cpu0_L1I WRITEBACK ACCESS:          0  HIT:          0  MISS:          0
cpu0_STLB TOTAL     ACCESS:    7156033  HIT:    6197294  MISS:     958739
cpu0_STLB LOAD      ACCESS:    5725322  HIT:    4767290  MISS:     958032
cpu0_STLB RFO       ACCESS:    1430711  HIT:    1430004  MISS:        707
cpu0_STLB PREFETCH  ACCESS:          0  HIT:          0  MISS:          0
cpu0_STLB WRITEBACK ACCESS:          0  HIT:          0  MISS:          0
cpu0_L1D TOTAL     ACCESS:  663579598  HIT:  644500436  MISS:   19079162
cpu0_L1D LOAD      ACCESS:  560220138  HIT:  541353405  MISS:   18866733
cpu0_L1D RFO       ACCESS:  102465650  HIT:  102299917  MISS:     165733
cpu0_L1D PREFETCH  ACCESS:          0  HIT:          0  MISS:          0
cpu0_L1D WRITEBACK ACCESS:          0  HIT:          0  MISS:          0
cpu0_L2C TOTAL     ACCESS:   27436765  HIT:    9871374  MISS:   17565391
cpu0_L2C LOAD      ACCESS:   18867732  HIT:    1429634  MISS:   17438098
cpu0_L2C RFO       ACCESS:     165733  HIT:      40243  MISS:     125490
cpu0_L2C PREFETCH  ACCESS:          0  HIT:          0  MISS:          0
cpu0_L2C WRITEBACK ACCESS:    8356604  HIT:    8356003  MISS:        601
LLC TOTAL     ACCESS:   25875768  HIT:       5777  MISS:   25869991
LLC LOAD      ACCESS:   17438095  HIT:       4036  MISS:   17434059
LLC RFO       ACCESS:     125490  HIT:       1741  MISS:     123749
LLC PREFETCH  ACCESS:          0  HIT:          0  MISS:          0
LLC WRITEBACK ACCESS:    8310981  HIT:          0  MISS:    8310981
Finished CPU 0 instructions: 1500000000 cycles: 2740040822 cumulative IPC: 0.547437 (Simulation time: 20 hr 3 min 50 sec) 

ChampSim completed all CPUs

Region of Interest Statistics

CPU 0 cumulative IPC: 0.547437 instructions: 1500000000 cycles: 2740040822
cpu0_DTLB TOTAL     ACCESS:  602401060  HIT:  595245066  MISS:    7155994
cpu0_DTLB LOAD      ACCESS:  536947183  HIT:  531221900  MISS:    5725283
cpu0_DTLB RFO       ACCESS:   65453877  HIT:   64023166  MISS:    1430711
cpu0_DTLB PREFETCH  ACCESS:          0  HIT:          0  MISS:          0
cpu0_DTLB WRITEBACK ACCESS:          0  HIT:          0  MISS:          0
cpu0_DTLB TRANSLATION ACCESS:          0  HIT:          0  MISS:          0
cpu0_DTLB PREFETCH  REQUESTED:          0  ISSUED:          0  USEFUL:          0  USELESS:          0
cpu0_DTLB AVERAGE MISS LATENCY: 18.458 cycles
cpu0_ITLB TOTAL     ACCESS:   26309345  HIT:   26309306  MISS:         39
cpu0_ITLB LOAD      ACCESS:   26309345  HIT:   26309306  MISS:         39
cpu0_ITLB RFO       ACCESS:          0  HIT:          0  MISS:          0
cpu0_ITLB PREFETCH  ACCESS:          0  HIT:          0  MISS:          0
cpu0_ITLB WRITEBACK ACCESS:          0  HIT:          0  MISS:          0
cpu0_ITLB TRANSLATION ACCESS:          0  HIT:          0  MISS:          0
cpu0_ITLB PREFETCH  REQUESTED:          0  ISSUED:          0  USEFUL:          0  USELESS:          0
cpu0_ITLB AVERAGE MISS LATENCY: 320.256 cycles
cpu0_L1I TOTAL     ACCESS:  115091004  HIT:  115090005  MISS:        999
cpu0_L1I LOAD      ACCESS:  115091004  HIT:  115090005  MISS:        999
cpu0_L1I RFO       ACCESS:          0  HIT:          0  MISS:          0
cpu0_L1I PREFETCH  ACCESS:          0  HIT:          0  MISS:          0
cpu0_L1I WRITEBACK ACCESS:          0  HIT:          0  MISS:          0
cpu0_L1I TRANSLATION ACCESS:          0  HIT:          0  MISS:          0
cpu0_L1I PREFETCH  REQUESTED:          0  ISSUED:          0  USEFUL:          0  USELESS:          0
cpu0_L1I AVERAGE MISS LATENCY: 344.933 cycles
cpu0_STLB TOTAL     ACCESS:    7156033  HIT:    6197294  MISS:     958739
cpu0_STLB LOAD      ACCESS:    5725322  HIT:    4767290  MISS:     958032
cpu0_STLB RFO       ACCESS:    1430711  HIT:    1430004  MISS:        707
cpu0_STLB PREFETCH  ACCESS:          0  HIT:          0  MISS:          0
cpu0_STLB WRITEBACK ACCESS:          0  HIT:          0  MISS:          0
cpu0_STLB TRANSLATION ACCESS:          0  HIT:          0  MISS:          0
cpu0_STLB PREFETCH  REQUESTED:          0  ISSUED:          0  USEFUL:          0  USELESS:          0
cpu0_STLB AVERAGE MISS LATENCY: 70.5055 cycles
cpu0_L1D TOTAL     ACCESS:  663579598  HIT:  644500436  MISS:   19079162
cpu0_L1D LOAD      ACCESS:  560220138  HIT:  541353405  MISS:   18866733
cpu0_L1D RFO       ACCESS:  102465650  HIT:  102299917  MISS:     165733
cpu0_L1D PREFETCH  ACCESS:          0  HIT:          0  MISS:          0
cpu0_L1D WRITEBACK ACCESS:          0  HIT:          0  MISS:          0
cpu0_L1D TRANSLATION ACCESS:     893810  HIT:     847114  MISS:      46696
cpu0_L1D PREFETCH  REQUESTED:          0  ISSUED:          0  USEFUL:          0  USELESS:          0
cpu0_L1D AVERAGE MISS LATENCY: 482.3 cycles
cpu0_L2C TOTAL     ACCESS:   27436765  HIT:    9871374  MISS:   17565391
cpu0_L2C LOAD      ACCESS:   18867732  HIT:    1429634  MISS:   17438098
cpu0_L2C RFO       ACCESS:     165733  HIT:      40243  MISS:     125490
cpu0_L2C PREFETCH  ACCESS:          0  HIT:          0  MISS:          0
cpu0_L2C WRITEBACK ACCESS:    8356604  HIT:    8356003  MISS:        601
cpu0_L2C TRANSLATION ACCESS:      46696  HIT:      45494  MISS:       1202
cpu0_L2C PREFETCH  REQUESTED:          0  ISSUED:          0  USEFUL:          0  USELESS:          0
cpu0_L2C AVERAGE MISS LATENCY: 511.867 cycles
LLC TOTAL     ACCESS:   25875768  HIT:       5777  MISS:   25869991
LLC LOAD      ACCESS:   17438095  HIT:       4036  MISS:   17434059
LLC RFO       ACCESS:     125490  HIT:       1741  MISS:     123749
LLC PREFETCH  ACCESS:          0  HIT:          0  MISS:          0
LLC WRITEBACK ACCESS:    8310981  HIT:          0  MISS:    8310981
LLC TRANSLATION ACCESS:       1202  HIT:          0  MISS:       1202
LLC PREFETCH  REQUESTED:          0  ISSUED:          0  USEFUL:          0  USELESS:          0
LLC AVERAGE MISS LATENCY: 333.293 cycles
~~~~~~~~~~Reuse Distance Profiler output~~~~~~~~~~
0	0	0
1	0	0
2	0	0
3	0	0
4	0	0
5	0	0
6	0	0
7	0	0
8	0	0
9	0	0
10	0	0
11	0	0
12	0	0
13	0	0
14	0	0
15	0	0
16	0	0
17	0	0
18	0	0
19	0	0
20	0	0
21	0	0
22	0	0
23	0	0
24	0	0
25	0	0
26	0	0
27	0	0
28	0	0
29	0	0
30	0	0
31	0	0
32	0	0
33	0	0
34	0	0
35	0	0
36	0	0
37	0	0
38	0	0
39	0	0
40	0	0
41	0	0
42	0	0
43	0	0
44	0	0
45	0	0
46	0	0
47	0	0
48	0	0
49	0	0
50	0	0
51	0	0
52	0	0
53	0	0
54	0	0
55	0	0
56	0	0
57	0	0
58	0	0
59	0	0
60	0	0
61	0	0
62	0	0
63	0	0
64	0	0
66	0	0
68	0	0
70	0	0
72	0	0
74	0	0
76	0	0
78	0	0
80	0	0
82	0	0
84	0	0
86	0	0
88	0	0
90	0	0
92	0	0
94	0	0
96	0	0
98	0	0
100	0	0
102	0	0
104	0	0
106	0	0
108	0	0
110	0	0
112	0	0
114	0	0
116	0	0
118	0	0
120	0	0
122	0	0
124	0	0
126	0	0
128	0	0
132	0	0
136	0	0
140	0	0
144	0	0
148	0	0
152	0	0
156	0	0
160	0	0
164	0	0
168	0	0
172	0	0
176	0	0
180	0	0
184	0	0
188	0	0
192	0	0
196	0	0
200	0	0
204	0	0
208	0	0
212	0	0
216	0	0
220	0	0
224	0	0
228	0	0
232	0	0
236	0	0
240	0	0
244	0	0
248	0	0
252	0	0
256	0	0
264	0	0
272	0	0
280	0	0
288	0	0
296	0	0
304	0	0
312	0	0
320	0	0
328	0	0
336	0	0
344	0	0
352	0	0
360	0	0
368	0	0
376	0	0
384	0	0
392	0	0
400	0	0
408	0	0
416	0	0
424	0	0
432	0	0
440	0	0
448	0	0
456	0	0
464	0	0
472	0	0
480	0	0
488	0	0
496	0	0
504	0	0
512	0	0
528	0	0
544	0	0
560	0	0
576	0	0
592	0	0
608	0	0
624	0	0
640	0	0
656	0	0
672	0	0
688	0	0
704	0	0
720	0	0
736	0	0
752	0	0
768	0	0
784	0	0
800	0	0
816	0	0
832	0	0
848	0	0
864	0	0
880	0	0
896	0	0
912	0	0
928	0	0
944	0	0
960	0	0
976	0	0
992	0	0
1008	0	0
1024	0	0
1056	0	0
1088	0	0
1120	0	0
1152	0	0
1184	0	0
1216	0	0
1248	0	0
1280	0	0
1312	0	0
1344	0	0
1376	0	0
1408	0	0
1440	0	0
1472	0	0
1504	0	0
1536	0	0
1568	0	0
1600	0	0
1632	0	0
1664	0	0
1696	0	0
1728	0	0
1760	0	0
1792	0	0
1824	0	0
1856	0	0
1888	0	0
1920	0	0
1952	0	0
1984	0	0
2016	0	0
2048	0	0
2112	0	0
2176	0	0
2240	0	0
2304	0	0
2368	0	0
2432	0	0
2496	0	0
2560	0	0
2624	0	0
2688	0	0
2752	0	0
2816	0	0
2880	0	0
2944	0	0
3008	0	0
3072	0	0
3136	0	0
3200	0	0
3264	0	0
3328	0	0
3392	0	0
3456	0	0
3520	0	0
3584	0	0
3648	0	0
3712	0	0
3776	0	0
3840	0	0
3904	0	0
3968	0	0
4032	0	0
4096	0	0
4224	0	0
4352	0	0
4480	0	0
4608	0	0
4736	0	0
4864	0	0
4992	0	0
5120	0	0
5248	0	0
5376	0	0
5504	0	0
5632	0	0
5760	0	0
5888	0	0
6016	0	0
6144	0	0
6272	0	0
6400	0	0
6528	0	0
6656	0	0
6784	0	0
6912	0	0
7040	0	0
7168	0	0
7296	0	0
7424	0	0
7552	0	0
7680	0	0
7808	0	0
7936	0	0
8064	0	0
8192	0	0
8448	0	0
8704	0	0
8960	0	0
9216	0	0
9472	0	0
9728	0	0
9984	0	0
10240	0	0
10496	0	0
10752	0	0
11008	0	0
11264	0	0
11520	0	0
11776	0	0
12032	0	0
12288	0	0
12544	0	0
12800	0	0
13056	0	0
13312	0	0
13568	0	0
13824	0	0
14080	0	0
14336	0	0
14592	0	0
14848	0	0
15104	0	0
15360	0	0
15616	0	0
15872	0	0
16128	0	0
16384	0	0
16896	0	0
17408	0	0
17920	0	0
18432	0	0
18944	0	0
19456	0	0
19968	0	0
20480	0	0
20992	0	0
21504	0	0
22016	0	0
22528	0	0
23040	0	0
23552	0	0
24064	0	0
24576	0	0
25088	0	0
25600	0	0
26112	0	0
26624	0	0
27136	0	0
27648	0	0
28160	0	0
28672	0	0
29184	0	0
29696	0	0
30208	0	0
30720	0	0
31232	0	0
31744	0	0
32256	0	0
32768	0	0
33792	0	0
34816	0	0
35840	0	0
36864	0	0
37888	0	0
38912	0	0
39936	0	0
40960	0	0
41984	0	0
43008	0	0
44032	0	0
45056	0	0
46080	0	0
47104	0	0
48128	0	0
49152	0	0
50176	0	0
51200	0	0
52224	0	0
53248	0	0
54272	0	0
55296	0	0
56320	0	0
57344	0	0
58368	0	0
59392	0	0
60416	0	0
61440	0	0
62464	0	0
63488	0	0
64512	0	0
65536	0	0
67584	0	0
69632	0	0
71680	0	0
73728	0	0
75776	0	0
77824	0	0
79872	0	0
81920	0	0
83968	0	0
86016	0	0
88064	0	0
90112	0	0
92160	0	0
94208	0	0
96256	0	0
98304	0	0
100352	0	0
102400	0	0
104448	0	0
106496	0	0
108544	0	0
110592	0	0
112640	0	0
114688	0	0
116736	0	0
118784	0	0
120832	0	0
122880	0	0
124928	0	0
126976	0	0
129024	0	0
131072	0	0
135168	0	0
139264	0	0
143360	0	0
147456	0	0
151552	0	0
155648	0	0
159744	0	0
163840	0	0
167936	0	0
172032	0	0
176128	0	0
180224	0	0
184320	0	0
188416	0	0
192512	0	0
196608	0	0
200704	0	0
204800	0	0
208896	0	0
212992	0	0
217088	0	0
221184	0	0
225280	0	0
229376	0	0
233472	0	0
237568	0	0
241664	0	0
245760	0	0
249856	0	0
253952	0	0
258048	0	0
262144	0	0
270336	0	0
278528	0	0
286720	0	0
294912	0	0
303104	0	0
311296	0	0
319488	0	0
327680	0	0
335872	0	0
344064	0	0
352256	0	0
360448	0	0
368640	0	0
376832	0	0
385024	0	0
393216	0	0
401408	0	0
409600	0	0
417792	0	0
425984	0	0
434176	0	0
442368	0	0
450560	0	0
458752	0	0
466944	0	0
475136	0	0
483328	0	0
491520	0	0
499712	0	0
507904	0	0
516096	0	0
524288	0	0
540672	0	0
557056	0	0
573440	0	0
589824	0	0
606208	0	0
622592	0	0
638976	0	0
655360	0	0
671744	0	0
688128	0	0
704512	0	0
720896	0	0
737280	0	0
753664	0	0
770048	0	0
786432	0	0
802816	0	0
819200	0	0
835584	0	0
851968	0	0
868352	0	0
884736	0	0
901120	0	0
917504	0	0
933888	0	0
950272	0	0
966656	0	0
983040	0	0
999424	0	0
1015808	0	0
1032192	0	0
1048576	0	0
1081344	0	0
1114112	0	0
1146880	0	0
1179648	0	0
1212416	0	0
1245184	0	0
1277952	0	0
1310720	0	0
1343488	0	0
1376256	0	0
1409024	0	0
1441792	0	0
1474560	0	0
1507328	0	0
1540096	0	0
1572864	0	0
1605632	0	0
1638400	0	0
1671168	0	0
1703936	0	0
1736704	0	0
1769472	0	0
1802240	0	0
1835008	0	0
1867776	0	0
1900544	0	0
1933312	0	0
1966080	0	0
1998848	0	0
2031616	0	0
2064384	0	0
2097152	0	0
2162688	0	0
2228224	0	0
2293760	0	0
2359296	0	0
2424832	0	0
2490368	0	0
2555904	0	0
2621440	0	0
2686976	0	0
2752512	0	0
2818048	0	0
2883584	0	0
2949120	0	0
3014656	0	0
3080192	0	0
3145728	0	0
3211264	0	0
3276800	0	0
3342336	0	0
3407872	0	0
3473408	0	0
3538944	0	0
3604480	0	0
3670016	0	0
3735552	0	0
3801088	0	0
3866624	0	0
3932160	0	0
3997696	0	0
4063232	0	0
4128768	0	0
4194304	0	0
4325376	0	0
4456448	0	0
4587520	0	0
4718592	0	0
4849664	0	0
4980736	0	0
5111808	0	0
5242880	0	0
5373952	0	0
5505024	0	0
5636096	0	0
5767168	0	0
5898240	0	0
6029312	0	0
6160384	0	0
6291456	0	0
6422528	0	0
6553600	0	0
6684672	0	0
6815744	0	0
6946816	0	0
7077888	0	0
7208960	0	0
7340032	0	0
7471104	0	0
7602176	0	0
7733248	0	0
7864320	0	0
7995392	0	0
8126464	0	0
8257536	0	0
8388608	0	0
8650752	0	0
8912896	0	0
9175040	0	0
9437184	0	0
9699328	0	0
9961472	0	0
10223616	0	0
10485760	0	0
10747904	0	0
11010048	0	0
11272192	0	0
11534336	0	0
11796480	0	0
12058624	0	0
12320768	0	0
12582912	0	0
12845056	0	0
13107200	0	0
13369344	0	0
13631488	0	0
13893632	0	0
14155776	0	0
14417920	0	0
14680064	0	0
14942208	0	0
15204352	0	0
15466496	0	0
15728640	0	0
15990784	0	0
16252928	0	0
16515072	0	0
16777216	0	0
17301504	0	0
17825792	0	0
18350080	0	0
18874368	0	0
19398656	0	0
19922944	0	0
20447232	0	0
20971520	0	0
21495808	0	0
22020096	0	0
22544384	0	0
23068672	0	0
23592960	0	0
24117248	0	0
24641536	0	0
25165824	0	0
25690112	0	0
26214400	0	0
26738688	0	0
27262976	0	0
27787264	0	0
28311552	0	0
28835840	0	0
29360128	0	0
29884416	0	0
30408704	0	0
30932992	0	0
31457280	0	0
31981568	0	0
32505856	0	0
33030144	0	0
33554432	0	0
34603008	0	0
35651584	0	0
36700160	0	0
37748736	0	0
38797312	0	0
39845888	0	0
40894464	0	0
41943040	0	0
42991616	0	0
44040192	0	0
45088768	0	0
46137344	0	0
47185920	0	0
48234496	0	0
49283072	0	0
50331648	0	0
51380224	0	0
52428800	0	0
53477376	0	0
54525952	0	0
55574528	0	0
56623104	0	0
57671680	0	0
58720256	0	0
59768832	0	0
60817408	0	0
61865984	0	0
62914560	0	0
63963136	0	0
65011712	0	0
66060288	0	0
67108864	0	0
69206016	0	0
71303168	0	0
73400320	0	0
75497472	0	0
77594624	0	0
79691776	0	0
81788928	0	0
83886080	0	0
85983232	0	0
88080384	0	0
90177536	0	0
92274688	0	0
94371840	0	0
96468992	0	0
98566144	0	0
100663296	0	0
102760448	0	0
104857600	0	0
106954752	0	0
109051904	0	0
111149056	0	0
113246208	0	0
115343360	0	0
117440512	0	0
119537664	0	0
121634816	0	0
123731968	0	0
125829120	0	0
127926272	0	0
130023424	0	0
132120576	0	0
134217728	0	0
138412032	0	0
142606336	0	0
146800640	0	0
150994944	0	0
155189248	0	0
159383552	0	0
163577856	0	0
167772160	0	0
171966464	0	0
176160768	0	0
180355072	0	0
184549376	0	0
188743680	0	0
192937984	0	0
197132288	0	0
201326592	0	0
205520896	0	0
209715200	0	0
213909504	0	0
218103808	0	0
222298112	0	0
226492416	0	0
230686720	0	0
234881024	0	0
239075328	0	0
243269632	0	0
247463936	0	0
251658240	0	0
255852544	0	0
260046848	0	0
264241152	0	0
268435456	0	0
276824064	0	0
285212672	0	0
293601280	0	0
301989888	0	0
310378496	0	0
318767104	0	0
327155712	0	0
335544320	0	0
343932928	0	0
352321536	0	0
360710144	0	0
369098752	0	0
377487360	0	0
385875968	0	0
394264576	0	0
402653184	0	0
411041792	0	0
419430400	0	0
427819008	0	0
436207616	0	0
444596224	0	0
452984832	0	0
461373440	0	0
469762048	0	0
478150656	0	0
486539264	0	0
494927872	0	0
503316480	0	0
511705088	0	0
520093696	0	0
528482304	0	0
536870912	0	0
553648128	0	0
570425344	0	0
587202560	0	0
603979776	0	0
620756992	0	0
637534208	0	0
654311424	0	0
671088640	0	0
687865856	0	0
704643072	0	0
721420288	0	0
738197504	0	0
754974720	0	0
771751936	0	0
788529152	0	0
805306368	0	0
822083584	0	0
838860800	0	0
855638016	0	0
872415232	0	0
889192448	0	0
905969664	0	0
922746880	0	0
939524096	0	0
956301312	0	0
973078528	0	0
989855744	0	0
1006632960	0	0
1023410176	0	0
1040187392	0	0
1056964608	0	0
1073741824	0	0
1107296256	0	0
1140850688	0	0
1174405120	0	0
1207959552	0	0
1241513984	0	0
1275068416	0	0
1308622848	0	0
1342177280	0	0
1375731712	0	0
1409286144	0	0
1442840576	0	0
1476395008	0	0
1509949440	0	0
1543503872	0	0
1577058304	0	0
1610612736	0	0
1644167168	0	0
1677721600	0	0
1711276032	0	0
1744830464	0	0
1778384896	0	0
1811939328	0	0
1845493760	0	0
1879048192	0	0
1912602624	0	0
1946157056	0	0
1979711488	0	0
2013265920	0	0
2046820352	0	0
2080374784	0	0
2113929216	0	0
2147483648	0	0
2214592512	0	0
2281701376	0	0
2348810240	0	0
2415919104	0	0
2483027968	0	0
2550136832	0	0
2617245696	0	0
2684354560	0	0
2751463424	0	0
2818572288	0	0
2885681152	0	0
2952790016	0	0
3019898880	0	0
3087007744	0	0
3154116608	0	0
3221225472	0	0
3288334336	0	0
3355443200	0	0
3422552064	0	0
3489660928	0	0
3556769792	0	0
3623878656	0	0
3690987520	0	0
3758096384	0	0
3825205248	0	0
3892314112	0	0
3959422976	0	0
4026531840	0	0
4093640704	0	0
4160749568	0	0
4227858432	0	0
~~~~~~~~~~Reuse Distance Profiler output end~~~~~~~~~~


DRAM Statistics
 CHANNEL 0
 RQ ROW_BUFFER_HIT:      88659  ROW_BUFFER_MISS:   17469509
 DBUS AVG_CONGESTED_CYCLE:    3.98361
 WQ ROW_BUFFER_HIT:     646276  ROW_BUFFER_MISS:    7664681  FULL:          0


CPU 0 Branch Prediction Accuracy: 94.9715% MPKI: 0.928899 Average ROB Occupancy at Mispredict: 130.134
Branch type MPKI
BRANCH_DIRECT_JUMP: 5e-05
BRANCH_INDIRECT: 1.33333e-06
BRANCH_CONDITIONAL: 0.928693
BRANCH_DIRECT_CALL: 8e-05
BRANCH_INDIRECT_CALL: 0
BRANCH_RETURN: 7.46667e-05

