
*** ChampSim Multicore Out-of-Order Simulator ***

Warmup Instructions: 50000000
Simulation Instructions: 1500000000
Number of CPUs: 1
Off-chip DRAM Size: 4 GiB Channels: 1 Width: 64-bit Data Rate: 3200 MT/s

VirtualMemory physical capacity: 8588881920 num_ppages: 2096895
VirtualMemory page size: 4096 log2_page_size: 12

CPU 0 runs traces/473.astar-42B.champsimtrace.xz
CPU 0 Bimodal branch predictor
Basic BTB sets: 1024 ways: 8 indirect buffer size: 4096 RAS size: 64
Initializing LRU.
Initializing LRU.
Initializing LRU.
Initializing LRU.
Initializing rdLRU.
Initializing LRU.
Initializing LRU.
Heartbeat CPU 0 instructions: 2000000 cycles: 588237 heartbeat IPC: 3.39999 cumulative IPC: 3.39999 (Simulation time: 0 hr 1 min 4 sec) 
Heartbeat CPU 0 instructions: 4000004 cycles: 1173495 heartbeat IPC: 3.4173 cumulative IPC: 3.40862 (Simulation time: 0 hr 2 min 7 sec) 
Heartbeat CPU 0 instructions: 6000001 cycles: 1758750 heartbeat IPC: 3.41731 cumulative IPC: 3.41151 (Simulation time: 0 hr 3 min 14 sec) 
Heartbeat CPU 0 instructions: 8000003 cycles: 2339766 heartbeat IPC: 3.44225 cumulative IPC: 3.41915 (Simulation time: 0 hr 4 min 18 sec) 
Heartbeat CPU 0 instructions: 10000004 cycles: 2926867 heartbeat IPC: 3.40657 cumulative IPC: 3.41662 (Simulation time: 0 hr 5 min 19 sec) 
Heartbeat CPU 0 instructions: 12000000 cycles: 3507363 heartbeat IPC: 3.44532 cumulative IPC: 3.42137 (Simulation time: 0 hr 6 min 15 sec) 
Heartbeat CPU 0 instructions: 14000002 cycles: 4082550 heartbeat IPC: 3.47713 cumulative IPC: 3.42923 (Simulation time: 0 hr 7 min 20 sec) 
Heartbeat CPU 0 instructions: 16000003 cycles: 4653801 heartbeat IPC: 3.50109 cumulative IPC: 3.43805 (Simulation time: 0 hr 8 min 28 sec) 
Heartbeat CPU 0 instructions: 18000000 cycles: 5220585 heartbeat IPC: 3.52868 cumulative IPC: 3.44789 (Simulation time: 0 hr 9 min 31 sec) 
Heartbeat CPU 0 instructions: 20000001 cycles: 5777831 heartbeat IPC: 3.58908 cumulative IPC: 3.46151 (Simulation time: 0 hr 10 min 37 sec) 
Heartbeat CPU 0 instructions: 22000002 cycles: 6343785 heartbeat IPC: 3.53386 cumulative IPC: 3.46796 (Simulation time: 0 hr 11 min 42 sec) 
Heartbeat CPU 0 instructions: 24000002 cycles: 6913288 heartbeat IPC: 3.51183 cumulative IPC: 3.47158 (Simulation time: 0 hr 12 min 47 sec) 
Heartbeat CPU 0 instructions: 26000001 cycles: 7492370 heartbeat IPC: 3.45374 cumulative IPC: 3.4702 (Simulation time: 0 hr 13 min 50 sec) 
Heartbeat CPU 0 instructions: 28000004 cycles: 8072346 heartbeat IPC: 3.44842 cumulative IPC: 3.46863 (Simulation time: 0 hr 14 min 54 sec) 
Heartbeat CPU 0 instructions: 30000002 cycles: 8657914 heartbeat IPC: 3.41548 cumulative IPC: 3.46504 (Simulation time: 0 hr 15 min 57 sec) 
Heartbeat CPU 0 instructions: 32000003 cycles: 9233540 heartbeat IPC: 3.47448 cumulative IPC: 3.46563 (Simulation time: 0 hr 16 min 58 sec) 
Heartbeat CPU 0 instructions: 34000002 cycles: 9810241 heartbeat IPC: 3.468 cumulative IPC: 3.46577 (Simulation time: 0 hr 17 min 58 sec) 
Heartbeat CPU 0 instructions: 36000001 cycles: 10396564 heartbeat IPC: 3.41109 cumulative IPC: 3.46268 (Simulation time: 0 hr 18 min 58 sec) 
Heartbeat CPU 0 instructions: 38000004 cycles: 10982756 heartbeat IPC: 3.41186 cumulative IPC: 3.45997 (Simulation time: 0 hr 19 min 59 sec) 
Heartbeat CPU 0 instructions: 40000001 cycles: 11563744 heartbeat IPC: 3.44241 cumulative IPC: 3.45909 (Simulation time: 0 hr 20 min 58 sec) 
Heartbeat CPU 0 instructions: 42000003 cycles: 12141245 heartbeat IPC: 3.4632 cumulative IPC: 3.45928 (Simulation time: 0 hr 21 min 56 sec) 
Heartbeat CPU 0 instructions: 44000004 cycles: 12712569 heartbeat IPC: 3.50064 cumulative IPC: 3.46114 (Simulation time: 0 hr 23 min 1 sec) 
Heartbeat CPU 0 instructions: 46000001 cycles: 13290297 heartbeat IPC: 3.46183 cumulative IPC: 3.46117 (Simulation time: 0 hr 24 min 3 sec) 
Heartbeat CPU 0 instructions: 48000001 cycles: 13875979 heartbeat IPC: 3.41482 cumulative IPC: 3.45922 (Simulation time: 0 hr 25 min 5 sec) 
Heartbeat CPU 0 instructions: 50000001 cycles: 14460589 heartbeat IPC: 3.42108 cumulative IPC: 3.45767 (Simulation time: 0 hr 26 min 3 sec) 

Warmup complete CPU 0 instructions: 50000001 cycles: 14460589 (Simulation time: 0 hr 26 min 3 sec) 

Heartbeat CPU 0 instructions: 52000000 cycles: 20311440 heartbeat IPC: 0.34183 cumulative IPC: 0.34183 (Simulation time: 0 hr 27 min 18 sec) 

Region of Interest Statistics
cpu0_DTLB TOTAL     ACCESS:     501932  HIT:     449464  MISS:      52468
cpu0_DTLB LOAD      ACCESS:     447096  HIT:     400306  MISS:      46790
cpu0_DTLB RFO       ACCESS:      54836  HIT:      49158  MISS:       5678
cpu0_DTLB PREFETCH  ACCESS:          0  HIT:          0  MISS:          0
cpu0_DTLB WRITEBACK ACCESS:          0  HIT:          0  MISS:          0
cpu0_ITLB TOTAL     ACCESS:     258749  HIT:     258749  MISS:          0
cpu0_ITLB LOAD      ACCESS:     258749  HIT:     258749  MISS:          0
cpu0_ITLB RFO       ACCESS:          0  HIT:          0  MISS:          0
cpu0_ITLB PREFETCH  ACCESS:          0  HIT:          0  MISS:          0
cpu0_ITLB WRITEBACK ACCESS:          0  HIT:          0  MISS:          0
cpu0_L1I TOTAL     ACCESS:          1  HIT:          1  MISS:          0
cpu0_L1I LOAD      ACCESS:          1  HIT:          1  MISS:          0
cpu0_L1I RFO       ACCESS:          0  HIT:          0  MISS:          0
cpu0_L1I PREFETCH  ACCESS:          0  HIT:          0  MISS:          0
cpu0_L1I WRITEBACK ACCESS:          0  HIT:          0  MISS:          0
cpu0_STLB TOTAL     ACCESS:      52468  HIT:      52125  MISS:        343
cpu0_STLB LOAD      ACCESS:      46790  HIT:      46487  MISS:        303
cpu0_STLB RFO       ACCESS:       5678  HIT:       5638  MISS:         40
cpu0_STLB PREFETCH  ACCESS:          0  HIT:          0  MISS:          0
cpu0_STLB WRITEBACK ACCESS:          0  HIT:          0  MISS:          0
cpu0_L1D TOTAL     ACCESS:     494813  HIT:     434784  MISS:      60029
cpu0_L1D LOAD      ACCESS:     409196  HIT:     349548  MISS:      59648
cpu0_L1D RFO       ACCESS:      85274  HIT:      84931  MISS:        343
cpu0_L1D PREFETCH  ACCESS:          0  HIT:          0  MISS:          0
cpu0_L1D WRITEBACK ACCESS:          0  HIT:          0  MISS:          0
cpu0_L2C TOTAL     ACCESS:      79571  HIT:      63539  MISS:      16032
cpu0_L2C LOAD      ACCESS:      59644  HIT:      43639  MISS:      16005
cpu0_L2C RFO       ACCESS:        343  HIT:        324  MISS:         19
cpu0_L2C PREFETCH  ACCESS:          0  HIT:          0  MISS:          0
cpu0_L2C WRITEBACK ACCESS:      19546  HIT:      19541  MISS:          5
LLC TOTAL     ACCESS:      22614  HIT:       2785  MISS:      19829
LLC LOAD      ACCESS:      16004  HIT:       2642  MISS:      13362
LLC RFO       ACCESS:         19  HIT:          0  MISS:         19
LLC PREFETCH  ACCESS:          0  HIT:          0  MISS:          0
LLC WRITEBACK ACCESS:       6588  HIT:        143  MISS:       6445
Heartbeat CPU 0 instructions: 54000002 cycles: 27218698 heartbeat IPC: 0.289551 cumulative IPC: 0.313526 (Simulation time: 0 hr 28 min 44 sec) 

Region of Interest Statistics
cpu0_DTLB TOTAL     ACCESS:    1001622  HIT:     899399  MISS:     102223
cpu0_DTLB LOAD      ACCESS:     892199  HIT:     800524  MISS:      91675
cpu0_DTLB RFO       ACCESS:     109423  HIT:      98875  MISS:      10548
cpu0_DTLB PREFETCH  ACCESS:          0  HIT:          0  MISS:          0
cpu0_DTLB WRITEBACK ACCESS:          0  HIT:          0  MISS:          0
cpu0_ITLB TOTAL     ACCESS:     517337  HIT:     517337  MISS:          0
cpu0_ITLB LOAD      ACCESS:     517337  HIT:     517337  MISS:          0
cpu0_ITLB RFO       ACCESS:          0  HIT:          0  MISS:          0
cpu0_ITLB PREFETCH  ACCESS:          0  HIT:          0  MISS:          0
cpu0_ITLB WRITEBACK ACCESS:          0  HIT:          0  MISS:          0
cpu0_L1I TOTAL     ACCESS:          7  HIT:          7  MISS:          0
cpu0_L1I LOAD      ACCESS:          7  HIT:          7  MISS:          0
cpu0_L1I RFO       ACCESS:          0  HIT:          0  MISS:          0
cpu0_L1I PREFETCH  ACCESS:          0  HIT:          0  MISS:          0
cpu0_L1I WRITEBACK ACCESS:          0  HIT:          0  MISS:          0
cpu0_STLB TOTAL     ACCESS:     102223  HIT:     101620  MISS:        603
cpu0_STLB LOAD      ACCESS:      91675  HIT:      91115  MISS:        560
cpu0_STLB RFO       ACCESS:      10548  HIT:      10505  MISS:         43
cpu0_STLB PREFETCH  ACCESS:          0  HIT:          0  MISS:          0
cpu0_STLB WRITEBACK ACCESS:          0  HIT:          0  MISS:          0
cpu0_L1D TOTAL     ACCESS:     987207  HIT:     869956  MISS:     117251
cpu0_L1D LOAD      ACCESS:     816128  HIT:     699591  MISS:     116537
cpu0_L1D RFO       ACCESS:     170476  HIT:     169800  MISS:        676
cpu0_L1D PREFETCH  ACCESS:          0  HIT:          0  MISS:          0
cpu0_L1D WRITEBACK ACCESS:          0  HIT:          0  MISS:          0
cpu0_L2C TOTAL     ACCESS:     155791  HIT:     117667  MISS:      38124
cpu0_L2C LOAD      ACCESS:     116528  HIT:      78451  MISS:      38077
cpu0_L2C RFO       ACCESS:        676  HIT:        639  MISS:         37
cpu0_L2C PREFETCH  ACCESS:          0  HIT:          0  MISS:          0
cpu0_L2C WRITEBACK ACCESS:      38549  HIT:      38542  MISS:          7
LLC TOTAL     ACCESS:      53169  HIT:       4740  MISS:      48429
LLC LOAD      ACCESS:      38076  HIT:       4535  MISS:      33541
LLC RFO       ACCESS:         37  HIT:          4  MISS:         33
LLC PREFETCH  ACCESS:          0  HIT:          0  MISS:          0
LLC WRITEBACK ACCESS:      15053  HIT:        201  MISS:      14852
Heartbeat CPU 0 instructions: 56000002 cycles: 31880909 heartbeat IPC: 0.428981 cumulative IPC: 0.344425 (Simulation time: 0 hr 29 min 54 sec) 

Region of Interest Statistics
cpu0_DTLB TOTAL     ACCESS:    1446713  HIT:    1308343  MISS:     138370
cpu0_DTLB LOAD      ACCESS:    1275021  HIT:    1148571  MISS:     126450
cpu0_DTLB RFO       ACCESS:     171692  HIT:     159772  MISS:      11920
cpu0_DTLB PREFETCH  ACCESS:          0  HIT:          0  MISS:          0
cpu0_DTLB WRITEBACK ACCESS:          0  HIT:          0  MISS:          0
cpu0_ITLB TOTAL     ACCESS:     762494  HIT:     762486  MISS:          8
cpu0_ITLB LOAD      ACCESS:     762494  HIT:     762486  MISS:          8
cpu0_ITLB RFO       ACCESS:          0  HIT:          0  MISS:          0
cpu0_ITLB PREFETCH  ACCESS:          0  HIT:          0  MISS:          0
cpu0_ITLB WRITEBACK ACCESS:          0  HIT:          0  MISS:          0
cpu0_L1I TOTAL     ACCESS:        214  HIT:        126  MISS:         88
cpu0_L1I LOAD      ACCESS:        214  HIT:        126  MISS:         88
cpu0_L1I RFO       ACCESS:          0  HIT:          0  MISS:          0
cpu0_L1I PREFETCH  ACCESS:          0  HIT:          0  MISS:          0
cpu0_L1I WRITEBACK ACCESS:          0  HIT:          0  MISS:          0
cpu0_STLB TOTAL     ACCESS:     138379  HIT:     135725  MISS:       2654
cpu0_STLB LOAD      ACCESS:     126459  HIT:     123890  MISS:       2569
cpu0_STLB RFO       ACCESS:      11920  HIT:      11835  MISS:         85
cpu0_STLB PREFETCH  ACCESS:          0  HIT:          0  MISS:          0
cpu0_STLB WRITEBACK ACCESS:          0  HIT:          0  MISS:          0
cpu0_L1D TOTAL     ACCESS:    1434374  HIT:    1271245  MISS:     163129
cpu0_L1D LOAD      ACCESS:    1172731  HIT:    1011041  MISS:     161690
cpu0_L1D RFO       ACCESS:     259073  HIT:     257733  MISS:       1340
cpu0_L1D PREFETCH  ACCESS:          0  HIT:          0  MISS:          0
cpu0_L1D WRITEBACK ACCESS:          0  HIT:          0  MISS:          0
cpu0_L2C TOTAL     ACCESS:     215620  HIT:     167093  MISS:      48527
cpu0_L2C LOAD      ACCESS:     161766  HIT:     113555  MISS:      48211
cpu0_L2C RFO       ACCESS:       1340  HIT:       1058  MISS:        282
cpu0_L2C PREFETCH  ACCESS:          0  HIT:          0  MISS:          0
cpu0_L2C WRITEBACK ACCESS:      52415  HIT:      52402  MISS:         13
LLC TOTAL     ACCESS:      68295  HIT:       6025  MISS:      62270
LLC LOAD      ACCESS:      48210  HIT:       5682  MISS:      42528
LLC RFO       ACCESS:        282  HIT:         13  MISS:        269
LLC PREFETCH  ACCESS:          0  HIT:          0  MISS:          0
LLC WRITEBACK ACCESS:      19782  HIT:        320  MISS:      19462
Heartbeat CPU 0 instructions: 58000003 cycles: 36798171 heartbeat IPC: 0.406731 cumulative IPC: 0.358141 (Simulation time: 0 hr 30 min 57 sec) 

Region of Interest Statistics
cpu0_DTLB TOTAL     ACCESS:    1958783  HIT:    1784083  MISS:     174700
cpu0_DTLB LOAD      ACCESS:    1730781  HIT:    1571459  MISS:     159322
cpu0_DTLB RFO       ACCESS:     228002  HIT:     212624  MISS:      15378
cpu0_DTLB PREFETCH  ACCESS:          0  HIT:          0  MISS:          0
cpu0_DTLB WRITEBACK ACCESS:          0  HIT:          0  MISS:          0
cpu0_ITLB TOTAL     ACCESS:    1022134  HIT:    1022126  MISS:          8
cpu0_ITLB LOAD      ACCESS:    1022134  HIT:    1022126  MISS:          8
cpu0_ITLB RFO       ACCESS:          0  HIT:          0  MISS:          0
cpu0_ITLB PREFETCH  ACCESS:          0  HIT:          0  MISS:          0
cpu0_ITLB WRITEBACK ACCESS:          0  HIT:          0  MISS:          0
cpu0_L1I TOTAL     ACCESS:        763  HIT:        658  MISS:        105
cpu0_L1I LOAD      ACCESS:        763  HIT:        658  MISS:        105
cpu0_L1I RFO       ACCESS:          0  HIT:          0  MISS:          0
cpu0_L1I PREFETCH  ACCESS:          0  HIT:          0  MISS:          0
cpu0_L1I WRITEBACK ACCESS:          0  HIT:          0  MISS:          0
cpu0_STLB TOTAL     ACCESS:     174708  HIT:     171538  MISS:       3170
cpu0_STLB LOAD      ACCESS:     159330  HIT:     156285  MISS:       3045
cpu0_STLB RFO       ACCESS:      15378  HIT:      15253  MISS:        125
cpu0_STLB PREFETCH  ACCESS:          0  HIT:          0  MISS:          0
cpu0_STLB WRITEBACK ACCESS:          0  HIT:          0  MISS:          0
cpu0_L1D TOTAL     ACCESS:    1937079  HIT:    1728494  MISS:     208585
cpu0_L1D LOAD      ACCESS:    1589175  HIT:    1382179  MISS:     206996
cpu0_L1D RFO       ACCESS:     344863  HIT:     343378  MISS:       1485
cpu0_L1D PREFETCH  ACCESS:          0  HIT:          0  MISS:          0
cpu0_L1D WRITEBACK ACCESS:          0  HIT:          0  MISS:          0
cpu0_L2C TOTAL     ACCESS:     275322  HIT:     217818  MISS:      57504
cpu0_L2C LOAD      ACCESS:     207080  HIT:     149930  MISS:      57150
cpu0_L2C RFO       ACCESS:       1485  HIT:       1171  MISS:        314
cpu0_L2C PREFETCH  ACCESS:          0  HIT:          0  MISS:          0
cpu0_L2C WRITEBACK ACCESS:      66653  HIT:      66638  MISS:         15
LLC TOTAL     ACCESS:      80425  HIT:       7315  MISS:      73110
LLC LOAD      ACCESS:      57146  HIT:       6784  MISS:      50362
LLC RFO       ACCESS:        314  HIT:         21  MISS:        293
LLC PREFETCH  ACCESS:          0  HIT:          0  MISS:          0
LLC WRITEBACK ACCESS:      22940  HIT:        500  MISS:      22440
Heartbeat CPU 0 instructions: 60000001 cycles: 42727094 heartbeat IPC: 0.337329 cumulative IPC: 0.353776 (Simulation time: 0 hr 32 min 14 sec) 

Region of Interest Statistics
cpu0_DTLB TOTAL     ACCESS:    2467013  HIT:    2246898  MISS:     220115
cpu0_DTLB LOAD      ACCESS:    2183422  HIT:    1984623  MISS:     198799
cpu0_DTLB RFO       ACCESS:     283591  HIT:     262275  MISS:      21316
cpu0_DTLB PREFETCH  ACCESS:          0  HIT:          0  MISS:          0
cpu0_DTLB WRITEBACK ACCESS:          0  HIT:          0  MISS:          0
cpu0_ITLB TOTAL     ACCESS:    1282127  HIT:    1282119  MISS:          8
cpu0_ITLB LOAD      ACCESS:    1282127  HIT:    1282119  MISS:          8
cpu0_ITLB RFO       ACCESS:          0  HIT:          0  MISS:          0
cpu0_ITLB PREFETCH  ACCESS:          0  HIT:          0  MISS:          0
cpu0_ITLB WRITEBACK ACCESS:          0  HIT:          0  MISS:          0
cpu0_L1I TOTAL     ACCESS:        795  HIT:        690  MISS:        105
cpu0_L1I LOAD      ACCESS:        795  HIT:        690  MISS:        105
cpu0_L1I RFO       ACCESS:          0  HIT:          0  MISS:          0
cpu0_L1I PREFETCH  ACCESS:          0  HIT:          0  MISS:          0
cpu0_L1I WRITEBACK ACCESS:          0  HIT:          0  MISS:          0
cpu0_STLB TOTAL     ACCESS:     220123  HIT:     216614  MISS:       3509
cpu0_STLB LOAD      ACCESS:     198807  HIT:     195436  MISS:       3371
cpu0_STLB RFO       ACCESS:      21316  HIT:      21178  MISS:        138
cpu0_STLB PREFETCH  ACCESS:          0  HIT:          0  MISS:          0
cpu0_STLB WRITEBACK ACCESS:          0  HIT:          0  MISS:          0
cpu0_L1D TOTAL     ACCESS:    2437934  HIT:    2176585  MISS:     261349
cpu0_L1D LOAD      ACCESS:    2004705  HIT:    1745190  MISS:     259515
cpu0_L1D RFO       ACCESS:     429890  HIT:     428160  MISS:       1730
cpu0_L1D PREFETCH  ACCESS:          0  HIT:          0  MISS:          0
cpu0_L1D WRITEBACK ACCESS:          0  HIT:          0  MISS:          0
cpu0_L2C TOTAL     ACCESS:     345152  HIT:     271241  MISS:      73911
cpu0_L2C LOAD      ACCESS:     259596  HIT:     186095  MISS:      73501
cpu0_L2C RFO       ACCESS:       1730  HIT:       1360  MISS:        370
cpu0_L2C PREFETCH  ACCESS:          0  HIT:          0  MISS:          0
cpu0_L2C WRITEBACK ACCESS:      83722  HIT:      83707  MISS:         15
LLC TOTAL     ACCESS:     101858  HIT:       9385  MISS:      92473
LLC LOAD      ACCESS:      73496  HIT:       8644  MISS:      64852
LLC RFO       ACCESS:        370  HIT:         26  MISS:        344
LLC PREFETCH  ACCESS:          0  HIT:          0  MISS:          0
LLC WRITEBACK ACCESS:      27967  HIT:        705  MISS:      27262
Heartbeat CPU 0 instructions: 62000003 cycles: 48227354 heartbeat IPC: 0.36362 cumulative IPC: 0.355379 (Simulation time: 0 hr 33 min 28 sec) 

Region of Interest Statistics
cpu0_DTLB TOTAL     ACCESS:    2965154  HIT:    2701416  MISS:     263738
cpu0_DTLB LOAD      ACCESS:    2626313  HIT:    2388273  MISS:     238040
cpu0_DTLB RFO       ACCESS:     338841  HIT:     313143  MISS:      25698
cpu0_DTLB PREFETCH  ACCESS:          0  HIT:          0  MISS:          0
cpu0_DTLB WRITEBACK ACCESS:          0  HIT:          0  MISS:          0
cpu0_ITLB TOTAL     ACCESS:    1539560  HIT:    1539552  MISS:          8
cpu0_ITLB LOAD      ACCESS:    1539560  HIT:    1539552  MISS:          8
cpu0_ITLB RFO       ACCESS:          0  HIT:          0  MISS:          0
cpu0_ITLB PREFETCH  ACCESS:          0  HIT:          0  MISS:          0
cpu0_ITLB WRITEBACK ACCESS:          0  HIT:          0  MISS:          0
cpu0_L1I TOTAL     ACCESS:        837  HIT:        732  MISS:        105
cpu0_L1I LOAD      ACCESS:        837  HIT:        732  MISS:        105
cpu0_L1I RFO       ACCESS:          0  HIT:          0  MISS:          0
cpu0_L1I PREFETCH  ACCESS:          0  HIT:          0  MISS:          0
cpu0_L1I WRITEBACK ACCESS:          0  HIT:          0  MISS:          0
cpu0_STLB TOTAL     ACCESS:     263746  HIT:     260054  MISS:       3692
cpu0_STLB LOAD      ACCESS:     238048  HIT:     234506  MISS:       3542
cpu0_STLB RFO       ACCESS:      25698  HIT:      25548  MISS:        150
cpu0_STLB PREFETCH  ACCESS:          0  HIT:          0  MISS:          0
cpu0_STLB WRITEBACK ACCESS:          0  HIT:          0  MISS:          0
cpu0_L1D TOTAL     ACCESS:    2929402  HIT:    2617202  MISS:     312200
cpu0_L1D LOAD      ACCESS:    2410394  HIT:    2100517  MISS:     309877
cpu0_L1D RFO       ACCESS:     515506  HIT:     513287  MISS:       2219
cpu0_L1D PREFETCH  ACCESS:          0  HIT:          0  MISS:          0
cpu0_L1D WRITEBACK ACCESS:          0  HIT:          0  MISS:          0
cpu0_L2C TOTAL     ACCESS:     413024  HIT:     324383  MISS:      88641
cpu0_L2C LOAD      ACCESS:     309956  HIT:     221782  MISS:      88174
cpu0_L2C RFO       ACCESS:       2217  HIT:       1791  MISS:        426
cpu0_L2C PREFETCH  ACCESS:          0  HIT:          0  MISS:          0
cpu0_L2C WRITEBACK ACCESS:     100747  HIT:     100731  MISS:         16
LLC TOTAL     ACCESS:     122644  HIT:      11860  MISS:     110784
LLC LOAD      ACCESS:      88168  HIT:      10936  MISS:      77232
LLC RFO       ACCESS:        426  HIT:         37  MISS:        389
LLC PREFETCH  ACCESS:          0  HIT:          0  MISS:          0
LLC WRITEBACK ACCESS:      34025  HIT:        877  MISS:      33148
Heartbeat CPU 0 instructions: 64000000 cycles: 53614849 heartbeat IPC: 0.371229 cumulative IPC: 0.35756 (Simulation time: 0 hr 34 min 38 sec) 

Region of Interest Statistics
cpu0_DTLB TOTAL     ACCESS:    3468805  HIT:    3160141  MISS:     308664
cpu0_DTLB LOAD      ACCESS:    3074635  HIT:    2796995  MISS:     277640
cpu0_DTLB RFO       ACCESS:     394170  HIT:     363146  MISS:      31024
cpu0_DTLB PREFETCH  ACCESS:          0  HIT:          0  MISS:          0
cpu0_DTLB WRITEBACK ACCESS:          0  HIT:          0  MISS:          0
cpu0_ITLB TOTAL     ACCESS:    1798433  HIT:    1798425  MISS:          8
cpu0_ITLB LOAD      ACCESS:    1798433  HIT:    1798425  MISS:          8
cpu0_ITLB RFO       ACCESS:          0  HIT:          0  MISS:          0
cpu0_ITLB PREFETCH  ACCESS:          0  HIT:          0  MISS:          0
cpu0_ITLB WRITEBACK ACCESS:          0  HIT:          0  MISS:          0
cpu0_L1I TOTAL     ACCESS:        849  HIT:        744  MISS:        105
cpu0_L1I LOAD      ACCESS:        849  HIT:        744  MISS:        105
cpu0_L1I RFO       ACCESS:          0  HIT:          0  MISS:          0
cpu0_L1I PREFETCH  ACCESS:          0  HIT:          0  MISS:          0
cpu0_L1I WRITEBACK ACCESS:          0  HIT:          0  MISS:          0
cpu0_STLB TOTAL     ACCESS:     308672  HIT:     304684  MISS:       3988
cpu0_STLB LOAD      ACCESS:     277648  HIT:     273836  MISS:       3812
cpu0_STLB RFO       ACCESS:      31024  HIT:      30848  MISS:        176
cpu0_STLB PREFETCH  ACCESS:          0  HIT:          0  MISS:          0
cpu0_STLB WRITEBACK ACCESS:          0  HIT:          0  MISS:          0
cpu0_L1D TOTAL     ACCESS:    3425944  HIT:    3060477  MISS:     365467
cpu0_L1D LOAD      ACCESS:    2821456  HIT:    2458993  MISS:     362463
cpu0_L1D RFO       ACCESS:     600749  HIT:     597906  MISS:       2843
cpu0_L1D PREFETCH  ACCESS:          0  HIT:          0  MISS:          0
cpu0_L1D WRITEBACK ACCESS:          0  HIT:          0  MISS:          0
cpu0_L2C TOTAL     ACCESS:     483785  HIT:     382112  MISS:     101673
cpu0_L2C LOAD      ACCESS:     362537  HIT:     261402  MISS:     101135
cpu0_L2C RFO       ACCESS:       2841  HIT:       2346  MISS:        495
cpu0_L2C PREFETCH  ACCESS:          0  HIT:          0  MISS:          0
cpu0_L2C WRITEBACK ACCESS:     118246  HIT:     118229  MISS:         17
LLC TOTAL     ACCESS:     141273  HIT:      14537  MISS:     126736
LLC LOAD      ACCESS:     101124  HIT:      13234  MISS:      87890
LLC RFO       ACCESS:        495  HIT:         46  MISS:        449
LLC PREFETCH  ACCESS:          0  HIT:          0  MISS:          0
LLC WRITEBACK ACCESS:      39628  HIT:       1247  MISS:      38381
Heartbeat CPU 0 instructions: 66000003 cycles: 59758914 heartbeat IPC: 0.325518 cumulative IPC: 0.353214 (Simulation time: 0 hr 35 min 56 sec) 

Region of Interest Statistics
cpu0_DTLB TOTAL     ACCESS:    3968366  HIT:    3613069  MISS:     355297
cpu0_DTLB LOAD      ACCESS:    3519241  HIT:    3200229  MISS:     319012
cpu0_DTLB RFO       ACCESS:     449125  HIT:     412840  MISS:      36285
cpu0_DTLB PREFETCH  ACCESS:          0  HIT:          0  MISS:          0
cpu0_DTLB WRITEBACK ACCESS:          0  HIT:          0  MISS:          0
cpu0_ITLB TOTAL     ACCESS:    2055425  HIT:    2055417  MISS:          8
cpu0_ITLB LOAD      ACCESS:    2055425  HIT:    2055417  MISS:          8
cpu0_ITLB RFO       ACCESS:          0  HIT:          0  MISS:          0
cpu0_ITLB PREFETCH  ACCESS:          0  HIT:          0  MISS:          0
cpu0_ITLB WRITEBACK ACCESS:          0  HIT:          0  MISS:          0
cpu0_L1I TOTAL     ACCESS:       1073  HIT:        968  MISS:        105
cpu0_L1I LOAD      ACCESS:       1073  HIT:        968  MISS:        105
cpu0_L1I RFO       ACCESS:          0  HIT:          0  MISS:          0
cpu0_L1I PREFETCH  ACCESS:          0  HIT:          0  MISS:          0
cpu0_L1I WRITEBACK ACCESS:          0  HIT:          0  MISS:          0
cpu0_STLB TOTAL     ACCESS:     355305  HIT:     348358  MISS:       6947
cpu0_STLB LOAD      ACCESS:     319020  HIT:     312691  MISS:       6329
cpu0_STLB RFO       ACCESS:      36285  HIT:      35667  MISS:        618
cpu0_STLB PREFETCH  ACCESS:          0  HIT:          0  MISS:          0
cpu0_STLB WRITEBACK ACCESS:          0  HIT:          0  MISS:          0
cpu0_L1D TOTAL     ACCESS:    3920371  HIT:    3499791  MISS:     420580
cpu0_L1D LOAD      ACCESS:    3227819  HIT:    2810982  MISS:     416837
cpu0_L1D RFO       ACCESS:     685976  HIT:     682395  MISS:       3581
cpu0_L1D PREFETCH  ACCESS:          0  HIT:          0  MISS:          0
cpu0_L1D WRITEBACK ACCESS:          0  HIT:          0  MISS:          0
cpu0_L2C TOTAL     ACCESS:     557434  HIT:     436918  MISS:     120516
cpu0_L2C LOAD      ACCESS:     416909  HIT:     297006  MISS:     119903
cpu0_L2C RFO       ACCESS:       3579  HIT:       3009  MISS:        570
cpu0_L2C PREFETCH  ACCESS:          0  HIT:          0  MISS:          0
cpu0_L2C WRITEBACK ACCESS:     136784  HIT:     136767  MISS:         17
LLC TOTAL     ACCESS:     167548  HIT:      17711  MISS:     149837
LLC LOAD      ACCESS:     119890  HIT:      16116  MISS:     103774
LLC RFO       ACCESS:        570  HIT:         52  MISS:        518
LLC PREFETCH  ACCESS:          0  HIT:          0  MISS:          0
LLC WRITEBACK ACCESS:      47062  HIT:       1533  MISS:      45529
Heartbeat CPU 0 instructions: 68000000 cycles: 65674072 heartbeat IPC: 0.338114 cumulative IPC: 0.35147 (Simulation time: 0 hr 37 min 9 sec) 

Region of Interest Statistics
cpu0_DTLB TOTAL     ACCESS:    4468525  HIT:    4069438  MISS:     399087
cpu0_DTLB LOAD      ACCESS:    3964016  HIT:    3606877  MISS:     357139
cpu0_DTLB RFO       ACCESS:     504509  HIT:     462561  MISS:      41948
cpu0_DTLB PREFETCH  ACCESS:          0  HIT:          0  MISS:          0
cpu0_DTLB WRITEBACK ACCESS:          0  HIT:          0  MISS:          0
cpu0_ITLB TOTAL     ACCESS:    2312145  HIT:    2312137  MISS:          8
cpu0_ITLB LOAD      ACCESS:    2312145  HIT:    2312137  MISS:          8
cpu0_ITLB RFO       ACCESS:          0  HIT:          0  MISS:          0
cpu0_ITLB PREFETCH  ACCESS:          0  HIT:          0  MISS:          0
cpu0_ITLB WRITEBACK ACCESS:          0  HIT:          0  MISS:          0
cpu0_L1I TOTAL     ACCESS:       1126  HIT:       1021  MISS:        105
cpu0_L1I LOAD      ACCESS:       1126  HIT:       1021  MISS:        105
cpu0_L1I RFO       ACCESS:          0  HIT:          0  MISS:          0
cpu0_L1I PREFETCH  ACCESS:          0  HIT:          0  MISS:          0
cpu0_L1I WRITEBACK ACCESS:          0  HIT:          0  MISS:          0
cpu0_STLB TOTAL     ACCESS:     399095  HIT:     389320  MISS:       9775
cpu0_STLB LOAD      ACCESS:     357147  HIT:     348402  MISS:       8745
cpu0_STLB RFO       ACCESS:      41948  HIT:      40918  MISS:       1030
cpu0_STLB PREFETCH  ACCESS:          0  HIT:          0  MISS:          0
cpu0_STLB WRITEBACK ACCESS:          0  HIT:          0  MISS:          0
cpu0_L1D TOTAL     ACCESS:    4413776  HIT:    3939581  MISS:     474195
cpu0_L1D LOAD      ACCESS:    3633283  HIT:    3163638  MISS:     469645
cpu0_L1D RFO       ACCESS:     771169  HIT:     766782  MISS:       4387
cpu0_L1D PREFETCH  ACCESS:          0  HIT:          0  MISS:          0
cpu0_L1D WRITEBACK ACCESS:          0  HIT:          0  MISS:          0
cpu0_L2C TOTAL     ACCESS:     629277  HIT:     491275  MISS:     138002
cpu0_L2C LOAD      ACCESS:     469717  HIT:     332385  MISS:     137332
cpu0_L2C RFO       ACCESS:       4385  HIT:       3760  MISS:        625
cpu0_L2C PREFETCH  ACCESS:          0  HIT:          0  MISS:          0
cpu0_L2C WRITEBACK ACCESS:     155012  HIT:     154993  MISS:         19
LLC TOTAL     ACCESS:     191960  HIT:      19997  MISS:     171963
LLC LOAD      ACCESS:     137316  HIT:      18189  MISS:     119127
LLC RFO       ACCESS:        625  HIT:         54  MISS:        571
LLC PREFETCH  ACCESS:          0  HIT:          0  MISS:          0
LLC WRITEBACK ACCESS:      53993  HIT:       1744  MISS:      52249
Heartbeat CPU 0 instructions: 70000000 cycles: 72547385 heartbeat IPC: 0.29098 cumulative IPC: 0.344312 (Simulation time: 0 hr 38 min 33 sec) 

Region of Interest Statistics
cpu0_DTLB TOTAL     ACCESS:    4969004  HIT:    4520174  MISS:     448830
cpu0_DTLB LOAD      ACCESS:    4409686  HIT:    4008767  MISS:     400919
cpu0_DTLB RFO       ACCESS:     559318  HIT:     511407  MISS:      47911
cpu0_DTLB PREFETCH  ACCESS:          0  HIT:          0  MISS:          0
cpu0_DTLB WRITEBACK ACCESS:          0  HIT:          0  MISS:          0
cpu0_ITLB TOTAL     ACCESS:    2569979  HIT:    2569971  MISS:          8
cpu0_ITLB LOAD      ACCESS:    2569979  HIT:    2569971  MISS:          8
cpu0_ITLB RFO       ACCESS:          0  HIT:          0  MISS:          0
cpu0_ITLB PREFETCH  ACCESS:          0  HIT:          0  MISS:          0
cpu0_ITLB WRITEBACK ACCESS:          0  HIT:          0  MISS:          0
cpu0_L1I TOTAL     ACCESS:       1154  HIT:       1049  MISS:        105
cpu0_L1I LOAD      ACCESS:       1154  HIT:       1049  MISS:        105
cpu0_L1I RFO       ACCESS:          0  HIT:          0  MISS:          0
cpu0_L1I PREFETCH  ACCESS:          0  HIT:          0  MISS:          0
cpu0_L1I WRITEBACK ACCESS:          0  HIT:          0  MISS:          0
cpu0_STLB TOTAL     ACCESS:     448838  HIT:     426478  MISS:      22360
cpu0_STLB LOAD      ACCESS:     400927  HIT:     381269  MISS:      19658
cpu0_STLB RFO       ACCESS:      47911  HIT:      45209  MISS:       2702
cpu0_STLB PREFETCH  ACCESS:          0  HIT:          0  MISS:          0
cpu0_STLB WRITEBACK ACCESS:          0  HIT:          0  MISS:          0
cpu0_L1D TOTAL     ACCESS:    4917645  HIT:    4383735  MISS:     533910
cpu0_L1D LOAD      ACCESS:    4040144  HIT:    3511626  MISS:     528518
cpu0_L1D RFO       ACCESS:     856301  HIT:     851152  MISS:       5149
cpu0_L1D PREFETCH  ACCESS:          0  HIT:          0  MISS:          0
cpu0_L1D WRITEBACK ACCESS:          0  HIT:          0  MISS:          0
cpu0_L2C TOTAL     ACCESS:     709267  HIT:     547617  MISS:     161650
cpu0_L2C LOAD      ACCESS:     528588  HIT:     367724  MISS:     160864
cpu0_L2C RFO       ACCESS:       5147  HIT:       4427  MISS:        720
cpu0_L2C PREFETCH  ACCESS:          0  HIT:          0  MISS:          0
cpu0_L2C WRITEBACK ACCESS:     175289  HIT:     175264  MISS:         25
LLC TOTAL     ACCESS:     223947  HIT:      22166  MISS:     201781
LLC LOAD      ACCESS:     160847  HIT:      20261  MISS:     140586
LLC RFO       ACCESS:        720  HIT:         62  MISS:        658
LLC PREFETCH  ACCESS:          0  HIT:          0  MISS:          0
LLC WRITEBACK ACCESS:      62339  HIT:       1833  MISS:      60506
Heartbeat CPU 0 instructions: 72000000 cycles: 79487777 heartbeat IPC: 0.288168 cumulative IPC: 0.33832 (Simulation time: 0 hr 39 min 58 sec) 

Region of Interest Statistics
cpu0_DTLB TOTAL     ACCESS:    5467216  HIT:    4968817  MISS:     498399
cpu0_DTLB LOAD      ACCESS:    4853569  HIT:    4407237  MISS:     446332
cpu0_DTLB RFO       ACCESS:     613647  HIT:     561580  MISS:      52067
cpu0_DTLB PREFETCH  ACCESS:          0  HIT:          0  MISS:          0
cpu0_DTLB WRITEBACK ACCESS:          0  HIT:          0  MISS:          0
cpu0_ITLB TOTAL     ACCESS:    2827855  HIT:    2827847  MISS:          8
cpu0_ITLB LOAD      ACCESS:    2827855  HIT:    2827847  MISS:          8
cpu0_ITLB RFO       ACCESS:          0  HIT:          0  MISS:          0
cpu0_ITLB PREFETCH  ACCESS:          0  HIT:          0  MISS:          0
cpu0_ITLB WRITEBACK ACCESS:          0  HIT:          0  MISS:          0
cpu0_L1I TOTAL     ACCESS:       1201  HIT:       1096  MISS:        105
cpu0_L1I LOAD      ACCESS:       1201  HIT:       1096  MISS:        105
cpu0_L1I RFO       ACCESS:          0  HIT:          0  MISS:          0
cpu0_L1I PREFETCH  ACCESS:          0  HIT:          0  MISS:          0
cpu0_L1I WRITEBACK ACCESS:          0  HIT:          0  MISS:          0
cpu0_STLB TOTAL     ACCESS:     498407  HIT:     448034  MISS:      50373
cpu0_STLB LOAD      ACCESS:     446340  HIT:     401857  MISS:      44483
cpu0_STLB RFO       ACCESS:      52067  HIT:      46177  MISS:       5890
cpu0_STLB PREFETCH  ACCESS:          0  HIT:          0  MISS:          0
cpu0_STLB WRITEBACK ACCESS:          0  HIT:          0  MISS:          0
cpu0_L1D TOTAL     ACCESS:    5435764  HIT:    4844087  MISS:     591677
cpu0_L1D LOAD      ACCESS:    4446967  HIT:    3861545  MISS:     585422
cpu0_L1D RFO       ACCESS:     941778  HIT:     935828  MISS:       5950
cpu0_L1D PREFETCH  ACCESS:          0  HIT:          0  MISS:          0
cpu0_L1D WRITEBACK ACCESS:          0  HIT:          0  MISS:          0
cpu0_L2C TOTAL     ACCESS:     786574  HIT:     601733  MISS:     184841
cpu0_L2C LOAD      ACCESS:     585490  HIT:     401596  MISS:     183894
cpu0_L2C RFO       ACCESS:       5948  HIT:       5086  MISS:        862
cpu0_L2C PREFETCH  ACCESS:          0  HIT:          0  MISS:          0
cpu0_L2C WRITEBACK ACCESS:     194831  HIT:     194806  MISS:         25
LLC TOTAL     ACCESS:     255394  HIT:      24669  MISS:     230725
LLC LOAD      ACCESS:     183874  HIT:      22600  MISS:     161274
LLC RFO       ACCESS:        862  HIT:         74  MISS:        788
LLC PREFETCH  ACCESS:          0  HIT:          0  MISS:          0
LLC WRITEBACK ACCESS:      70598  HIT:       1985  MISS:      68613
Heartbeat CPU 0 instructions: 74000001 cycles: 86006653 heartbeat IPC: 0.306801 cumulative IPC: 0.335448 (Simulation time: 0 hr 41 min 20 sec) 

Region of Interest Statistics
cpu0_DTLB TOTAL     ACCESS:    5967404  HIT:    5427154  MISS:     540250
cpu0_DTLB LOAD      ACCESS:    5299168  HIT:    4814301  MISS:     484867
cpu0_DTLB RFO       ACCESS:     668236  HIT:     612853  MISS:      55383
cpu0_DTLB PREFETCH  ACCESS:          0  HIT:          0  MISS:          0
cpu0_DTLB WRITEBACK ACCESS:          0  HIT:          0  MISS:          0
cpu0_ITLB TOTAL     ACCESS:    3085262  HIT:    3085254  MISS:          8
cpu0_ITLB LOAD      ACCESS:    3085262  HIT:    3085254  MISS:          8
cpu0_ITLB RFO       ACCESS:          0  HIT:          0  MISS:          0
cpu0_ITLB PREFETCH  ACCESS:          0  HIT:          0  MISS:          0
cpu0_ITLB WRITEBACK ACCESS:          0  HIT:          0  MISS:          0
cpu0_L1I TOTAL     ACCESS:       1433  HIT:       1328  MISS:        105
cpu0_L1I LOAD      ACCESS:       1433  HIT:       1328  MISS:        105
cpu0_L1I RFO       ACCESS:          0  HIT:          0  MISS:          0
cpu0_L1I PREFETCH  ACCESS:          0  HIT:          0  MISS:          0
cpu0_L1I WRITEBACK ACCESS:          0  HIT:          0  MISS:          0
cpu0_STLB TOTAL     ACCESS:     540258  HIT:     483938  MISS:      56320
cpu0_STLB LOAD      ACCESS:     484875  HIT:     434956  MISS:      49919
cpu0_STLB RFO       ACCESS:      55383  HIT:      48982  MISS:       6401
cpu0_STLB PREFETCH  ACCESS:          0  HIT:          0  MISS:          0
cpu0_STLB WRITEBACK ACCESS:          0  HIT:          0  MISS:          0
cpu0_L1D TOTAL     ACCESS:    5933336  HIT:    5289699  MISS:     643637
cpu0_L1D LOAD      ACCESS:    4853904  HIT:    4217368  MISS:     636536
cpu0_L1D RFO       ACCESS:    1026795  HIT:    1020008  MISS:       6787
cpu0_L1D PREFETCH  ACCESS:          0  HIT:          0  MISS:          0
cpu0_L1D WRITEBACK ACCESS:          0  HIT:          0  MISS:          0
cpu0_L2C TOTAL     ACCESS:     856081  HIT:     650546  MISS:     205535
cpu0_L2C LOAD      ACCESS:     636601  HIT:     432125  MISS:     204476
cpu0_L2C RFO       ACCESS:       6785  HIT:       5813  MISS:        972
cpu0_L2C PREFETCH  ACCESS:          0  HIT:          0  MISS:          0
cpu0_L2C WRITEBACK ACCESS:     212381  HIT:     212356  MISS:         25
LLC TOTAL     ACCESS:     283309  HIT:      26573  MISS:     256736
LLC LOAD      ACCESS:     204451  HIT:      24438  MISS:     180013
LLC RFO       ACCESS:        972  HIT:         85  MISS:        887
LLC PREFETCH  ACCESS:          0  HIT:          0  MISS:          0
LLC WRITEBACK ACCESS:      77824  HIT:       2040  MISS:      75784
Heartbeat CPU 0 instructions: 76000000 cycles: 91542893 heartbeat IPC: 0.361256 cumulative IPC: 0.337302 (Simulation time: 0 hr 42 min 41 sec) 

Region of Interest Statistics
cpu0_DTLB TOTAL     ACCESS:    6472514  HIT:    5894613  MISS:     577901
cpu0_DTLB LOAD      ACCESS:    5749857  HIT:    5231641  MISS:     518216
cpu0_DTLB RFO       ACCESS:     722657  HIT:     662972  MISS:      59685
cpu0_DTLB PREFETCH  ACCESS:          0  HIT:          0  MISS:          0
cpu0_DTLB WRITEBACK ACCESS:          0  HIT:          0  MISS:          0
cpu0_ITLB TOTAL     ACCESS:    3343468  HIT:    3343460  MISS:          8
cpu0_ITLB LOAD      ACCESS:    3343468  HIT:    3343460  MISS:          8
cpu0_ITLB RFO       ACCESS:          0  HIT:          0  MISS:          0
cpu0_ITLB PREFETCH  ACCESS:          0  HIT:          0  MISS:          0
cpu0_ITLB WRITEBACK ACCESS:          0  HIT:          0  MISS:          0
cpu0_L1I TOTAL     ACCESS:       1489  HIT:       1384  MISS:        105
cpu0_L1I LOAD      ACCESS:       1489  HIT:       1384  MISS:        105
cpu0_L1I RFO       ACCESS:          0  HIT:          0  MISS:          0
cpu0_L1I PREFETCH  ACCESS:          0  HIT:          0  MISS:          0
cpu0_L1I WRITEBACK ACCESS:          0  HIT:          0  MISS:          0
cpu0_STLB TOTAL     ACCESS:     577909  HIT:     517617  MISS:      60292
cpu0_STLB LOAD      ACCESS:     518224  HIT:     464920  MISS:      53304
cpu0_STLB RFO       ACCESS:      59685  HIT:      52697  MISS:       6988
cpu0_STLB PREFETCH  ACCESS:          0  HIT:          0  MISS:          0
cpu0_STLB WRITEBACK ACCESS:          0  HIT:          0  MISS:          0
cpu0_L1D TOTAL     ACCESS:    6432320  HIT:    5737822  MISS:     694498
cpu0_L1D LOAD      ACCESS:    5265203  HIT:    4578838  MISS:     686365
cpu0_L1D RFO       ACCESS:    1110620  HIT:    1102806  MISS:       7814
cpu0_L1D PREFETCH  ACCESS:          0  HIT:          0  MISS:          0
cpu0_L1D WRITEBACK ACCESS:          0  HIT:          0  MISS:          0
cpu0_L2C TOTAL     ACCESS:     923771  HIT:     704337  MISS:     219434
cpu0_L2C LOAD      ACCESS:     686426  HIT:     468130  MISS:     218296
cpu0_L2C RFO       ACCESS:       7812  HIT:       6766  MISS:       1046
cpu0_L2C PREFETCH  ACCESS:          0  HIT:          0  MISS:          0
cpu0_L2C WRITEBACK ACCESS:     229214  HIT:     229186  MISS:         28
LLC TOTAL     ACCESS:     302134  HIT:      28082  MISS:     274052
LLC LOAD      ACCESS:     218269  HIT:      25842  MISS:     192427
LLC RFO       ACCESS:       1046  HIT:         92  MISS:        954
LLC PREFETCH  ACCESS:          0  HIT:          0  MISS:          0
LLC WRITEBACK ACCESS:      82755  HIT:       2138  MISS:      80617
Heartbeat CPU 0 instructions: 78000000 cycles: 96660324 heartbeat IPC: 0.390821 cumulative IPC: 0.340634 (Simulation time: 0 hr 43 min 50 sec) 

Region of Interest Statistics
cpu0_DTLB TOTAL     ACCESS:    6975504  HIT:    6355990  MISS:     619514
cpu0_DTLB LOAD      ACCESS:    6197731  HIT:    5643117  MISS:     554614
cpu0_DTLB RFO       ACCESS:     777773  HIT:     712873  MISS:      64900
cpu0_DTLB PREFETCH  ACCESS:          0  HIT:          0  MISS:          0
cpu0_DTLB WRITEBACK ACCESS:          0  HIT:          0  MISS:          0
cpu0_ITLB TOTAL     ACCESS:    3601520  HIT:    3601512  MISS:          8
cpu0_ITLB LOAD      ACCESS:    3601520  HIT:    3601512  MISS:          8
cpu0_ITLB RFO       ACCESS:          0  HIT:          0  MISS:          0
cpu0_ITLB PREFETCH  ACCESS:          0  HIT:          0  MISS:          0
cpu0_ITLB WRITEBACK ACCESS:          0  HIT:          0  MISS:          0
cpu0_L1I TOTAL     ACCESS:       1547  HIT:       1442  MISS:        105
cpu0_L1I LOAD      ACCESS:       1547  HIT:       1442  MISS:        105
cpu0_L1I RFO       ACCESS:          0  HIT:          0  MISS:          0
cpu0_L1I PREFETCH  ACCESS:          0  HIT:          0  MISS:          0
cpu0_L1I WRITEBACK ACCESS:          0  HIT:          0  MISS:          0
cpu0_STLB TOTAL     ACCESS:     619522  HIT:     545811  MISS:      73711
cpu0_STLB LOAD      ACCESS:     554622  HIT:     489821  MISS:      64801
cpu0_STLB RFO       ACCESS:      64900  HIT:      55990  MISS:       8910
cpu0_STLB PREFETCH  ACCESS:          0  HIT:          0  MISS:          0
cpu0_STLB WRITEBACK ACCESS:          0  HIT:          0  MISS:          0
cpu0_L1D TOTAL     ACCESS:    6939941  HIT:    6192938  MISS:     747003
cpu0_L1D LOAD      ACCESS:    5675276  HIT:    4937328  MISS:     737948
cpu0_L1D RFO       ACCESS:    1195472  HIT:    1186766  MISS:       8706
cpu0_L1D PREFETCH  ACCESS:          0  HIT:          0  MISS:          0
cpu0_L1D WRITEBACK ACCESS:          0  HIT:          0  MISS:          0
cpu0_L2C TOTAL     ACCESS:     993995  HIT:     763975  MISS:     230020
cpu0_L2C LOAD      ACCESS:     738009  HIT:     509158  MISS:     228851
cpu0_L2C RFO       ACCESS:       8704  HIT:       7627  MISS:       1077
cpu0_L2C PREFETCH  ACCESS:          0  HIT:          0  MISS:          0
cpu0_L2C WRITEBACK ACCESS:     246933  HIT:     246905  MISS:         28
LLC TOTAL     ACCESS:     317248  HIT:      30273  MISS:     286975
LLC LOAD      ACCESS:     228819  HIT:      27664  MISS:     201155
LLC RFO       ACCESS:       1077  HIT:         99  MISS:        978
LLC PREFETCH  ACCESS:          0  HIT:          0  MISS:          0
LLC WRITEBACK ACCESS:      87288  HIT:       2500  MISS:      84788
Heartbeat CPU 0 instructions: 80000002 cycles: 102251493 heartbeat IPC: 0.357707 cumulative IPC: 0.341721 (Simulation time: 0 hr 44 min 58 sec) 

Region of Interest Statistics
cpu0_DTLB TOTAL     ACCESS:    7477324  HIT:    6816765  MISS:     660559
cpu0_DTLB LOAD      ACCESS:    6644523  HIT:    6052894  MISS:     591629
cpu0_DTLB RFO       ACCESS:     832801  HIT:     763871  MISS:      68930
cpu0_DTLB PREFETCH  ACCESS:          0  HIT:          0  MISS:          0
cpu0_DTLB WRITEBACK ACCESS:          0  HIT:          0  MISS:          0
cpu0_ITLB TOTAL     ACCESS:    3860420  HIT:    3860412  MISS:          8
cpu0_ITLB LOAD      ACCESS:    3860420  HIT:    3860412  MISS:          8
cpu0_ITLB RFO       ACCESS:          0  HIT:          0  MISS:          0
cpu0_ITLB PREFETCH  ACCESS:          0  HIT:          0  MISS:          0
cpu0_ITLB WRITEBACK ACCESS:          0  HIT:          0  MISS:          0
cpu0_L1I TOTAL     ACCESS:       1564  HIT:       1459  MISS:        105
cpu0_L1I LOAD      ACCESS:       1564  HIT:       1459  MISS:        105
cpu0_L1I RFO       ACCESS:          0  HIT:          0  MISS:          0
cpu0_L1I PREFETCH  ACCESS:          0  HIT:          0  MISS:          0
cpu0_L1I WRITEBACK ACCESS:          0  HIT:          0  MISS:          0
cpu0_STLB TOTAL     ACCESS:     660567  HIT:     562076  MISS:      98491
cpu0_STLB LOAD      ACCESS:     591637  HIT:     505551  MISS:      86086
cpu0_STLB RFO       ACCESS:      68930  HIT:      56525  MISS:      12405
cpu0_STLB PREFETCH  ACCESS:          0  HIT:          0  MISS:          0
cpu0_STLB WRITEBACK ACCESS:          0  HIT:          0  MISS:          0
cpu0_L1D TOTAL     ACCESS:    7456855  HIT:    6655634  MISS:     801221
cpu0_L1D LOAD      ACCESS:    6084423  HIT:    5293336  MISS:     791087
cpu0_L1D RFO       ACCESS:    1280416  HIT:    1270686  MISS:       9730
cpu0_L1D PREFETCH  ACCESS:          0  HIT:          0  MISS:          0
cpu0_L1D WRITEBACK ACCESS:          0  HIT:          0  MISS:          0
cpu0_L2C TOTAL     ACCESS:    1066109  HIT:     823280  MISS:     242829
cpu0_L2C LOAD      ACCESS:     791146  HIT:     549546  MISS:     241600
cpu0_L2C RFO       ACCESS:       9728  HIT:       8593  MISS:       1135
cpu0_L2C PREFETCH  ACCESS:          0  HIT:          0  MISS:          0
cpu0_L2C WRITEBACK ACCESS:     264831  HIT:     264803  MISS:         28
LLC TOTAL     ACCESS:     335653  HIT:      31530  MISS:     304123
LLC LOAD      ACCESS:     241556  HIT:      28690  MISS:     212866
LLC RFO       ACCESS:       1135  HIT:        107  MISS:       1028
LLC PREFETCH  ACCESS:          0  HIT:          0  MISS:          0
LLC WRITEBACK ACCESS:      92896  HIT:       2723  MISS:      90173
Heartbeat CPU 0 instructions: 82000002 cycles: 107892707 heartbeat IPC: 0.354534 cumulative IPC: 0.342495 (Simulation time: 0 hr 46 min 9 sec) 

Region of Interest Statistics
cpu0_DTLB TOTAL     ACCESS:    7977161  HIT:    7273110  MISS:     704051
cpu0_DTLB LOAD      ACCESS:    7090172  HIT:    6457489  MISS:     632683
cpu0_DTLB RFO       ACCESS:     886989  HIT:     815621  MISS:      71368
cpu0_DTLB PREFETCH  ACCESS:          0  HIT:          0  MISS:          0
cpu0_DTLB WRITEBACK ACCESS:          0  HIT:          0  MISS:          0
cpu0_ITLB TOTAL     ACCESS:    4119496  HIT:    4119488  MISS:          8
cpu0_ITLB LOAD      ACCESS:    4119496  HIT:    4119488  MISS:          8
cpu0_ITLB RFO       ACCESS:          0  HIT:          0  MISS:          0
cpu0_ITLB PREFETCH  ACCESS:          0  HIT:          0  MISS:          0
cpu0_ITLB WRITEBACK ACCESS:          0  HIT:          0  MISS:          0
cpu0_L1I TOTAL     ACCESS:       1609  HIT:       1504  MISS:        105
cpu0_L1I LOAD      ACCESS:       1609  HIT:       1504  MISS:        105
cpu0_L1I RFO       ACCESS:          0  HIT:          0  MISS:          0
cpu0_L1I PREFETCH  ACCESS:          0  HIT:          0  MISS:          0
cpu0_L1I WRITEBACK ACCESS:          0  HIT:          0  MISS:          0
cpu0_STLB TOTAL     ACCESS:     704059  HIT:     580861  MISS:     123198
cpu0_STLB LOAD      ACCESS:     632691  HIT:     524044  MISS:     108647
cpu0_STLB RFO       ACCESS:      71368  HIT:      56817  MISS:      14551
cpu0_STLB PREFETCH  ACCESS:          0  HIT:          0  MISS:          0
cpu0_STLB WRITEBACK ACCESS:          0  HIT:          0  MISS:          0
cpu0_L1D TOTAL     ACCESS:    7971488  HIT:    7115201  MISS:     856287
cpu0_L1D LOAD      ACCESS:    6491654  HIT:    5646523  MISS:     845131
cpu0_L1D RFO       ACCESS:    1364878  HIT:    1354185  MISS:      10693
cpu0_L1D PREFETCH  ACCESS:          0  HIT:          0  MISS:          0
cpu0_L1D WRITEBACK ACCESS:          0  HIT:          0  MISS:          0
cpu0_L2C TOTAL     ACCESS:    1138981  HIT:     883755  MISS:     255226
cpu0_L2C LOAD      ACCESS:     845189  HIT:     591237  MISS:     253952
cpu0_L2C RFO       ACCESS:      10691  HIT:       9520  MISS:       1171
cpu0_L2C PREFETCH  ACCESS:          0  HIT:          0  MISS:          0
cpu0_L2C WRITEBACK ACCESS:     282638  HIT:     282608  MISS:         30
LLC TOTAL     ACCESS:     352808  HIT:      32971  MISS:     319837
LLC LOAD      ACCESS:     253907  HIT:      29933  MISS:     223974
LLC RFO       ACCESS:       1171  HIT:        112  MISS:       1059
LLC PREFETCH  ACCESS:          0  HIT:          0  MISS:          0
LLC WRITEBACK ACCESS:      97657  HIT:       2916  MISS:      94741
Heartbeat CPU 0 instructions: 84000000 cycles: 114930688 heartbeat IPC: 0.284172 cumulative IPC: 0.338409 (Simulation time: 0 hr 47 min 36 sec) 

Region of Interest Statistics
cpu0_DTLB TOTAL     ACCESS:    8475096  HIT:    7725602  MISS:     749494
cpu0_DTLB LOAD      ACCESS:    7534186  HIT:    6858376  MISS:     675810
cpu0_DTLB RFO       ACCESS:     940910  HIT:     867226  MISS:      73684
cpu0_DTLB PREFETCH  ACCESS:          0  HIT:          0  MISS:          0
cpu0_DTLB WRITEBACK ACCESS:          0  HIT:          0  MISS:          0
cpu0_ITLB TOTAL     ACCESS:    4378522  HIT:    4378514  MISS:          8
cpu0_ITLB LOAD      ACCESS:    4378522  HIT:    4378514  MISS:          8
cpu0_ITLB RFO       ACCESS:          0  HIT:          0  MISS:          0
cpu0_ITLB PREFETCH  ACCESS:          0  HIT:          0  MISS:          0
cpu0_ITLB WRITEBACK ACCESS:          0  HIT:          0  MISS:          0
cpu0_L1I TOTAL     ACCESS:       1676  HIT:       1571  MISS:        105
cpu0_L1I LOAD      ACCESS:       1676  HIT:       1571  MISS:        105
cpu0_L1I RFO       ACCESS:          0  HIT:          0  MISS:          0
cpu0_L1I PREFETCH  ACCESS:          0  HIT:          0  MISS:          0
cpu0_L1I WRITEBACK ACCESS:          0  HIT:          0  MISS:          0
cpu0_STLB TOTAL     ACCESS:     749502  HIT:     605631  MISS:     143871
cpu0_STLB LOAD      ACCESS:     675818  HIT:     548032  MISS:     127786
cpu0_STLB RFO       ACCESS:      73684  HIT:      57599  MISS:      16085
cpu0_STLB PREFETCH  ACCESS:          0  HIT:          0  MISS:          0
cpu0_STLB WRITEBACK ACCESS:          0  HIT:          0  MISS:          0
cpu0_L1D TOTAL     ACCESS:    8480999  HIT:    7568481  MISS:     912518
cpu0_L1D LOAD      ACCESS:    6897818  HIT:    5997329  MISS:     900489
cpu0_L1D RFO       ACCESS:    1448957  HIT:    1437447  MISS:      11510
cpu0_L1D PREFETCH  ACCESS:          0  HIT:          0  MISS:          0
cpu0_L1D WRITEBACK ACCESS:          0  HIT:          0  MISS:          0
cpu0_L2C TOTAL     ACCESS:    1212913  HIT:     936169  MISS:     276744
cpu0_L2C LOAD      ACCESS:     900547  HIT:     625191  MISS:     275356
cpu0_L2C RFO       ACCESS:      11508  HIT:      10231  MISS:       1277
cpu0_L2C PREFETCH  ACCESS:          0  HIT:          0  MISS:          0
cpu0_L2C WRITEBACK ACCESS:     300339  HIT:     300308  MISS:         31
LLC TOTAL     ACCESS:     381051  HIT:      34778  MISS:     346273
LLC LOAD      ACCESS:     275307  HIT:      31509  MISS:     243798
LLC RFO       ACCESS:       1277  HIT:        126  MISS:       1151
LLC PREFETCH  ACCESS:          0  HIT:          0  MISS:          0
LLC WRITEBACK ACCESS:     104387  HIT:       3133  MISS:     101254
Heartbeat CPU 0 instructions: 86000001 cycles: 122211399 heartbeat IPC: 0.274699 cumulative IPC: 0.334104 (Simulation time: 0 hr 49 min 8 sec) 

Region of Interest Statistics
cpu0_DTLB TOTAL     ACCESS:    8974484  HIT:    8177834  MISS:     796650
cpu0_DTLB LOAD      ACCESS:    7979344  HIT:    7258788  MISS:     720556
cpu0_DTLB RFO       ACCESS:     995140  HIT:     919046  MISS:      76094
cpu0_DTLB PREFETCH  ACCESS:          0  HIT:          0  MISS:          0
cpu0_DTLB WRITEBACK ACCESS:          0  HIT:          0  MISS:          0
cpu0_ITLB TOTAL     ACCESS:    4637986  HIT:    4637978  MISS:          8
cpu0_ITLB LOAD      ACCESS:    4637986  HIT:    4637978  MISS:          8
cpu0_ITLB RFO       ACCESS:          0  HIT:          0  MISS:          0
cpu0_ITLB PREFETCH  ACCESS:          0  HIT:          0  MISS:          0
cpu0_ITLB WRITEBACK ACCESS:          0  HIT:          0  MISS:          0
cpu0_L1I TOTAL     ACCESS:       1900  HIT:       1795  MISS:        105
cpu0_L1I LOAD      ACCESS:       1900  HIT:       1795  MISS:        105
cpu0_L1I RFO       ACCESS:          0  HIT:          0  MISS:          0
cpu0_L1I PREFETCH  ACCESS:          0  HIT:          0  MISS:          0
cpu0_L1I WRITEBACK ACCESS:          0  HIT:          0  MISS:          0
cpu0_STLB TOTAL     ACCESS:     796658  HIT:     636814  MISS:     159844
cpu0_STLB LOAD      ACCESS:     720564  HIT:     577232  MISS:     143332
cpu0_STLB RFO       ACCESS:      76094  HIT:      59582  MISS:      16512
cpu0_STLB PREFETCH  ACCESS:          0  HIT:          0  MISS:          0
cpu0_STLB WRITEBACK ACCESS:          0  HIT:          0  MISS:          0
cpu0_L1D TOTAL     ACCESS:    8986644  HIT:    8015293  MISS:     971351
cpu0_L1D LOAD      ACCESS:    7303485  HIT:    6344927  MISS:     958558
cpu0_L1D RFO       ACCESS:    1533681  HIT:    1521444  MISS:      12237
cpu0_L1D PREFETCH  ACCESS:          0  HIT:          0  MISS:          0
cpu0_L1D WRITEBACK ACCESS:          0  HIT:          0  MISS:          0
cpu0_L2C TOTAL     ACCESS:    1290676  HIT:     989305  MISS:     301371
cpu0_L2C LOAD      ACCESS:     958616  HIT:     658770  MISS:     299846
cpu0_L2C RFO       ACCESS:      12235  HIT:      10823  MISS:       1412
cpu0_L2C PREFETCH  ACCESS:          0  HIT:          0  MISS:          0
cpu0_L2C WRITEBACK ACCESS:     319269  HIT:     319237  MISS:         32
LLC TOTAL     ACCESS:     414458  HIT:      36584  MISS:     377874
LLC LOAD      ACCESS:     299796  HIT:      33155  MISS:     266641
LLC RFO       ACCESS:       1412  HIT:        140  MISS:       1272
LLC PREFETCH  ACCESS:          0  HIT:          0  MISS:          0
LLC WRITEBACK ACCESS:     113169  HIT:       3279  MISS:     109890
Heartbeat CPU 0 instructions: 88000000 cycles: 130242966 heartbeat IPC: 0.249017 cumulative IPC: 0.328202 (Simulation time: 0 hr 50 min 50 sec) 

Region of Interest Statistics
cpu0_DTLB TOTAL     ACCESS:    9478615  HIT:    8629080  MISS:     849535
cpu0_DTLB LOAD      ACCESS:    8430019  HIT:    7660797  MISS:     769222
cpu0_DTLB RFO       ACCESS:    1048596  HIT:     968283  MISS:      80313
cpu0_DTLB PREFETCH  ACCESS:          0  HIT:          0  MISS:          0
cpu0_DTLB WRITEBACK ACCESS:          0  HIT:          0  MISS:          0
cpu0_ITLB TOTAL     ACCESS:    4898697  HIT:    4898689  MISS:          8
cpu0_ITLB LOAD      ACCESS:    4898697  HIT:    4898689  MISS:          8
cpu0_ITLB RFO       ACCESS:          0  HIT:          0  MISS:          0
cpu0_ITLB PREFETCH  ACCESS:          0  HIT:          0  MISS:          0
cpu0_ITLB WRITEBACK ACCESS:          0  HIT:          0  MISS:          0
cpu0_L1I TOTAL     ACCESS:       1902  HIT:       1797  MISS:        105
cpu0_L1I LOAD      ACCESS:       1902  HIT:       1797  MISS:        105
cpu0_L1I RFO       ACCESS:          0  HIT:          0  MISS:          0
cpu0_L1I PREFETCH  ACCESS:          0  HIT:          0  MISS:          0
cpu0_L1I WRITEBACK ACCESS:          0  HIT:          0  MISS:          0
cpu0_STLB TOTAL     ACCESS:     849543  HIT:     682533  MISS:     167010
cpu0_STLB LOAD      ACCESS:     769230  HIT:     618999  MISS:     150231
cpu0_STLB RFO       ACCESS:      80313  HIT:      63534  MISS:      16779
cpu0_STLB PREFETCH  ACCESS:          0  HIT:          0  MISS:          0
cpu0_STLB WRITEBACK ACCESS:          0  HIT:          0  MISS:          0
cpu0_L1D TOTAL     ACCESS:    9487635  HIT:    8452839  MISS:    1034796
cpu0_L1D LOAD      ACCESS:    7714498  HIT:    6693304  MISS:    1021194
cpu0_L1D RFO       ACCESS:    1616818  HIT:    1603820  MISS:      12998
cpu0_L1D PREFETCH  ACCESS:          0  HIT:          0  MISS:          0
cpu0_L1D WRITEBACK ACCESS:          0  HIT:          0  MISS:          0
cpu0_L2C TOTAL     ACCESS:    1374037  HIT:    1041160  MISS:     332877
cpu0_L2C LOAD      ACCESS:    1021250  HIT:     690085  MISS:     331165
cpu0_L2C RFO       ACCESS:      12996  HIT:      11407  MISS:       1589
cpu0_L2C PREFETCH  ACCESS:          0  HIT:          0  MISS:          0
cpu0_L2C WRITEBACK ACCESS:     339187  HIT:     339155  MISS:         32
LLC TOTAL     ACCESS:     456583  HIT:      38756  MISS:     417827
LLC LOAD      ACCESS:     331114  HIT:      35249  MISS:     295865
LLC RFO       ACCESS:       1589  HIT:        150  MISS:       1439
LLC PREFETCH  ACCESS:          0  HIT:          0  MISS:          0
LLC WRITEBACK ACCESS:     123789  HIT:       3347  MISS:     120442
Heartbeat CPU 0 instructions: 90000003 cycles: 137987298 heartbeat IPC: 0.258254 cumulative IPC: 0.323817 (Simulation time: 0 hr 52 min 28 sec) 

Region of Interest Statistics
cpu0_DTLB TOTAL     ACCESS:    9980876  HIT:    9072533  MISS:     908343
cpu0_DTLB LOAD      ACCESS:    8878198  HIT:    8055121  MISS:     823077
cpu0_DTLB RFO       ACCESS:    1102678  HIT:    1017412  MISS:      85266
cpu0_DTLB PREFETCH  ACCESS:          0  HIT:          0  MISS:          0
cpu0_DTLB WRITEBACK ACCESS:          0  HIT:          0  MISS:          0
cpu0_ITLB TOTAL     ACCESS:    5158852  HIT:    5158844  MISS:          8
cpu0_ITLB LOAD      ACCESS:    5158852  HIT:    5158844  MISS:          8
cpu0_ITLB RFO       ACCESS:          0  HIT:          0  MISS:          0
cpu0_ITLB PREFETCH  ACCESS:          0  HIT:          0  MISS:          0
cpu0_ITLB WRITEBACK ACCESS:          0  HIT:          0  MISS:          0
cpu0_L1I TOTAL     ACCESS:       2008  HIT:       1903  MISS:        105
cpu0_L1I LOAD      ACCESS:       2008  HIT:       1903  MISS:        105
cpu0_L1I RFO       ACCESS:          0  HIT:          0  MISS:          0
cpu0_L1I PREFETCH  ACCESS:          0  HIT:          0  MISS:          0
cpu0_L1I WRITEBACK ACCESS:          0  HIT:          0  MISS:          0
cpu0_STLB TOTAL     ACCESS:     908351  HIT:     740437  MISS:     167914
cpu0_STLB LOAD      ACCESS:     823085  HIT:     672008  MISS:     151077
cpu0_STLB RFO       ACCESS:      85266  HIT:      68429  MISS:      16837
cpu0_STLB PREFETCH  ACCESS:          0  HIT:          0  MISS:          0
cpu0_STLB WRITEBACK ACCESS:          0  HIT:          0  MISS:          0
cpu0_L1D TOTAL     ACCESS:    9982175  HIT:    8878028  MISS:    1104147
cpu0_L1D LOAD      ACCESS:    8123638  HIT:    7033802  MISS:    1089836
cpu0_L1D RFO       ACCESS:    1701339  HIT:    1687640  MISS:      13699
cpu0_L1D PREFETCH  ACCESS:          0  HIT:          0  MISS:          0
cpu0_L1D WRITEBACK ACCESS:          0  HIT:          0  MISS:          0
cpu0_L2C TOTAL     ACCESS:    1465208  HIT:    1102635  MISS:     362573
cpu0_L2C LOAD      ACCESS:    1089892  HIT:     729209  MISS:     360683
cpu0_L2C RFO       ACCESS:      13697  HIT:      11933  MISS:       1764
cpu0_L2C PREFETCH  ACCESS:          0  HIT:          0  MISS:          0
cpu0_L2C WRITEBACK ACCESS:     361007  HIT:     360974  MISS:         33
LLC TOTAL     ACCESS:     496903  HIT:      41614  MISS:     455289
LLC LOAD      ACCESS:     360630  HIT:      37879  MISS:     322751
LLC RFO       ACCESS:       1764  HIT:        172  MISS:       1592
LLC PREFETCH  ACCESS:          0  HIT:          0  MISS:          0
LLC WRITEBACK ACCESS:     134416  HIT:       3553  MISS:     130863
Heartbeat CPU 0 instructions: 92000002 cycles: 145742746 heartbeat IPC: 0.257883 cumulative IPC: 0.319922 (Simulation time: 0 hr 54 min 7 sec) 

Region of Interest Statistics
cpu0_DTLB TOTAL     ACCESS:   10481118  HIT:    9525645  MISS:     955473
cpu0_DTLB LOAD      ACCESS:    9323997  HIT:    8456542  MISS:     867455
cpu0_DTLB RFO       ACCESS:    1157121  HIT:    1069103  MISS:      88018
cpu0_DTLB PREFETCH  ACCESS:          0  HIT:          0  MISS:          0
cpu0_DTLB WRITEBACK ACCESS:          0  HIT:          0  MISS:          0
cpu0_ITLB TOTAL     ACCESS:    5418434  HIT:    5418426  MISS:          8
cpu0_ITLB LOAD      ACCESS:    5418434  HIT:    5418426  MISS:          8
cpu0_ITLB RFO       ACCESS:          0  HIT:          0  MISS:          0
cpu0_ITLB PREFETCH  ACCESS:          0  HIT:          0  MISS:          0
cpu0_ITLB WRITEBACK ACCESS:          0  HIT:          0  MISS:          0
cpu0_L1I TOTAL     ACCESS:       2088  HIT:       1983  MISS:        105
cpu0_L1I LOAD      ACCESS:       2088  HIT:       1983  MISS:        105
cpu0_L1I RFO       ACCESS:          0  HIT:          0  MISS:          0
cpu0_L1I PREFETCH  ACCESS:          0  HIT:          0  MISS:          0
cpu0_L1I WRITEBACK ACCESS:          0  HIT:          0  MISS:          0
cpu0_STLB TOTAL     ACCESS:     955481  HIT:     775582  MISS:     179899
cpu0_STLB LOAD      ACCESS:     867463  HIT:     704686  MISS:     162777
cpu0_STLB RFO       ACCESS:      88018  HIT:      70896  MISS:      17122
cpu0_STLB PREFETCH  ACCESS:          0  HIT:          0  MISS:          0
cpu0_STLB WRITEBACK ACCESS:          0  HIT:          0  MISS:          0
cpu0_L1D TOTAL     ACCESS:   10485955  HIT:    9323345  MISS:    1162610
cpu0_L1D LOAD      ACCESS:    8531072  HIT:    7383507  MISS:    1147565
cpu0_L1D RFO       ACCESS:    1786249  HIT:    1771857  MISS:      14392
cpu0_L1D PREFETCH  ACCESS:          0  HIT:          0  MISS:          0
cpu0_L1D WRITEBACK ACCESS:          0  HIT:          0  MISS:          0
cpu0_L2C TOTAL     ACCESS:    1542302  HIT:    1151410  MISS:     390892
cpu0_L2C LOAD      ACCESS:    1147619  HIT:     758785  MISS:     388834
cpu0_L2C RFO       ACCESS:      14390  HIT:      12463  MISS:       1927
cpu0_L2C PREFETCH  ACCESS:          0  HIT:          0  MISS:          0
cpu0_L2C WRITEBACK ACCESS:     379640  HIT:     379607  MISS:         33
LLC TOTAL     ACCESS:     535287  HIT:      43790  MISS:     491497
LLC LOAD      ACCESS:     388781  HIT:      39881  MISS:     348900
LLC RFO       ACCESS:       1927  HIT:        181  MISS:       1746
LLC PREFETCH  ACCESS:          0  HIT:          0  MISS:          0
LLC WRITEBACK ACCESS:     144481  HIT:       3718  MISS:     140763
Heartbeat CPU 0 instructions: 94000004 cycles: 152884678 heartbeat IPC: 0.280037 cumulative IPC: 0.317864 (Simulation time: 0 hr 55 min 37 sec) 

Region of Interest Statistics
cpu0_DTLB TOTAL     ACCESS:   10979794  HIT:    9981192  MISS:     998602
cpu0_DTLB LOAD      ACCESS:    9768579  HIT:    8860426  MISS:     908153
cpu0_DTLB RFO       ACCESS:    1211215  HIT:    1120766  MISS:      90449
cpu0_DTLB PREFETCH  ACCESS:          0  HIT:          0  MISS:          0
cpu0_DTLB WRITEBACK ACCESS:          0  HIT:          0  MISS:          0
cpu0_ITLB TOTAL     ACCESS:    5676679  HIT:    5676671  MISS:          8
cpu0_ITLB LOAD      ACCESS:    5676679  HIT:    5676671  MISS:          8
cpu0_ITLB RFO       ACCESS:          0  HIT:          0  MISS:          0
cpu0_ITLB PREFETCH  ACCESS:          0  HIT:          0  MISS:          0
cpu0_ITLB WRITEBACK ACCESS:          0  HIT:          0  MISS:          0
cpu0_L1I TOTAL     ACCESS:       2149  HIT:       2044  MISS:        105
cpu0_L1I LOAD      ACCESS:       2149  HIT:       2044  MISS:        105
cpu0_L1I RFO       ACCESS:          0  HIT:          0  MISS:          0
cpu0_L1I PREFETCH  ACCESS:          0  HIT:          0  MISS:          0
cpu0_L1I WRITEBACK ACCESS:          0  HIT:          0  MISS:          0
cpu0_STLB TOTAL     ACCESS:     998610  HIT:     811729  MISS:     186881
cpu0_STLB LOAD      ACCESS:     908161  HIT:     738473  MISS:     169688
cpu0_STLB RFO       ACCESS:      90449  HIT:      73256  MISS:      17193
cpu0_STLB PREFETCH  ACCESS:          0  HIT:          0  MISS:          0
cpu0_STLB WRITEBACK ACCESS:          0  HIT:          0  MISS:          0
cpu0_L1D TOTAL     ACCESS:   10982523  HIT:    9765472  MISS:    1217051
cpu0_L1D LOAD      ACCESS:    8936372  HIT:    7735178  MISS:    1201194
cpu0_L1D RFO       ACCESS:    1870764  HIT:    1855584  MISS:      15180
cpu0_L1D PREFETCH  ACCESS:          0  HIT:          0  MISS:          0
cpu0_L1D WRITEBACK ACCESS:          0  HIT:          0  MISS:          0
cpu0_L2C TOTAL     ACCESS:    1614480  HIT:    1198103  MISS:     416377
cpu0_L2C LOAD      ACCESS:    1201246  HIT:     787068  MISS:     414178
cpu0_L2C RFO       ACCESS:      15178  HIT:      13111  MISS:       2067
cpu0_L2C PREFETCH  ACCESS:          0  HIT:          0  MISS:          0
cpu0_L2C WRITEBACK ACCESS:     397379  HIT:     397346  MISS:         33
LLC TOTAL     ACCESS:     569552  HIT:      45759  MISS:     523793
LLC LOAD      ACCESS:     414124  HIT:      41729  MISS:     372395
LLC RFO       ACCESS:       2067  HIT:        194  MISS:       1873
LLC PREFETCH  ACCESS:          0  HIT:          0  MISS:          0
LLC WRITEBACK ACCESS:     153262  HIT:       3826  MISS:     149436
Heartbeat CPU 0 instructions: 96000004 cycles: 160112645 heartbeat IPC: 0.276703 cumulative IPC: 0.315821 (Simulation time: 0 hr 57 min 6 sec) 

Region of Interest Statistics
cpu0_DTLB TOTAL     ACCESS:   11476062  HIT:   10437931  MISS:    1038131
cpu0_DTLB LOAD      ACCESS:   10210260  HIT:    9266165  MISS:     944095
cpu0_DTLB RFO       ACCESS:    1265802  HIT:    1171766  MISS:      94036
cpu0_DTLB PREFETCH  ACCESS:          0  HIT:          0  MISS:          0
cpu0_DTLB WRITEBACK ACCESS:          0  HIT:          0  MISS:          0
cpu0_ITLB TOTAL     ACCESS:    5933820  HIT:    5933812  MISS:          8
cpu0_ITLB LOAD      ACCESS:    5933820  HIT:    5933812  MISS:          8
cpu0_ITLB RFO       ACCESS:          0  HIT:          0  MISS:          0
cpu0_ITLB PREFETCH  ACCESS:          0  HIT:          0  MISS:          0
cpu0_ITLB WRITEBACK ACCESS:          0  HIT:          0  MISS:          0
cpu0_L1I TOTAL     ACCESS:       2199  HIT:       2094  MISS:        105
cpu0_L1I LOAD      ACCESS:       2199  HIT:       2094  MISS:        105
cpu0_L1I RFO       ACCESS:          0  HIT:          0  MISS:          0
cpu0_L1I PREFETCH  ACCESS:          0  HIT:          0  MISS:          0
cpu0_L1I WRITEBACK ACCESS:          0  HIT:          0  MISS:          0
cpu0_STLB TOTAL     ACCESS:    1038139  HIT:     848641  MISS:     189498
cpu0_STLB LOAD      ACCESS:     944103  HIT:     771885  MISS:     172218
cpu0_STLB RFO       ACCESS:      94036  HIT:      76756  MISS:      17280
cpu0_STLB PREFETCH  ACCESS:          0  HIT:          0  MISS:          0
cpu0_STLB WRITEBACK ACCESS:          0  HIT:          0  MISS:          0
cpu0_L1D TOTAL     ACCESS:   11472764  HIT:   10205819  MISS:    1266945
cpu0_L1D LOAD      ACCESS:    9339280  HIT:    8088897  MISS:    1250383
cpu0_L1D RFO       ACCESS:    1955554  HIT:    1939693  MISS:      15861
cpu0_L1D PREFETCH  ACCESS:          0  HIT:          0  MISS:          0
cpu0_L1D WRITEBACK ACCESS:          0  HIT:          0  MISS:          0
cpu0_L2C TOTAL     ACCESS:    1681301  HIT:    1237480  MISS:     443821
cpu0_L2C LOAD      ACCESS:    1250435  HIT:     808961  MISS:     441474
cpu0_L2C RFO       ACCESS:      15859  HIT:      13644  MISS:       2215
cpu0_L2C PREFETCH  ACCESS:          0  HIT:          0  MISS:          0
cpu0_L2C WRITEBACK ACCESS:     414306  HIT:     414273  MISS:         33
LLC TOTAL     ACCESS:     605957  HIT:      47131  MISS:     558826
LLC LOAD      ACCESS:     441418  HIT:      43001  MISS:     398417
LLC RFO       ACCESS:       2215  HIT:        209  MISS:       2006
LLC PREFETCH  ACCESS:          0  HIT:          0  MISS:          0
LLC WRITEBACK ACCESS:     162225  HIT:       3911  MISS:     158314
Heartbeat CPU 0 instructions: 98000002 cycles: 166920072 heartbeat IPC: 0.293796 cumulative IPC: 0.314838 (Simulation time: 0 hr 58 min 35 sec) 

Region of Interest Statistics
cpu0_DTLB TOTAL     ACCESS:   11973748  HIT:   10888546  MISS:    1085202
cpu0_DTLB LOAD      ACCESS:   10653617  HIT:    9666587  MISS:     987030
cpu0_DTLB RFO       ACCESS:    1320131  HIT:    1221959  MISS:      98172
cpu0_DTLB PREFETCH  ACCESS:          0  HIT:          0  MISS:          0
cpu0_DTLB WRITEBACK ACCESS:          0  HIT:          0  MISS:          0
cpu0_ITLB TOTAL     ACCESS:    6191259  HIT:    6191251  MISS:          8
cpu0_ITLB LOAD      ACCESS:    6191259  HIT:    6191251  MISS:          8
cpu0_ITLB RFO       ACCESS:          0  HIT:          0  MISS:          0
cpu0_ITLB PREFETCH  ACCESS:          0  HIT:          0  MISS:          0
cpu0_ITLB WRITEBACK ACCESS:          0  HIT:          0  MISS:          0
cpu0_L1I TOTAL     ACCESS:       2325  HIT:       2220  MISS:        105
cpu0_L1I LOAD      ACCESS:       2325  HIT:       2220  MISS:        105
cpu0_L1I RFO       ACCESS:          0  HIT:          0  MISS:          0
cpu0_L1I PREFETCH  ACCESS:          0  HIT:          0  MISS:          0
cpu0_L1I WRITEBACK ACCESS:          0  HIT:          0  MISS:          0
cpu0_STLB TOTAL     ACCESS:    1085210  HIT:     895294  MISS:     189916
cpu0_STLB LOAD      ACCESS:     987038  HIT:     814413  MISS:     172625
cpu0_STLB RFO       ACCESS:      98172  HIT:      80881  MISS:      17291
cpu0_STLB PREFETCH  ACCESS:          0  HIT:          0  MISS:          0
cpu0_STLB WRITEBACK ACCESS:          0  HIT:          0  MISS:          0
cpu0_L1D TOTAL     ACCESS:   11960174  HIT:   10638585  MISS:    1321589
cpu0_L1D LOAD      ACCESS:    9741713  HIT:    8437368  MISS:    1304345
cpu0_L1D RFO       ACCESS:    2040130  HIT:    2023596  MISS:      16534
cpu0_L1D PREFETCH  ACCESS:          0  HIT:          0  MISS:          0
cpu0_L1D WRITEBACK ACCESS:          0  HIT:          0  MISS:          0
cpu0_L2C TOTAL     ACCESS:    1754574  HIT:    1287896  MISS:     466678
cpu0_L2C LOAD      ACCESS:    1304396  HIT:     840180  MISS:     464216
cpu0_L2C RFO       ACCESS:      16532  HIT:      14203  MISS:       2329
cpu0_L2C PREFETCH  ACCESS:          0  HIT:          0  MISS:          0
cpu0_L2C WRITEBACK ACCESS:     432936  HIT:     432903  MISS:         33
LLC TOTAL     ACCESS:     637282  HIT:      49089  MISS:     588193
LLC LOAD      ACCESS:     464154  HIT:      44869  MISS:     419285
LLC RFO       ACCESS:       2329  HIT:        218  MISS:       2111
LLC PREFETCH  ACCESS:          0  HIT:          0  MISS:          0
LLC WRITEBACK ACCESS:     170699  HIT:       3992  MISS:     166707
Heartbeat CPU 0 instructions: 100000000 cycles: 173540864 heartbeat IPC: 0.302078 cumulative IPC: 0.314307 (Simulation time: 1 hr 0 min 4 sec) 

Region of Interest Statistics
cpu0_DTLB TOTAL     ACCESS:   12461235  HIT:   11327997  MISS:    1133238
cpu0_DTLB LOAD      ACCESS:   11085874  HIT:   10055371  MISS:    1030503
cpu0_DTLB RFO       ACCESS:    1375361  HIT:    1272626  MISS:     102735
cpu0_DTLB PREFETCH  ACCESS:          0  HIT:          0  MISS:          0
cpu0_DTLB WRITEBACK ACCESS:          0  HIT:          0  MISS:          0
cpu0_ITLB TOTAL     ACCESS:    6445832  HIT:    6445824  MISS:          8
cpu0_ITLB LOAD      ACCESS:    6445832  HIT:    6445824  MISS:          8
cpu0_ITLB RFO       ACCESS:          0  HIT:          0  MISS:          0
cpu0_ITLB PREFETCH  ACCESS:          0  HIT:          0  MISS:          0
cpu0_ITLB WRITEBACK ACCESS:          0  HIT:          0  MISS:          0
cpu0_L1I TOTAL     ACCESS:       2451  HIT:       2346  MISS:        105
cpu0_L1I LOAD      ACCESS:       2451  HIT:       2346  MISS:        105
cpu0_L1I RFO       ACCESS:          0  HIT:          0  MISS:          0
cpu0_L1I PREFETCH  ACCESS:          0  HIT:          0  MISS:          0
cpu0_L1I WRITEBACK ACCESS:          0  HIT:          0  MISS:          0
cpu0_STLB TOTAL     ACCESS:    1133246  HIT:     942366  MISS:     190880
cpu0_STLB LOAD      ACCESS:    1030511  HIT:     856965  MISS:     173546
cpu0_STLB RFO       ACCESS:     102735  HIT:      85401  MISS:      17334
cpu0_STLB PREFETCH  ACCESS:          0  HIT:          0  MISS:          0
cpu0_STLB WRITEBACK ACCESS:          0  HIT:          0  MISS:          0
cpu0_L1D TOTAL     ACCESS:   12440684  HIT:   11063614  MISS:    1377070
cpu0_L1D LOAD      ACCESS:   10134559  HIT:    8775326  MISS:    1359233
cpu0_L1D RFO       ACCESS:    2126844  HIT:    2109760  MISS:      17084
cpu0_L1D PREFETCH  ACCESS:          0  HIT:          0  MISS:          0
cpu0_L1D WRITEBACK ACCESS:          0  HIT:          0  MISS:          0
cpu0_L2C TOTAL     ACCESS:    1829614  HIT:    1339393  MISS:     490221
cpu0_L2C LOAD      ACCESS:    1359284  HIT:     871630  MISS:     487654
cpu0_L2C RFO       ACCESS:      17082  HIT:      14655  MISS:       2427
cpu0_L2C PREFETCH  ACCESS:          0  HIT:          0  MISS:          0
cpu0_L2C WRITEBACK ACCESS:     452495  HIT:     452455  MISS:         40
LLC TOTAL     ACCESS:     669847  HIT:      51152  MISS:     618695
LLC LOAD      ACCESS:     487588  HIT:      46776  MISS:     440812
LLC RFO       ACCESS:       2427  HIT:        223  MISS:       2204
LLC PREFETCH  ACCESS:          0  HIT:          0  MISS:          0
LLC WRITEBACK ACCESS:     179732  HIT:       4143  MISS:     175589
Heartbeat CPU 0 instructions: 102000000 cycles: 179899450 heartbeat IPC: 0.314535 cumulative IPC: 0.314315 (Simulation time: 1 hr 1 min 27 sec) 

Region of Interest Statistics
cpu0_DTLB TOTAL     ACCESS:   12949343  HIT:   11769793  MISS:    1179550
cpu0_DTLB LOAD      ACCESS:   11519225  HIT:   10446970  MISS:    1072255
cpu0_DTLB RFO       ACCESS:    1430118  HIT:    1322823  MISS:     107295
cpu0_DTLB PREFETCH  ACCESS:          0  HIT:          0  MISS:          0
cpu0_DTLB WRITEBACK ACCESS:          0  HIT:          0  MISS:          0
cpu0_ITLB TOTAL     ACCESS:    6700553  HIT:    6700545  MISS:          8
cpu0_ITLB LOAD      ACCESS:    6700553  HIT:    6700545  MISS:          8
cpu0_ITLB RFO       ACCESS:          0  HIT:          0  MISS:          0
cpu0_ITLB PREFETCH  ACCESS:          0  HIT:          0  MISS:          0
cpu0_ITLB WRITEBACK ACCESS:          0  HIT:          0  MISS:          0
cpu0_L1I TOTAL     ACCESS:       2477  HIT:       2372  MISS:        105
cpu0_L1I LOAD      ACCESS:       2477  HIT:       2372  MISS:        105
cpu0_L1I RFO       ACCESS:          0  HIT:          0  MISS:          0
cpu0_L1I PREFETCH  ACCESS:          0  HIT:          0  MISS:          0
cpu0_L1I WRITEBACK ACCESS:          0  HIT:          0  MISS:          0
cpu0_STLB TOTAL     ACCESS:    1179559  HIT:     988190  MISS:     191369
cpu0_STLB LOAD      ACCESS:    1072264  HIT:     898235  MISS:     174029
cpu0_STLB RFO       ACCESS:     107295  HIT:      89955  MISS:      17340
cpu0_STLB PREFETCH  ACCESS:          0  HIT:          0  MISS:          0
cpu0_STLB WRITEBACK ACCESS:          0  HIT:          0  MISS:          0
cpu0_L1D TOTAL     ACCESS:   12921452  HIT:   11489608  MISS:    1431844
cpu0_L1D LOAD      ACCESS:   10529042  HIT:    9115701  MISS:    1413341
cpu0_L1D RFO       ACCESS:    2212647  HIT:    2194945  MISS:      17702
cpu0_L1D PREFETCH  ACCESS:          0  HIT:          0  MISS:          0
cpu0_L1D WRITEBACK ACCESS:          0  HIT:          0  MISS:          0
cpu0_L2C TOTAL     ACCESS:    1903366  HIT:    1392058  MISS:     511308
cpu0_L2C LOAD      ACCESS:    1413389  HIT:     904746  MISS:     508643
cpu0_L2C RFO       ACCESS:      17700  HIT:      15186  MISS:       2514
cpu0_L2C PREFETCH  ACCESS:          0  HIT:          0  MISS:          0
cpu0_L2C WRITEBACK ACCESS:     471476  HIT:     471435  MISS:         41
LLC TOTAL     ACCESS:     699725  HIT:      53226  MISS:     646499
LLC LOAD      ACCESS:     508576  HIT:      48770  MISS:     459806
LLC RFO       ACCESS:       2514  HIT:        225  MISS:       2289
LLC PREFETCH  ACCESS:          0  HIT:          0  MISS:          0
LLC WRITEBACK ACCESS:     188525  HIT:       4221  MISS:     184304
Heartbeat CPU 0 instructions: 104000000 cycles: 187787466 heartbeat IPC: 0.253549 cumulative IPC: 0.31155 (Simulation time: 1 hr 3 min 2 sec) 

Region of Interest Statistics
cpu0_DTLB TOTAL     ACCESS:   13446054  HIT:   12216315  MISS:    1229739
cpu0_DTLB LOAD      ACCESS:   11961459  HIT:   10842838  MISS:    1118621
cpu0_DTLB RFO       ACCESS:    1484595  HIT:    1373477  MISS:     111118
cpu0_DTLB PREFETCH  ACCESS:          0  HIT:          0  MISS:          0
cpu0_DTLB WRITEBACK ACCESS:          0  HIT:          0  MISS:          0
cpu0_ITLB TOTAL     ACCESS:    6958743  HIT:    6958735  MISS:          8
cpu0_ITLB LOAD      ACCESS:    6958743  HIT:    6958735  MISS:          8
cpu0_ITLB RFO       ACCESS:          0  HIT:          0  MISS:          0
cpu0_ITLB PREFETCH  ACCESS:          0  HIT:          0  MISS:          0
cpu0_ITLB WRITEBACK ACCESS:          0  HIT:          0  MISS:          0
cpu0_L1I TOTAL     ACCESS:       2518  HIT:       2413  MISS:        105
cpu0_L1I LOAD      ACCESS:       2518  HIT:       2413  MISS:        105
cpu0_L1I RFO       ACCESS:          0  HIT:          0  MISS:          0
cpu0_L1I PREFETCH  ACCESS:          0  HIT:          0  MISS:          0
cpu0_L1I WRITEBACK ACCESS:          0  HIT:          0  MISS:          0
cpu0_STLB TOTAL     ACCESS:    1229747  HIT:    1036296  MISS:     193451
cpu0_STLB LOAD      ACCESS:    1118629  HIT:     942558  MISS:     176071
cpu0_STLB RFO       ACCESS:     111118  HIT:      93738  MISS:      17380
cpu0_STLB PREFETCH  ACCESS:          0  HIT:          0  MISS:          0
cpu0_STLB WRITEBACK ACCESS:          0  HIT:          0  MISS:          0
cpu0_L1D TOTAL     ACCESS:   13411356  HIT:   11919832  MISS:    1491524
cpu0_L1D LOAD      ACCESS:   10931520  HIT:    9459107  MISS:    1472413
cpu0_L1D RFO       ACCESS:    2298017  HIT:    2279716  MISS:      18301
cpu0_L1D PREFETCH  ACCESS:          0  HIT:          0  MISS:          0
cpu0_L1D WRITEBACK ACCESS:          0  HIT:          0  MISS:          0
cpu0_L2C TOTAL     ACCESS:    1982894  HIT:    1440823  MISS:     542071
cpu0_L2C LOAD      ACCESS:    1472460  HIT:     933206  MISS:     539254
cpu0_L2C RFO       ACCESS:      18299  HIT:      15635  MISS:       2664
cpu0_L2C PREFETCH  ACCESS:          0  HIT:          0  MISS:          0
cpu0_L2C WRITEBACK ACCESS:     491325  HIT:     491282  MISS:         43
LLC TOTAL     ACCESS:     741227  HIT:      55333  MISS:     685894
LLC LOAD      ACCESS:     539187  HIT:      50832  MISS:     488355
LLC RFO       ACCESS:       2664  HIT:        236  MISS:       2428
LLC PREFETCH  ACCESS:          0  HIT:          0  MISS:          0
LLC WRITEBACK ACCESS:     199266  HIT:       4255  MISS:     195011
Heartbeat CPU 0 instructions: 106000000 cycles: 195083904 heartbeat IPC: 0.274106 cumulative IPC: 0.310037 (Simulation time: 1 hr 4 min 38 sec) 

Region of Interest Statistics
cpu0_DTLB TOTAL     ACCESS:   13943886  HIT:   12667808  MISS:    1276078
cpu0_DTLB LOAD      ACCESS:   12404403  HIT:   11243565  MISS:    1160838
cpu0_DTLB RFO       ACCESS:    1539483  HIT:    1424243  MISS:     115240
cpu0_DTLB PREFETCH  ACCESS:          0  HIT:          0  MISS:          0
cpu0_DTLB WRITEBACK ACCESS:          0  HIT:          0  MISS:          0
cpu0_ITLB TOTAL     ACCESS:    7216509  HIT:    7216501  MISS:          8
cpu0_ITLB LOAD      ACCESS:    7216509  HIT:    7216501  MISS:          8
cpu0_ITLB RFO       ACCESS:          0  HIT:          0  MISS:          0
cpu0_ITLB PREFETCH  ACCESS:          0  HIT:          0  MISS:          0
cpu0_ITLB WRITEBACK ACCESS:          0  HIT:          0  MISS:          0
cpu0_L1I TOTAL     ACCESS:       2574  HIT:       2469  MISS:        105
cpu0_L1I LOAD      ACCESS:       2574  HIT:       2469  MISS:        105
cpu0_L1I RFO       ACCESS:          0  HIT:          0  MISS:          0
cpu0_L1I PREFETCH  ACCESS:          0  HIT:          0  MISS:          0
cpu0_L1I WRITEBACK ACCESS:          0  HIT:          0  MISS:          0
cpu0_STLB TOTAL     ACCESS:    1276086  HIT:    1075505  MISS:     200581
cpu0_STLB LOAD      ACCESS:    1160846  HIT:     978067  MISS:     182779
cpu0_STLB RFO       ACCESS:     115240  HIT:      97438  MISS:      17802
cpu0_STLB PREFETCH  ACCESS:          0  HIT:          0  MISS:          0
cpu0_STLB WRITEBACK ACCESS:          0  HIT:          0  MISS:          0
cpu0_L1D TOTAL     ACCESS:   13907248  HIT:   12359118  MISS:    1548130
cpu0_L1D LOAD      ACCESS:   11334929  HIT:    9806777  MISS:    1528152
cpu0_L1D RFO       ACCESS:    2383538  HIT:    2364440  MISS:      19098
cpu0_L1D PREFETCH  ACCESS:          0  HIT:          0  MISS:          0
cpu0_L1D WRITEBACK ACCESS:          0  HIT:          0  MISS:          0
cpu0_L2C TOTAL     ACCESS:    2058287  HIT:    1489563  MISS:     568724
cpu0_L2C LOAD      ACCESS:    1528198  HIT:     962462  MISS:     565736
cpu0_L2C RFO       ACCESS:      19096  HIT:      16272  MISS:       2824
cpu0_L2C PREFETCH  ACCESS:          0  HIT:          0  MISS:          0
[...]
cpu0_DTLB LOAD      ACCESS:  333328475  HIT:  301788916  MISS:   31539559
cpu0_DTLB RFO       ACCESS:   41019952  HIT:   37333743  MISS:    3686209
cpu0_DTLB PREFETCH  ACCESS:          0  HIT:          0  MISS:          0
cpu0_DTLB WRITEBACK ACCESS:          0  HIT:          0  MISS:          0
cpu0_ITLB TOTAL     ACCESS:  193397422  HIT:  193397414  MISS:          8
cpu0_ITLB LOAD      ACCESS:  193397422  HIT:  193397414  MISS:          8
cpu0_ITLB RFO       ACCESS:          0  HIT:          0  MISS:          0
cpu0_ITLB PREFETCH  ACCESS:          0  HIT:          0  MISS:          0
cpu0_ITLB WRITEBACK ACCESS:          0  HIT:          0  MISS:          0
cpu0_L1I TOTAL     ACCESS:     115323  HIT:     115206  MISS:        117
cpu0_L1I LOAD      ACCESS:     115323  HIT:     115206  MISS:        117
cpu0_L1I RFO       ACCESS:          0  HIT:          0  MISS:          0
cpu0_L1I PREFETCH  ACCESS:          0  HIT:          0  MISS:          0
cpu0_L1I WRITEBACK ACCESS:          0  HIT:          0  MISS:          0
cpu0_STLB TOTAL     ACCESS:   35225776  HIT:   26016324  MISS:    9209452
cpu0_STLB LOAD      ACCESS:   31539567  HIT:   23447669  MISS:    8091898
cpu0_STLB RFO       ACCESS:    3686209  HIT:    2568655  MISS:    1117554
cpu0_STLB PREFETCH  ACCESS:          0  HIT:          0  MISS:          0
cpu0_STLB WRITEBACK ACCESS:          0  HIT:          0  MISS:          0
cpu0_L1D TOTAL     ACCESS:  377054336  HIT:  334070656  MISS:   42983680
cpu0_L1D LOAD      ACCESS:  304810055  HIT:  262419684  MISS:   42390371
cpu0_L1D RFO       ACCESS:   63564438  HIT:   62989460  MISS:     574978
cpu0_L1D PREFETCH  ACCESS:          0  HIT:          0  MISS:          0
cpu0_L1D WRITEBACK ACCESS:          0  HIT:          0  MISS:          0
cpu0_L2C TOTAL     ACCESS:   57108250  HIT:   39255331  MISS:   17852919
cpu0_L2C LOAD      ACCESS:   42389378  HIT:   24643197  MISS:   17746181
cpu0_L2C RFO       ACCESS:     574954  HIT:     472214  MISS:     102740
cpu0_L2C PREFETCH  ACCESS:          0  HIT:          0  MISS:          0
cpu0_L2C WRITEBACK ACCESS:   14125587  HIT:   14124606  MISS:        981
LLC TOTAL     ACCESS:   24262809  HIT:    1454982  MISS:   22807827
LLC LOAD      ACCESS:   17744776  HIT:    1343651  MISS:   16401125
LLC RFO       ACCESS:     102737  HIT:       8618  MISS:      94119
LLC PREFETCH  ACCESS:          0  HIT:          0  MISS:          0
LLC WRITEBACK ACCESS:    6412279  HIT:     102623  MISS:    6309656
Heartbeat CPU 0 instructions: 1550000001 cycles: 5219273424 heartbeat IPC: 0.368319 cumulative IPC: 0.288195 (Simulation time: 14 hr 13 min 30 sec) 

Region of Interest Statistics
cpu0_DTLB TOTAL     ACCESS:  374838963  HIT:  339572346  MISS:   35266617
cpu0_DTLB LOAD      ACCESS:  333763122  HIT:  302187686  MISS:   31575436
cpu0_DTLB RFO       ACCESS:   41075841  HIT:   37384660  MISS:    3691181
cpu0_DTLB PREFETCH  ACCESS:          0  HIT:          0  MISS:          0
cpu0_DTLB WRITEBACK ACCESS:          0  HIT:          0  MISS:          0
cpu0_ITLB TOTAL     ACCESS:  193651730  HIT:  193651722  MISS:          8
cpu0_ITLB LOAD      ACCESS:  193651730  HIT:  193651722  MISS:          8
cpu0_ITLB RFO       ACCESS:          0  HIT:          0  MISS:          0
cpu0_ITLB PREFETCH  ACCESS:          0  HIT:          0  MISS:          0
cpu0_ITLB WRITEBACK ACCESS:          0  HIT:          0  MISS:          0
cpu0_L1I TOTAL     ACCESS:     115399  HIT:     115282  MISS:        117
cpu0_L1I LOAD      ACCESS:     115399  HIT:     115282  MISS:        117
cpu0_L1I RFO       ACCESS:          0  HIT:          0  MISS:          0
cpu0_L1I PREFETCH  ACCESS:          0  HIT:          0  MISS:          0
cpu0_L1I WRITEBACK ACCESS:          0  HIT:          0  MISS:          0
cpu0_STLB TOTAL     ACCESS:   35266625  HIT:   26056805  MISS:    9209820
cpu0_STLB LOAD      ACCESS:   31575444  HIT:   23483180  MISS:    8092264
cpu0_STLB RFO       ACCESS:    3691181  HIT:    2573625  MISS:    1117556
cpu0_STLB PREFETCH  ACCESS:          0  HIT:          0  MISS:          0
cpu0_STLB WRITEBACK ACCESS:          0  HIT:          0  MISS:          0
cpu0_L1D TOTAL     ACCESS:  377538806  HIT:  334508564  MISS:   43030242
cpu0_L1D LOAD      ACCESS:  305206859  HIT:  262769951  MISS:   42436908
cpu0_L1D RFO       ACCESS:   63651736  HIT:   63076733  MISS:     575003
cpu0_L1D PREFETCH  ACCESS:          0  HIT:          0  MISS:          0
cpu0_L1D WRITEBACK ACCESS:          0  HIT:          0  MISS:          0
cpu0_L2C TOTAL     ACCESS:   57171311  HIT:   39302921  MISS:   17868390
cpu0_L2C LOAD      ACCESS:   42435915  HIT:   24674269  MISS:   17761646
cpu0_L2C RFO       ACCESS:     574979  HIT:     472237  MISS:     102742
cpu0_L2C PREFETCH  ACCESS:          0  HIT:          0  MISS:          0
cpu0_L2C WRITEBACK ACCESS:   14142086  HIT:   14141101  MISS:        985
LLC TOTAL     ACCESS:   24285019  HIT:    1457374  MISS:   22827645
LLC LOAD      ACCESS:   17760239  HIT:    1345976  MISS:   16414263
LLC RFO       ACCESS:     102739  HIT:       8618  MISS:      94121
LLC PREFETCH  ACCESS:          0  HIT:          0  MISS:          0
LLC WRITEBACK ACCESS:    6419024  HIT:     102690  MISS:    6316334
Finished CPU 0 instructions: 1500000000 cycles: 5204812835 cumulative IPC: 0.288195 (Simulation time: 14 hr 13 min 30 sec) 

ChampSim completed all CPUs

Region of Interest Statistics

CPU 0 cumulative IPC: 0.288195 instructions: 1500000000 cycles: 5204812835
cpu0_DTLB TOTAL     ACCESS:  374838963  HIT:  339572346  MISS:   35266617
cpu0_DTLB LOAD      ACCESS:  333763122  HIT:  302187686  MISS:   31575436
cpu0_DTLB RFO       ACCESS:   41075841  HIT:   37384660  MISS:    3691181
cpu0_DTLB PREFETCH  ACCESS:          0  HIT:          0  MISS:          0
cpu0_DTLB WRITEBACK ACCESS:          0  HIT:          0  MISS:          0
cpu0_DTLB TRANSLATION ACCESS:          0  HIT:          0  MISS:          0
cpu0_DTLB PREFETCH  REQUESTED:          0  ISSUED:          0  USEFUL:          0  USELESS:          0
cpu0_DTLB AVERAGE MISS LATENCY: 11.0893 cycles
cpu0_ITLB TOTAL     ACCESS:  193651730  HIT:  193651722  MISS:          8
cpu0_ITLB LOAD      ACCESS:  193651730  HIT:  193651722  MISS:          8
cpu0_ITLB RFO       ACCESS:          0  HIT:          0  MISS:          0
cpu0_ITLB PREFETCH  ACCESS:          0  HIT:          0  MISS:          0
cpu0_ITLB WRITEBACK ACCESS:          0  HIT:          0  MISS:          0
cpu0_ITLB TRANSLATION ACCESS:          0  HIT:          0  MISS:          0
cpu0_ITLB PREFETCH  REQUESTED:          0  ISSUED:          0  USEFUL:          0  USELESS:          0
cpu0_ITLB AVERAGE MISS LATENCY: 242.625 cycles
cpu0_L1I TOTAL     ACCESS:     115399  HIT:     115282  MISS:        117
cpu0_L1I LOAD      ACCESS:     115399  HIT:     115282  MISS:        117
cpu0_L1I RFO       ACCESS:          0  HIT:          0  MISS:          0
cpu0_L1I PREFETCH  ACCESS:          0  HIT:          0  MISS:          0
cpu0_L1I WRITEBACK ACCESS:          0  HIT:          0  MISS:          0
cpu0_L1I TRANSLATION ACCESS:          0  HIT:          0  MISS:          0
cpu0_L1I PREFETCH  REQUESTED:          0  ISSUED:          0  USEFUL:          0  USELESS:          0
cpu0_L1I AVERAGE MISS LATENCY: 202.197 cycles
cpu0_STLB TOTAL     ACCESS:   35266625  HIT:   26056805  MISS:    9209820
cpu0_STLB LOAD      ACCESS:   31575444  HIT:   23483180  MISS:    8092264
cpu0_STLB RFO       ACCESS:    3691181  HIT:    2573625  MISS:    1117556
cpu0_STLB PREFETCH  ACCESS:          0  HIT:          0  MISS:          0
cpu0_STLB WRITEBACK ACCESS:          0  HIT:          0  MISS:          0
cpu0_STLB TRANSLATION ACCESS:          0  HIT:          0  MISS:          0
cpu0_STLB PREFETCH  REQUESTED:          0  ISSUED:          0  USEFUL:          0  USELESS:          0
cpu0_STLB AVERAGE MISS LATENCY: 7.97924 cycles
cpu0_L1D TOTAL     ACCESS:  377538806  HIT:  334508564  MISS:   43030242
cpu0_L1D LOAD      ACCESS:  305206859  HIT:  262769951  MISS:   42436908
cpu0_L1D RFO       ACCESS:   63651736  HIT:   63076733  MISS:     575003
cpu0_L1D PREFETCH  ACCESS:          0  HIT:          0  MISS:          0
cpu0_L1D WRITEBACK ACCESS:          0  HIT:          0  MISS:          0
cpu0_L1D TRANSLATION ACCESS:    8680211  HIT:    8661880  MISS:      18331
cpu0_L1D PREFETCH  REQUESTED:          0  ISSUED:          0  USEFUL:          0  USELESS:          0
cpu0_L1D AVERAGE MISS LATENCY: 88.7064 cycles
cpu0_L2C TOTAL     ACCESS:   57171311  HIT:   39302921  MISS:   17868390
cpu0_L2C LOAD      ACCESS:   42435915  HIT:   24674269  MISS:   17761646
cpu0_L2C RFO       ACCESS:     574979  HIT:     472237  MISS:     102742
cpu0_L2C PREFETCH  ACCESS:          0  HIT:          0  MISS:          0
cpu0_L2C WRITEBACK ACCESS:   14142086  HIT:   14141101  MISS:        985
cpu0_L2C TRANSLATION ACCESS:      18331  HIT:      15314  MISS:       3017
cpu0_L2C PREFETCH  REQUESTED:          0  ISSUED:          0  USEFUL:          0  USELESS:          0
cpu0_L2C AVERAGE MISS LATENCY: 187.082 cycles
LLC TOTAL     ACCESS:   24285019  HIT:    1457374  MISS:   22827645
LLC LOAD      ACCESS:   17760239  HIT:    1345976  MISS:   16414263
LLC RFO       ACCESS:     102739  HIT:       8618  MISS:      94121
LLC PREFETCH  ACCESS:          0  HIT:          0  MISS:          0
LLC WRITEBACK ACCESS:    6419024  HIT:     102690  MISS:    6316334
LLC TRANSLATION ACCESS:       3017  HIT:         90  MISS:       2927
LLC PREFETCH  REQUESTED:          0  ISSUED:          0  USEFUL:          0  USELESS:          0
LLC AVERAGE MISS LATENCY: 130.003 cycles
~~~~~~~~~~Reuse Distance Profiler output~~~~~~~~~~
0	0	0
1	0	0
2	0	0
3	0	0
4	0	0
5	0	0
6	0	0
7	0	0
8	0	0
9	0	0
10	0	0
11	0	0
12	0	0
13	0	0
14	0	0
15	0	0
16	0	0
17	0	0
18	0	0
19	0	0
20	0	0
21	0	0
22	0	0
23	0	0
24	0	0
25	0	0
26	0	0
27	0	0
28	0	0
29	0	0
30	0	0
31	0	0
32	0	0
33	0	0
34	0	0
35	0	0
36	0	0
37	0	0
38	0	0
39	0	0
40	0	0
41	0	0
42	0	0
43	0	0
44	0	0
45	0	0
46	0	0
47	0	0
48	0	0
49	0	0
50	0	0
51	0	0
52	0	0
53	0	0
54	0	0
55	0	0
56	0	0
57	0	0
58	0	0
59	0	0
60	0	0
61	0	0
62	0	0
63	0	0
64	0	0
66	0	0
68	0	0
70	0	0
72	0	0
74	0	0
76	0	0
78	0	0
80	0	0
82	0	0
84	0	0
86	0	0
88	0	0
90	0	0
92	0	0
94	0	0
96	0	0
98	0	0
100	0	0
102	0	0
104	0	0
106	0	0
108	0	0
110	0	0
112	0	0
114	0	0
116	0	0
118	0	0
120	0	0
122	0	0
124	0	0
126	0	0
128	0	0
132	0	0
136	0	0
140	0	0
144	0	0
148	0	0
152	0	0
156	0	0
160	0	0
164	0	0
168	0	0
172	0	0
176	0	0
180	0	0
184	0	0
188	0	0
192	0	0
196	0	0
200	0	0
204	0	0
208	0	0
212	0	0
216	0	0
220	0	0
224	0	0
228	0	0
232	0	0
236	0	0
240	0	0
244	0	0
248	0	0
252	0	0
256	0	0
264	0	0
272	0	0
280	0	0
288	0	0
296	0	0
304	0	0
312	0	0
320	0	0
328	0	0
336	0	0
344	0	0
352	0	0
360	0	0
368	0	0
376	0	0
384	0	0
392	0	0
400	0	0
408	0	0
416	0	0
424	0	0
432	0	0
440	0	0
448	0	0
456	0	0
464	0	0
472	0	0
480	0	0
488	0	0
496	0	0
504	0	0
512	0	0
528	0	0
544	0	0
560	0	0
576	0	0
592	0	0
608	0	0
624	0	0
640	0	0
656	0	0
672	0	0
688	0	0
704	0	0
720	0	0
736	0	0
752	0	0
768	0	0
784	0	0
800	0	0
816	0	0
832	0	0
848	0	0
864	0	0
880	0	0
896	0	0
912	0	0
928	0	0
944	0	0
960	0	0
976	0	0
992	0	0
1008	0	0
1024	0	0
1056	0	0
1088	0	0
1120	0	0
1152	0	0
1184	0	0
1216	0	0
1248	0	0
1280	0	0
1312	0	0
1344	0	0
1376	0	0
1408	0	0
1440	0	0
1472	0	0
1504	0	0
1536	0	0
1568	0	0
1600	0	0
1632	0	0
1664	0	0
1696	0	0
1728	0	0
1760	0	0
1792	0	0
1824	0	0
1856	0	0
1888	0	0
1920	0	0
1952	0	0
1984	0	0
2016	0	0
2048	0	0
2112	0	0
2176	0	0
2240	0	0
2304	0	0
2368	0	0
2432	0	0
2496	0	0
2560	0	0
2624	0	0
2688	0	0
2752	0	0
2816	0	0
2880	0	0
2944	0	0
3008	0	0
3072	0	0
3136	0	0
3200	0	0
3264	0	0
3328	0	0
3392	0	0
3456	0	0
3520	0	0
3584	0	0
3648	0	0
3712	0	0
3776	0	0
3840	0	0
3904	0	0
3968	0	0
4032	0	0
4096	0	0
4224	0	0
4352	0	0
4480	0	0
4608	0	0
4736	0	0
4864	0	0
4992	0	0
5120	0	0
5248	0	0
5376	0	0
5504	0	0
5632	0	0
5760	0	0
5888	0	0
6016	0	0
6144	0	0
6272	0	0
6400	0	0
6528	0	0
6656	0	0
6784	0	0
6912	0	0
7040	0	0
7168	0	0
7296	0	0
7424	0	0
7552	0	0
7680	0	0
7808	0	0
7936	0	0
8064	0	0
8192	0	0
8448	0	0
8704	0	0
8960	0	0
9216	0	0
9472	0	0
9728	0	0
9984	0	0
10240	0	0
10496	0	0
10752	0	0
11008	0	0
11264	0	0
11520	0	0
11776	0	0
12032	0	0
12288	0	0
12544	0	0
12800	0	0
13056	0	0
13312	0	0
13568	0	0
13824	0	0
14080	0	0
14336	0	0
14592	0	0
14848	0	0
15104	0	0
15360	0	0
15616	0	0
15872	0	0
16128	0	0
16384	0	0
16896	0	0
17408	0	0
17920	0	0
18432	0	0
18944	0	0
19456	0	0
19968	0	0
20480	0	0
20992	0	0
21504	0	0
22016	0	0
22528	0	0
23040	0	0
23552	0	0
24064	0	0
24576	0	0
25088	0	0
25600	0	0
26112	0	0
26624	0	0
27136	0	0
27648	0	0
28160	0	0
28672	0	0
29184	0	0
29696	0	0
30208	0	0
30720	0	0
31232	0	0
31744	0	0
32256	0	0
32768	0	0
33792	0	0
34816	0	0
35840	0	0
36864	0	0
37888	0	0
38912	0	0
39936	0	0
40960	0	0
41984	0	0
43008	0	0
44032	0	0
45056	0	0
46080	0	0
47104	0	0
48128	0	0
49152	0	0
50176	0	0
51200	0	0
52224	0	0
53248	0	0
54272	0	0
55296	0	0
56320	0	0
57344	0	0
58368	0	0
59392	0	0
60416	0	0
61440	0	0
62464	0	0
63488	0	0
64512	0	0
65536	0	0
67584	0	0
69632	0	0
71680	0	0
73728	0	0
75776	0	0
77824	0	0
79872	0	0
81920	0	0
83968	0	0
86016	0	0
88064	0	0
90112	0	0
92160	0	0
94208	0	0
96256	0	0
98304	0	0
100352	0	0
102400	0	0
104448	0	0
106496	0	0
108544	0	0
110592	0	0
112640	0	0
114688	0	0
116736	0	0
118784	0	0
120832	0	0
122880	0	0
124928	0	0
126976	0	0
129024	0	0
131072	0	0
135168	0	0
139264	0	0
143360	0	0
147456	0	0
151552	0	0
155648	0	0
159744	0	0
163840	0	0
167936	0	0
172032	0	0
176128	0	0
180224	0	0
184320	0	0
188416	0	0
192512	0	0
196608	0	0
200704	0	0
204800	0	0
208896	0	0
212992	0	0
217088	0	0
221184	0	0
225280	0	0
229376	0	0
233472	0	0
237568	0	0
241664	0	0
245760	0	0
249856	0	0
253952	0	0
258048	0	0
262144	0	0
270336	0	0
278528	0	0
286720	0	0
294912	0	0
303104	0	0
311296	0	0
319488	0	0
327680	0	0
335872	0	0
344064	0	0
352256	0	0
360448	0	0
368640	0	0
376832	0	0
385024	0	0
393216	0	0
401408	0	0
409600	0	0
417792	0	0
425984	0	0
434176	0	0
442368	0	0
450560	0	0
458752	0	0
466944	0	0
475136	0	0
483328	0	0
491520	0	0
499712	0	0
507904	0	0
516096	0	0
524288	0	0
540672	0	0
557056	0	0
573440	0	0
589824	0	0
606208	0	0
622592	0	0
638976	0	0
655360	0	0
671744	0	0
688128	0	0
704512	0	0
720896	0	0
737280	0	0
753664	0	0
770048	0	0
786432	0	0
802816	0	0
819200	0	0
835584	0	0
851968	0	0
868352	0	0
884736	0	0
901120	0	0
917504	0	0
933888	0	0
950272	0	0
966656	0	0
983040	0	0
999424	0	0
1015808	0	0
1032192	0	0
1048576	0	0
1081344	0	0
1114112	0	0
1146880	0	0
1179648	0	0
1212416	0	0
1245184	0	0
1277952	0	0
1310720	0	0
1343488	0	0
1376256	0	0
1409024	0	0
1441792	0	0
1474560	0	0
1507328	0	0
1540096	0	0
1572864	0	0
1605632	0	0
1638400	0	0
1671168	0	0
1703936	0	0
1736704	0	0
1769472	0	0
1802240	0	0
1835008	0	0
1867776	0	0
1900544	0	0
1933312	0	0
1966080	0	0
1998848	0	0
2031616	0	0
2064384	0	0
2097152	0	0
2162688	0	0
2228224	0	0
2293760	0	0
2359296	0	0
2424832	0	0
2490368	0	0
2555904	0	0
2621440	0	0
2686976	0	0
2752512	0	0
2818048	0	0
2883584	0	0
2949120	0	0
3014656	0	0
3080192	0	0
3145728	0	0
3211264	0	0
3276800	0	0
3342336	0	0
3407872	0	0
3473408	0	0
3538944	0	0
3604480	0	0
3670016	0	0
3735552	0	0
3801088	0	0
3866624	0	0
3932160	0	0
3997696	0	0
4063232	0	0
4128768	0	0
4194304	0	0
4325376	0	0
4456448	0	0
4587520	0	0
4718592	0	0
4849664	0	0
4980736	0	0
5111808	0	0
5242880	0	0
5373952	0	0
5505024	0	0
5636096	0	0
5767168	0	0
5898240	0	0
6029312	0	0
6160384	0	0
6291456	0	0
6422528	0	0
6553600	0	0
6684672	0	0
6815744	0	0
6946816	0	0
7077888	0	0
7208960	0	0
7340032	0	0
7471104	0	0
7602176	0	0
7733248	0	0
7864320	0	0
7995392	0	0
8126464	0	0
8257536	0	0
8388608	0	0
8650752	0	0
8912896	0	0
9175040	0	0
9437184	0	0
9699328	0	0
9961472	0	0
10223616	0	0
10485760	0	0
10747904	0	0
11010048	0	0
11272192	0	0
11534336	0	0
11796480	0	0
12058624	0	0
12320768	0	0
12582912	0	0
12845056	0	0
13107200	0	0
13369344	0	0
13631488	0	0
13893632	0	0
14155776	0	0
14417920	0	0
14680064	0	0
14942208	0	0
15204352	0	0
15466496	0	0
15728640	0	0
15990784	0	0
16252928	0	0
16515072	0	0
16777216	0	0
17301504	0	0
17825792	0	0
18350080	0	0
18874368	0	0
19398656	0	0
19922944	0	0
20447232	0	0
20971520	0	0
21495808	0	0
22020096	0	0
22544384	0	0
23068672	0	0
23592960	0	0
24117248	0	0
24641536	0	0
25165824	0	0
25690112	0	0
26214400	0	0
26738688	0	0
27262976	0	0
27787264	0	0
28311552	0	0
28835840	0	0
29360128	0	0
29884416	0	0
30408704	0	0
30932992	0	0
31457280	0	0
31981568	0	0
32505856	0	0
33030144	0	0
33554432	0	0
34603008	0	0
35651584	0	0
36700160	0	0
37748736	0	0
38797312	0	0
39845888	0	0
40894464	0	0
41943040	0	0
42991616	0	0
44040192	0	0
45088768	0	0
46137344	0	0
47185920	0	0
48234496	0	0
49283072	0	0
50331648	0	0
51380224	0	0
52428800	0	0
53477376	0	0
54525952	0	0
55574528	0	0
56623104	0	0
57671680	0	0
58720256	0	0
59768832	0	0
60817408	0	0
61865984	0	0
62914560	0	0
63963136	0	0
65011712	0	0
66060288	0	0
67108864	0	0
69206016	0	0
71303168	0	0
73400320	0	0
75497472	0	0
77594624	0	0
79691776	0	0
81788928	0	0
83886080	0	0
85983232	0	0
88080384	0	0
90177536	0	0
92274688	0	0
94371840	0	0
96468992	0	0
98566144	0	0
100663296	0	0
102760448	0	0
104857600	0	0
106954752	0	0
109051904	0	0
111149056	0	0
113246208	0	0
115343360	0	0
117440512	0	0
119537664	0	0
121634816	0	0
123731968	0	0
125829120	0	0
127926272	0	0
130023424	0	0
132120576	0	0
134217728	0	0
138412032	0	0
142606336	0	0
146800640	0	0
150994944	0	0
155189248	0	0
159383552	0	0
163577856	0	0
167772160	0	0
171966464	0	0
176160768	0	0
180355072	0	0
184549376	0	0
188743680	0	0
192937984	0	0
197132288	0	0
201326592	0	0
205520896	0	0
209715200	0	0
213909504	0	0
218103808	0	0
222298112	0	0
226492416	0	0
230686720	0	0
234881024	0	0
239075328	0	0
243269632	0	0
247463936	0	0
251658240	0	0
255852544	0	0
260046848	0	0
264241152	0	0
268435456	0	0
276824064	0	0
285212672	0	0
293601280	0	0
301989888	0	0
310378496	0	0
318767104	0	0
327155712	0	0
335544320	0	0
343932928	0	0
352321536	0	0
360710144	0	0
369098752	0	0
377487360	0	0
385875968	0	0
394264576	0	0
402653184	0	0
411041792	0	0
419430400	0	0
427819008	0	0
436207616	0	0
444596224	0	0
452984832	0	0
461373440	0	0
469762048	0	0
478150656	0	0
486539264	0	0
494927872	0	0
503316480	0	0
511705088	0	0
520093696	0	0
528482304	0	0
536870912	0	0
553648128	0	0
570425344	0	0
587202560	0	0
603979776	0	0
620756992	0	0
637534208	0	0
654311424	0	0
671088640	0	0
687865856	0	0
704643072	0	0
721420288	0	0
738197504	0	0
754974720	0	0
771751936	0	0
788529152	0	0
805306368	0	0
822083584	0	0
838860800	0	0
855638016	0	0
872415232	0	0
889192448	0	0
905969664	0	0
922746880	0	0
939524096	0	0
956301312	0	0
973078528	0	0
989855744	0	0
1006632960	0	0
1023410176	0	0
1040187392	0	0
1056964608	0	0
1073741824	0	0
1107296256	0	0
1140850688	0	0
1174405120	0	0
1207959552	0	0
1241513984	0	0
1275068416	0	0
1308622848	0	0
1342177280	0	0
1375731712	0	0
1409286144	0	0
1442840576	0	0
1476395008	0	0
1509949440	0	0
1543503872	0	0
1577058304	0	0
1610612736	0	0
1644167168	0	0
1677721600	0	0
1711276032	0	0
1744830464	0	0
1778384896	0	0
1811939328	0	0
1845493760	0	0
1879048192	0	0
1912602624	0	0
1946157056	0	0
1979711488	0	0
2013265920	0	0
2046820352	0	0
2080374784	0	0
2113929216	0	0
2147483648	0	0
2214592512	0	0
2281701376	0	0
2348810240	0	0
2415919104	0	0
2483027968	0	0
2550136832	0	0
2617245696	0	0
2684354560	0	0
2751463424	0	0
2818572288	0	0
2885681152	0	0
2952790016	0	0
3019898880	0	0
3087007744	0	0
3154116608	0	0
3221225472	0	0
3288334336	0	0
3355443200	0	0
3422552064	0	0
3489660928	0	0
3556769792	0	0
3623878656	0	0
3690987520	0	0
3758096384	0	0
3825205248	0	0
3892314112	0	0
3959422976	0	0
4026531840	0	0
4093640704	0	0
4160749568	0	0
4227858432	0	0
~~~~~~~~~~Reuse Distance Profiler output end~~~~~~~~~~


DRAM Statistics
 CHANNEL 0
 RQ ROW_BUFFER_HIT:      31612  ROW_BUFFER_MISS:   15817066
 DBUS AVG_CONGESTED_CYCLE:    3.63783
 WQ ROW_BUFFER_HIT:     437166  ROW_BUFFER_MISS:    5912468  FULL:          0


CPU 0 Branch Prediction Accuracy: 69.4253% MPKI: 57.746 Average ROB Occupancy at Mispredict: 5.44803
Branch type MPKI
BRANCH_DIRECT_JUMP: 2.46667e-05
BRANCH_INDIRECT: 0
BRANCH_CONDITIONAL: 57.746
BRANCH_DIRECT_CALL: 1.2e-05
BRANCH_INDIRECT_CALL: 0
BRANCH_RETURN: 1.33333e-05

