
*** ChampSim Multicore Out-of-Order Simulator ***

Warmup Instructions: 50000000
Simulation Instructions: 1500000000
Number of CPUs: 1
Off-chip DRAM Size: 4 GiB Channels: 1 Width: 64-bit Data Rate: 3200 MT/s

VirtualMemory physical capacity: 8588881920 num_ppages: 2096895
VirtualMemory page size: 4096 log2_page_size: 12

CPU 0 runs traces/473.astar-153B.champsimtrace.xz
CPU 0 Bimodal branch predictor
Basic BTB sets: 1024 ways: 8 indirect buffer size: 4096 RAS size: 64
Initializing LRU.
Initializing LRU.
Initializing LRU.
Initializing LRU.
Initializing rdLRU.
Initializing LRU.
Initializing LRU.
Heartbeat CPU 0 instructions: 2000001 cycles: 500081 heartbeat IPC: 3.99935 cumulative IPC: 3.99935 (Simulation time: 0 hr 0 min 41 sec) 
Heartbeat CPU 0 instructions: 4000001 cycles: 1000081 heartbeat IPC: 4 cumulative IPC: 3.99968 (Simulation time: 0 hr 1 min 13 sec) 
Heartbeat CPU 0 instructions: 6000001 cycles: 1500081 heartbeat IPC: 4 cumulative IPC: 3.99978 (Simulation time: 0 hr 1 min 49 sec) 
Heartbeat CPU 0 instructions: 8000001 cycles: 2000081 heartbeat IPC: 4 cumulative IPC: 3.99984 (Simulation time: 0 hr 2 min 27 sec) 
Heartbeat CPU 0 instructions: 10000001 cycles: 2500081 heartbeat IPC: 4 cumulative IPC: 3.99987 (Simulation time: 0 hr 3 min 4 sec) 
Heartbeat CPU 0 instructions: 12000001 cycles: 3000081 heartbeat IPC: 4 cumulative IPC: 3.99989 (Simulation time: 0 hr 3 min 39 sec) 
Heartbeat CPU 0 instructions: 14000001 cycles: 3500081 heartbeat IPC: 4 cumulative IPC: 3.99991 (Simulation time: 0 hr 4 min 17 sec) 
Heartbeat CPU 0 instructions: 16000001 cycles: 4000081 heartbeat IPC: 4 cumulative IPC: 3.99992 (Simulation time: 0 hr 4 min 53 sec) 
Heartbeat CPU 0 instructions: 18000001 cycles: 4500081 heartbeat IPC: 4 cumulative IPC: 3.99993 (Simulation time: 0 hr 5 min 30 sec) 
Heartbeat CPU 0 instructions: 20000001 cycles: 5000081 heartbeat IPC: 4 cumulative IPC: 3.99994 (Simulation time: 0 hr 6 min 8 sec) 
Heartbeat CPU 0 instructions: 22000001 cycles: 5500081 heartbeat IPC: 4 cumulative IPC: 3.99994 (Simulation time: 0 hr 6 min 45 sec) 
Heartbeat CPU 0 instructions: 24000001 cycles: 6000081 heartbeat IPC: 4 cumulative IPC: 3.99995 (Simulation time: 0 hr 7 min 22 sec) 
Heartbeat CPU 0 instructions: 26000001 cycles: 6500081 heartbeat IPC: 4 cumulative IPC: 3.99995 (Simulation time: 0 hr 7 min 59 sec) 
Heartbeat CPU 0 instructions: 28000001 cycles: 7000081 heartbeat IPC: 4 cumulative IPC: 3.99995 (Simulation time: 0 hr 8 min 35 sec) 
Heartbeat CPU 0 instructions: 30000001 cycles: 7500081 heartbeat IPC: 4 cumulative IPC: 3.99996 (Simulation time: 0 hr 9 min 11 sec) 
Heartbeat CPU 0 instructions: 32000001 cycles: 8000081 heartbeat IPC: 4 cumulative IPC: 3.99996 (Simulation time: 0 hr 9 min 49 sec) 
Heartbeat CPU 0 instructions: 34000001 cycles: 8500081 heartbeat IPC: 4 cumulative IPC: 3.99996 (Simulation time: 0 hr 10 min 25 sec) 
Heartbeat CPU 0 instructions: 36000001 cycles: 9000081 heartbeat IPC: 4 cumulative IPC: 3.99996 (Simulation time: 0 hr 11 min 1 sec) 
Heartbeat CPU 0 instructions: 38000001 cycles: 9500081 heartbeat IPC: 4 cumulative IPC: 3.99997 (Simulation time: 0 hr 11 min 38 sec) 
Heartbeat CPU 0 instructions: 40000001 cycles: 10000081 heartbeat IPC: 4 cumulative IPC: 3.99997 (Simulation time: 0 hr 12 min 14 sec) 
Heartbeat CPU 0 instructions: 42000001 cycles: 10500081 heartbeat IPC: 4 cumulative IPC: 3.99997 (Simulation time: 0 hr 12 min 48 sec) 
Heartbeat CPU 0 instructions: 44000001 cycles: 11000081 heartbeat IPC: 4 cumulative IPC: 3.99997 (Simulation time: 0 hr 13 min 26 sec) 
Heartbeat CPU 0 instructions: 46000001 cycles: 11500081 heartbeat IPC: 4 cumulative IPC: 3.99997 (Simulation time: 0 hr 14 min 2 sec) 
Heartbeat CPU 0 instructions: 48000001 cycles: 12000081 heartbeat IPC: 4 cumulative IPC: 3.99997 (Simulation time: 0 hr 14 min 40 sec) 
Heartbeat CPU 0 instructions: 50000001 cycles: 12500081 heartbeat IPC: 4 cumulative IPC: 3.99997 (Simulation time: 0 hr 15 min 19 sec) 

Warmup complete CPU 0 instructions: 50000001 cycles: 12500081 (Simulation time: 0 hr 15 min 19 sec) 

Heartbeat CPU 0 instructions: 52000003 cycles: 15040773 heartbeat IPC: 0.787188 cumulative IPC: 0.787188 (Simulation time: 0 hr 16 min 8 sec) 

Region of Interest Statistics
cpu0_DTLB TOTAL     ACCESS:     498449  HIT:     492824  MISS:       5625
cpu0_DTLB LOAD      ACCESS:     390709  HIT:     385145  MISS:       5564
cpu0_DTLB RFO       ACCESS:     107740  HIT:     107679  MISS:         61
cpu0_DTLB PREFETCH  ACCESS:          0  HIT:          0  MISS:          0
cpu0_DTLB WRITEBACK ACCESS:          0  HIT:          0  MISS:          0
cpu0_ITLB TOTAL     ACCESS:     227799  HIT:     227799  MISS:          0
cpu0_ITLB LOAD      ACCESS:     227799  HIT:     227799  MISS:          0
cpu0_ITLB RFO       ACCESS:          0  HIT:          0  MISS:          0
cpu0_ITLB PREFETCH  ACCESS:          0  HIT:          0  MISS:          0
cpu0_ITLB WRITEBACK ACCESS:          0  HIT:          0  MISS:          0
cpu0_STLB TOTAL     ACCESS:       5625  HIT:       5443  MISS:        182
cpu0_STLB LOAD      ACCESS:       5564  HIT:       5388  MISS:        176
cpu0_STLB RFO       ACCESS:         61  HIT:         55  MISS:          6
cpu0_STLB PREFETCH  ACCESS:          0  HIT:          0  MISS:          0
cpu0_STLB WRITEBACK ACCESS:          0  HIT:          0  MISS:          0
cpu0_L1D TOTAL     ACCESS:     604780  HIT:     598223  MISS:       6557
cpu0_L1D LOAD      ACCESS:     342001  HIT:     335968  MISS:       6033
cpu0_L1D RFO       ACCESS:     262597  HIT:     262074  MISS:        523
cpu0_L1D PREFETCH  ACCESS:          0  HIT:          0  MISS:          0
cpu0_L1D WRITEBACK ACCESS:          0  HIT:          0  MISS:          0
cpu0_L2C TOTAL     ACCESS:       9922  HIT:       5136  MISS:       4786
cpu0_L2C LOAD      ACCESS:       6030  HIT:       1709  MISS:       4321
cpu0_L2C RFO       ACCESS:        523  HIT:         59  MISS:        464
cpu0_L2C PREFETCH  ACCESS:          0  HIT:          0  MISS:          0
cpu0_L2C WRITEBACK ACCESS:       3368  HIT:       3367  MISS:          1
LLC TOTAL     ACCESS:       7668  HIT:       1770  MISS:       5898
LLC LOAD      ACCESS:       4321  HIT:        936  MISS:       3385
LLC RFO       ACCESS:        464  HIT:         29  MISS:        435
LLC PREFETCH  ACCESS:          0  HIT:          0  MISS:          0
LLC WRITEBACK ACCESS:       2883  HIT:        805  MISS:       2078
Heartbeat CPU 0 instructions: 54000001 cycles: 17695871 heartbeat IPC: 0.753267 cumulative IPC: 0.769854 (Simulation time: 0 hr 16 min 59 sec) 

Region of Interest Statistics
cpu0_DTLB TOTAL     ACCESS:     997339  HIT:     985891  MISS:      11448
cpu0_DTLB LOAD      ACCESS:     781754  HIT:     770390  MISS:      11364
cpu0_DTLB RFO       ACCESS:     215585  HIT:     215501  MISS:         84
cpu0_DTLB PREFETCH  ACCESS:          0  HIT:          0  MISS:          0
cpu0_DTLB WRITEBACK ACCESS:          0  HIT:          0  MISS:          0
cpu0_ITLB TOTAL     ACCESS:     456696  HIT:     456696  MISS:          0
cpu0_ITLB LOAD      ACCESS:     456696  HIT:     456696  MISS:          0
cpu0_ITLB RFO       ACCESS:          0  HIT:          0  MISS:          0
cpu0_ITLB PREFETCH  ACCESS:          0  HIT:          0  MISS:          0
cpu0_ITLB WRITEBACK ACCESS:          0  HIT:          0  MISS:          0
cpu0_STLB TOTAL     ACCESS:      11448  HIT:      11085  MISS:        363
cpu0_STLB LOAD      ACCESS:      11364  HIT:      11014  MISS:        350
cpu0_STLB RFO       ACCESS:         84  HIT:         71  MISS:         13
cpu0_STLB PREFETCH  ACCESS:          0  HIT:          0  MISS:          0
cpu0_STLB WRITEBACK ACCESS:          0  HIT:          0  MISS:          0
cpu0_L1D TOTAL     ACCESS:    1207786  HIT:    1194318  MISS:      13468
cpu0_L1D LOAD      ACCESS:     682582  HIT:     670173  MISS:      12409
cpu0_L1D RFO       ACCESS:     524841  HIT:     523789  MISS:       1052
cpu0_L1D PREFETCH  ACCESS:          0  HIT:          0  MISS:          0
cpu0_L1D WRITEBACK ACCESS:          0  HIT:          0  MISS:          0
cpu0_L2C TOTAL     ACCESS:      20431  HIT:       9990  MISS:      10441
cpu0_L2C LOAD      ACCESS:      12406  HIT:       2924  MISS:       9482
cpu0_L2C RFO       ACCESS:       1052  HIT:         94  MISS:        958
cpu0_L2C PREFETCH  ACCESS:          0  HIT:          0  MISS:          0
cpu0_L2C WRITEBACK ACCESS:       6966  HIT:       6965  MISS:          1
LLC TOTAL     ACCESS:      16616  HIT:       3372  MISS:      13244
LLC LOAD      ACCESS:       9482  HIT:       1799  MISS:       7683
LLC RFO       ACCESS:        958  HIT:         43  MISS:        915
LLC PREFETCH  ACCESS:          0  HIT:          0  MISS:          0
LLC WRITEBACK ACCESS:       6176  HIT:       1530  MISS:       4646
Heartbeat CPU 0 instructions: 56000000 cycles: 20256971 heartbeat IPC: 0.780914 cumulative IPC: 0.773506 (Simulation time: 0 hr 17 min 49 sec) 

Region of Interest Statistics
cpu0_DTLB TOTAL     ACCESS:    1493830  HIT:    1477135  MISS:      16695
cpu0_DTLB LOAD      ACCESS:    1170391  HIT:    1153822  MISS:      16569
cpu0_DTLB RFO       ACCESS:     323439  HIT:     323313  MISS:        126
cpu0_DTLB PREFETCH  ACCESS:          0  HIT:          0  MISS:          0
cpu0_DTLB WRITEBACK ACCESS:          0  HIT:          0  MISS:          0
cpu0_ITLB TOTAL     ACCESS:     684023  HIT:     684023  MISS:          0
cpu0_ITLB LOAD      ACCESS:     684023  HIT:     684023  MISS:          0
cpu0_ITLB RFO       ACCESS:          0  HIT:          0  MISS:          0
cpu0_ITLB PREFETCH  ACCESS:          0  HIT:          0  MISS:          0
cpu0_ITLB WRITEBACK ACCESS:          0  HIT:          0  MISS:          0
cpu0_STLB TOTAL     ACCESS:      16695  HIT:      16186  MISS:        509
cpu0_STLB LOAD      ACCESS:      16569  HIT:      16074  MISS:        495
cpu0_STLB RFO       ACCESS:        126  HIT:        112  MISS:         14
cpu0_STLB PREFETCH  ACCESS:          0  HIT:          0  MISS:          0
cpu0_STLB WRITEBACK ACCESS:          0  HIT:          0  MISS:          0
cpu0_L1D TOTAL     ACCESS:    1810002  HIT:    1790141  MISS:      19861
cpu0_L1D LOAD      ACCESS:    1022022  HIT:    1003734  MISS:      18288
cpu0_L1D RFO       ACCESS:     787471  HIT:     785907  MISS:       1564
cpu0_L1D PREFETCH  ACCESS:          0  HIT:          0  MISS:          0
cpu0_L1D WRITEBACK ACCESS:          0  HIT:          0  MISS:          0
cpu0_L2C TOTAL     ACCESS:      30122  HIT:      14692  MISS:      15430
cpu0_L2C LOAD      ACCESS:      18282  HIT:       4280  MISS:      14002
cpu0_L2C RFO       ACCESS:       1564  HIT:        137  MISS:       1427
cpu0_L2C PREFETCH  ACCESS:          0  HIT:          0  MISS:          0
cpu0_L2C WRITEBACK ACCESS:      10267  HIT:      10266  MISS:          1
LLC TOTAL     ACCESS:      24383  HIT:       5024  MISS:      19359
LLC LOAD      ACCESS:      14002  HIT:       2678  MISS:      11324
LLC RFO       ACCESS:       1427  HIT:         67  MISS:       1360
LLC PREFETCH  ACCESS:          0  HIT:          0  MISS:          0
LLC WRITEBACK ACCESS:       8954  HIT:       2279  MISS:       6675
Heartbeat CPU 0 instructions: 58000002 cycles: 22706012 heartbeat IPC: 0.816647 cumulative IPC: 0.783858 (Simulation time: 0 hr 18 min 37 sec) 

Region of Interest Statistics
cpu0_DTLB TOTAL     ACCESS:    1993994  HIT:    1972580  MISS:      21414
cpu0_DTLB LOAD      ACCESS:    1562865  HIT:    1541671  MISS:      21194
cpu0_DTLB RFO       ACCESS:     431129  HIT:     430909  MISS:        220
cpu0_DTLB PREFETCH  ACCESS:          0  HIT:          0  MISS:          0
cpu0_DTLB WRITEBACK ACCESS:          0  HIT:          0  MISS:          0
cpu0_ITLB TOTAL     ACCESS:     911898  HIT:     911898  MISS:          0
cpu0_ITLB LOAD      ACCESS:     911898  HIT:     911898  MISS:          0
cpu0_ITLB RFO       ACCESS:          0  HIT:          0  MISS:          0
cpu0_ITLB PREFETCH  ACCESS:          0  HIT:          0  MISS:          0
cpu0_ITLB WRITEBACK ACCESS:          0  HIT:          0  MISS:          0
cpu0_STLB TOTAL     ACCESS:      21414  HIT:      20762  MISS:        652
cpu0_STLB LOAD      ACCESS:      21194  HIT:      20587  MISS:        607
cpu0_STLB RFO       ACCESS:        220  HIT:        175  MISS:         45
cpu0_STLB PREFETCH  ACCESS:          0  HIT:          0  MISS:          0
cpu0_STLB WRITEBACK ACCESS:          0  HIT:          0  MISS:          0
cpu0_L1D TOTAL     ACCESS:    2417480  HIT:    2392174  MISS:      25306
cpu0_L1D LOAD      ACCESS:    1367596  HIT:    1344716  MISS:      22880
cpu0_L1D RFO       ACCESS:    1049232  HIT:    1046816  MISS:       2416
cpu0_L1D PREFETCH  ACCESS:          0  HIT:          0  MISS:          0
cpu0_L1D WRITEBACK ACCESS:          0  HIT:          0  MISS:          0
cpu0_L2C TOTAL     ACCESS:      38578  HIT:      19379  MISS:      19199
cpu0_L2C LOAD      ACCESS:      22872  HIT:       5862  MISS:      17010
cpu0_L2C RFO       ACCESS:       2416  HIT:        229  MISS:       2187
cpu0_L2C PREFETCH  ACCESS:          0  HIT:          0  MISS:          0
cpu0_L2C WRITEBACK ACCESS:      13280  HIT:      13278  MISS:          2
LLC TOTAL     ACCESS:      30505  HIT:       6325  MISS:      24180
LLC LOAD      ACCESS:      17010  HIT:       3304  MISS:      13706
LLC RFO       ACCESS:       2187  HIT:        114  MISS:       2073
LLC PREFETCH  ACCESS:          0  HIT:          0  MISS:          0
LLC WRITEBACK ACCESS:      11308  HIT:       2907  MISS:       8401
Heartbeat CPU 0 instructions: 60000001 cycles: 25041176 heartbeat IPC: 0.85647 cumulative IPC: 0.797379 (Simulation time: 0 hr 19 min 24 sec) 

Region of Interest Statistics
cpu0_DTLB TOTAL     ACCESS:    2498572  HIT:    2474146  MISS:      24426
cpu0_DTLB LOAD      ACCESS:    1959703  HIT:    1935596  MISS:      24107
cpu0_DTLB RFO       ACCESS:     538869  HIT:     538550  MISS:        319
cpu0_DTLB PREFETCH  ACCESS:          0  HIT:          0  MISS:          0
cpu0_DTLB WRITEBACK ACCESS:          0  HIT:          0  MISS:          0
cpu0_ITLB TOTAL     ACCESS:    1140585  HIT:    1140585  MISS:          0
cpu0_ITLB LOAD      ACCESS:    1140585  HIT:    1140585  MISS:          0
cpu0_ITLB RFO       ACCESS:          0  HIT:          0  MISS:          0
cpu0_ITLB PREFETCH  ACCESS:          0  HIT:          0  MISS:          0
cpu0_ITLB WRITEBACK ACCESS:          0  HIT:          0  MISS:          0
cpu0_STLB TOTAL     ACCESS:      24426  HIT:      23709  MISS:        717
cpu0_STLB LOAD      ACCESS:      24107  HIT:      23475  MISS:        632
cpu0_STLB RFO       ACCESS:        319  HIT:        234  MISS:         85
cpu0_STLB PREFETCH  ACCESS:          0  HIT:          0  MISS:          0
cpu0_STLB WRITEBACK ACCESS:          0  HIT:          0  MISS:          0
cpu0_L1D TOTAL     ACCESS:    3031571  HIT:    3001868  MISS:      29703
cpu0_L1D LOAD      ACCESS:    1720986  HIT:    1695145  MISS:      25841
cpu0_L1D RFO       ACCESS:    1309868  HIT:    1306028  MISS:       3840
cpu0_L1D PREFETCH  ACCESS:          0  HIT:          0  MISS:          0
cpu0_L1D WRITEBACK ACCESS:          0  HIT:          0  MISS:          0
cpu0_L2C TOTAL     ACCESS:      45801  HIT:      24001  MISS:      21800
cpu0_L2C LOAD      ACCESS:      25833  HIT:       7569  MISS:      18264
cpu0_L2C RFO       ACCESS:       3840  HIT:        306  MISS:       3534
cpu0_L2C PREFETCH  ACCESS:          0  HIT:          0  MISS:          0
cpu0_L2C WRITEBACK ACCESS:      16106  HIT:      16104  MISS:          2
LLC TOTAL     ACCESS:      34784  HIT:       6917  MISS:      27867
LLC LOAD      ACCESS:      18264  HIT:       3432  MISS:      14832
LLC RFO       ACCESS:       3534  HIT:        142  MISS:       3392
LLC PREFETCH  ACCESS:          0  HIT:          0  MISS:          0
LLC WRITEBACK ACCESS:      12986  HIT:       3343  MISS:       9643
Heartbeat CPU 0 instructions: 62000003 cycles: 27620590 heartbeat IPC: 0.775371 cumulative IPC: 0.793624 (Simulation time: 0 hr 20 min 16 sec) 

Region of Interest Statistics
cpu0_DTLB TOTAL     ACCESS:    2998475  HIT:    2969050  MISS:      29425
cpu0_DTLB LOAD      ACCESS:    2351871  HIT:    2322846  MISS:      29025
cpu0_DTLB RFO       ACCESS:     646604  HIT:     646204  MISS:        400
cpu0_DTLB PREFETCH  ACCESS:          0  HIT:          0  MISS:          0
cpu0_DTLB WRITEBACK ACCESS:          0  HIT:          0  MISS:          0
cpu0_ITLB TOTAL     ACCESS:    1369160  HIT:    1369160  MISS:          0
cpu0_ITLB LOAD      ACCESS:    1369160  HIT:    1369160  MISS:          0
cpu0_ITLB RFO       ACCESS:          0  HIT:          0  MISS:          0
cpu0_ITLB PREFETCH  ACCESS:          0  HIT:          0  MISS:          0
cpu0_ITLB WRITEBACK ACCESS:          0  HIT:          0  MISS:          0
cpu0_STLB TOTAL     ACCESS:      29425  HIT:      28563  MISS:        862
cpu0_STLB LOAD      ACCESS:      29025  HIT:      28306  MISS:        719
cpu0_STLB RFO       ACCESS:        400  HIT:        257  MISS:        143
cpu0_STLB PREFETCH  ACCESS:          0  HIT:          0  MISS:          0
cpu0_STLB WRITEBACK ACCESS:          0  HIT:          0  MISS:          0
cpu0_L1D TOTAL     ACCESS:    3637606  HIT:    3602251  MISS:      35355
cpu0_L1D LOAD      ACCESS:    2065591  HIT:    2034873  MISS:      30718
cpu0_L1D RFO       ACCESS:    1571153  HIT:    1566542  MISS:       4611
cpu0_L1D PREFETCH  ACCESS:          0  HIT:          0  MISS:          0
cpu0_L1D WRITEBACK ACCESS:          0  HIT:          0  MISS:          0
cpu0_L2C TOTAL     ACCESS:      54803  HIT:      28192  MISS:      26611
cpu0_L2C LOAD      ACCESS:      30710  HIT:       8369  MISS:      22341
cpu0_L2C RFO       ACCESS:       4611  HIT:        344  MISS:       4267
cpu0_L2C PREFETCH  ACCESS:          0  HIT:          0  MISS:          0
cpu0_L2C WRITEBACK ACCESS:      19456  HIT:      19454  MISS:          2
LLC TOTAL     ACCESS:      42691  HIT:       7933  MISS:      34758
LLC LOAD      ACCESS:      22341  HIT:       3849  MISS:      18492
LLC RFO       ACCESS:       4267  HIT:        179  MISS:       4088
LLC PREFETCH  ACCESS:          0  HIT:          0  MISS:          0
LLC WRITEBACK ACCESS:      16082  HIT:       3905  MISS:      12177
Heartbeat CPU 0 instructions: 64000003 cycles: 30052627 heartbeat IPC: 0.822356 cumulative IPC: 0.797605 (Simulation time: 0 hr 21 min 1 sec) 

Region of Interest Statistics
cpu0_DTLB TOTAL     ACCESS:    3500830  HIT:    3466869  MISS:      33961
cpu0_DTLB LOAD      ACCESS:    2747175  HIT:    2713708  MISS:      33467
cpu0_DTLB RFO       ACCESS:     753655  HIT:     753161  MISS:        494
cpu0_DTLB PREFETCH  ACCESS:          0  HIT:          0  MISS:          0
cpu0_DTLB WRITEBACK ACCESS:          0  HIT:          0  MISS:          0
cpu0_ITLB TOTAL     ACCESS:    1597164  HIT:    1597164  MISS:          0
cpu0_ITLB LOAD      ACCESS:    1597164  HIT:    1597164  MISS:          0
cpu0_ITLB RFO       ACCESS:          0  HIT:          0  MISS:          0
cpu0_ITLB PREFETCH  ACCESS:          0  HIT:          0  MISS:          0
cpu0_ITLB WRITEBACK ACCESS:          0  HIT:          0  MISS:          0
cpu0_STLB TOTAL     ACCESS:      33961  HIT:      32994  MISS:        967
cpu0_STLB LOAD      ACCESS:      33467  HIT:      32684  MISS:        783
cpu0_STLB RFO       ACCESS:        494  HIT:        310  MISS:        184
cpu0_STLB PREFETCH  ACCESS:          0  HIT:          0  MISS:          0
cpu0_STLB WRITEBACK ACCESS:          0  HIT:          0  MISS:          0
cpu0_L1D TOTAL     ACCESS:    4244248  HIT:    4203484  MISS:      40764
cpu0_L1D LOAD      ACCESS:    2412002  HIT:    2376974  MISS:      35028
cpu0_L1D RFO       ACCESS:    1831279  HIT:    1825571  MISS:       5708
cpu0_L1D PREFETCH  ACCESS:          0  HIT:          0  MISS:          0
cpu0_L1D WRITEBACK ACCESS:          0  HIT:          0  MISS:          0
cpu0_L2C TOTAL     ACCESS:      63274  HIT:      33356  MISS:      29918
cpu0_L2C LOAD      ACCESS:      35020  HIT:      10399  MISS:      24621
cpu0_L2C RFO       ACCESS:       5708  HIT:        414  MISS:       5294
cpu0_L2C PREFETCH  ACCESS:          0  HIT:          0  MISS:          0
cpu0_L2C WRITEBACK ACCESS:      22518  HIT:      22516  MISS:          2
LLC TOTAL     ACCESS:      48207  HIT:       8589  MISS:      39618
LLC LOAD      ACCESS:      24621  HIT:       4036  MISS:      20585
LLC RFO       ACCESS:       5294  HIT:        235  MISS:       5059
LLC PREFETCH  ACCESS:          0  HIT:          0  MISS:          0
LLC WRITEBACK ACCESS:      18291  HIT:       4318  MISS:      13973
Heartbeat CPU 0 instructions: 66000002 cycles: 32522518 heartbeat IPC: 0.809752 cumulative IPC: 0.799104 (Simulation time: 0 hr 21 min 51 sec) 

Region of Interest Statistics
cpu0_DTLB TOTAL     ACCESS:    4000922  HIT:    3961209  MISS:      39713
cpu0_DTLB LOAD      ACCESS:    3139643  HIT:    3100577  MISS:      39066
cpu0_DTLB RFO       ACCESS:     861279  HIT:     860632  MISS:        647
cpu0_DTLB PREFETCH  ACCESS:          0  HIT:          0  MISS:          0
cpu0_DTLB WRITEBACK ACCESS:          0  HIT:          0  MISS:          0
cpu0_ITLB TOTAL     ACCESS:    1824871  HIT:    1824871  MISS:          0
cpu0_ITLB LOAD      ACCESS:    1824871  HIT:    1824871  MISS:          0
cpu0_ITLB RFO       ACCESS:          0  HIT:          0  MISS:          0
cpu0_ITLB PREFETCH  ACCESS:          0  HIT:          0  MISS:          0
cpu0_ITLB WRITEBACK ACCESS:          0  HIT:          0  MISS:          0
cpu0_STLB TOTAL     ACCESS:      39713  HIT:      38588  MISS:       1125
cpu0_STLB LOAD      ACCESS:      39066  HIT:      38185  MISS:        881
cpu0_STLB RFO       ACCESS:        647  HIT:        403  MISS:        244
cpu0_STLB PREFETCH  ACCESS:          0  HIT:          0  MISS:          0
cpu0_STLB WRITEBACK ACCESS:          0  HIT:          0  MISS:          0
cpu0_L1D TOTAL     ACCESS:    4848842  HIT:    4802691  MISS:      46151
cpu0_L1D LOAD      ACCESS:    2755886  HIT:    2716376  MISS:      39510
cpu0_L1D RFO       ACCESS:    2091831  HIT:    2085219  MISS:       6612
cpu0_L1D PREFETCH  ACCESS:          0  HIT:          0  MISS:          0
cpu0_L1D WRITEBACK ACCESS:          0  HIT:          0  MISS:          0
cpu0_L2C TOTAL     ACCESS:      71734  HIT:      38081  MISS:      33653
cpu0_L2C LOAD      ACCESS:      39502  HIT:      11999  MISS:      27503
cpu0_L2C RFO       ACCESS:       6612  HIT:        466  MISS:       6146
cpu0_L2C PREFETCH  ACCESS:          0  HIT:          0  MISS:          0
cpu0_L2C WRITEBACK ACCESS:      25591  HIT:      25588  MISS:          3
LLC TOTAL     ACCESS:      54492  HIT:       9286  MISS:      45206
LLC LOAD      ACCESS:      27503  HIT:       4316  MISS:      23187
LLC RFO       ACCESS:       6146  HIT:        257  MISS:       5889
LLC PREFETCH  ACCESS:          0  HIT:          0  MISS:          0
LLC WRITEBACK ACCESS:      20842  HIT:       4713  MISS:      16129
Heartbeat CPU 0 instructions: 68000001 cycles: 34868666 heartbeat IPC: 0.852461 cumulative IPC: 0.8047 (Simulation time: 0 hr 22 min 38 sec) 

Region of Interest Statistics
cpu0_DTLB TOTAL     ACCESS:    4505449  HIT:    4462053  MISS:      43396
cpu0_DTLB LOAD      ACCESS:    3536858  HIT:    3494208  MISS:      42650
cpu0_DTLB RFO       ACCESS:     968591  HIT:     967845  MISS:        746
cpu0_DTLB PREFETCH  ACCESS:          0  HIT:          0  MISS:          0
cpu0_DTLB WRITEBACK ACCESS:          0  HIT:          0  MISS:          0
cpu0_ITLB TOTAL     ACCESS:    2053799  HIT:    2053799  MISS:          0
cpu0_ITLB LOAD      ACCESS:    2053799  HIT:    2053799  MISS:          0
cpu0_ITLB RFO       ACCESS:          0  HIT:          0  MISS:          0
cpu0_ITLB PREFETCH  ACCESS:          0  HIT:          0  MISS:          0
cpu0_ITLB WRITEBACK ACCESS:          0  HIT:          0  MISS:          0
cpu0_STLB TOTAL     ACCESS:      43396  HIT:      42149  MISS:       1247
cpu0_STLB LOAD      ACCESS:      42650  HIT:      41690  MISS:        960
cpu0_STLB RFO       ACCESS:        746  HIT:        459  MISS:        287
cpu0_STLB PREFETCH  ACCESS:          0  HIT:          0  MISS:          0
cpu0_STLB WRITEBACK ACCESS:          0  HIT:          0  MISS:          0
cpu0_L1D TOTAL     ACCESS:    5460403  HIT:    5408722  MISS:      51681
cpu0_L1D LOAD      ACCESS:    3107659  HIT:    3064076  MISS:      43583
cpu0_L1D RFO       ACCESS:    2351502  HIT:    2343454  MISS:       8048
cpu0_L1D PREFETCH  ACCESS:          0  HIT:          0  MISS:          0
cpu0_L1D WRITEBACK ACCESS:          0  HIT:          0  MISS:          0
cpu0_L2C TOTAL     ACCESS:      80513  HIT:      44262  MISS:      36251
cpu0_L2C LOAD      ACCESS:      43574  HIT:      14871  MISS:      28703
cpu0_L2C RFO       ACCESS:       8048  HIT:        504  MISS:       7544
cpu0_L2C PREFETCH  ACCESS:          0  HIT:          0  MISS:          0
cpu0_L2C WRITEBACK ACCESS:      28841  HIT:      28838  MISS:          3
LLC TOTAL     ACCESS:      58942  HIT:       9681  MISS:      49261
LLC LOAD      ACCESS:      28703  HIT:       4398  MISS:      24305
LLC RFO       ACCESS:       7544  HIT:        280  MISS:       7264
LLC PREFETCH  ACCESS:          0  HIT:          0  MISS:          0
LLC WRITEBACK ACCESS:      22694  HIT:       5003  MISS:      17691
Heartbeat CPU 0 instructions: 70000000 cycles: 37249326 heartbeat IPC: 0.840103 cumulative IPC: 0.808105 (Simulation time: 0 hr 23 min 26 sec) 

Region of Interest Statistics
cpu0_DTLB TOTAL     ACCESS:    5009236  HIT:    4961246  MISS:      47990
cpu0_DTLB LOAD      ACCESS:    3933639  HIT:    3886503  MISS:      47136
cpu0_DTLB RFO       ACCESS:    1075597  HIT:    1074743  MISS:        854
cpu0_DTLB PREFETCH  ACCESS:          0  HIT:          0  MISS:          0
cpu0_DTLB WRITEBACK ACCESS:          0  HIT:          0  MISS:          0
cpu0_ITLB TOTAL     ACCESS:    2282614  HIT:    2282614  MISS:          0
cpu0_ITLB LOAD      ACCESS:    2282614  HIT:    2282614  MISS:          0
cpu0_ITLB RFO       ACCESS:          0  HIT:          0  MISS:          0
cpu0_ITLB PREFETCH  ACCESS:          0  HIT:          0  MISS:          0
cpu0_ITLB WRITEBACK ACCESS:          0  HIT:          0  MISS:          0
cpu0_STLB TOTAL     ACCESS:      47990  HIT:      46652  MISS:       1338
cpu0_STLB LOAD      ACCESS:      47136  HIT:      46113  MISS:       1023
cpu0_STLB RFO       ACCESS:        854  HIT:        539  MISS:        315
cpu0_STLB PREFETCH  ACCESS:          0  HIT:          0  MISS:          0
cpu0_STLB WRITEBACK ACCESS:          0  HIT:          0  MISS:          0
cpu0_L1D TOTAL     ACCESS:    6069417  HIT:    6011711  MISS:      57706
cpu0_L1D LOAD      ACCESS:    3456811  HIT:    3408513  MISS:      48298
cpu0_L1D RFO       ACCESS:    2611275  HIT:    2601931  MISS:       9344
cpu0_L1D PREFETCH  ACCESS:          0  HIT:          0  MISS:          0
cpu0_L1D WRITEBACK ACCESS:          0  HIT:          0  MISS:          0
cpu0_L2C TOTAL     ACCESS:      90018  HIT:      50983  MISS:      39035
cpu0_L2C LOAD      ACCESS:      48286  HIT:      18008  MISS:      30278
cpu0_L2C RFO       ACCESS:       9344  HIT:        591  MISS:       8753
cpu0_L2C PREFETCH  ACCESS:          0  HIT:          0  MISS:          0
cpu0_L2C WRITEBACK ACCESS:      32324  HIT:      32321  MISS:          3
LLC TOTAL     ACCESS:      63753  HIT:      10182  MISS:      53571
LLC LOAD      ACCESS:      30278  HIT:       4496  MISS:      25782
LLC RFO       ACCESS:       8753  HIT:        322  MISS:       8431
LLC PREFETCH  ACCESS:          0  HIT:          0  MISS:          0
LLC WRITEBACK ACCESS:      24721  HIT:       5364  MISS:      19357
Heartbeat CPU 0 instructions: 72000000 cycles: 39626804 heartbeat IPC: 0.841228 cumulative IPC: 0.811008 (Simulation time: 0 hr 24 min 11 sec) 

Region of Interest Statistics
cpu0_DTLB TOTAL     ACCESS:    5512929  HIT:    5460568  MISS:      52361
cpu0_DTLB LOAD      ACCESS:    4330485  HIT:    4279112  MISS:      51373
cpu0_DTLB RFO       ACCESS:    1182444  HIT:    1181456  MISS:        988
cpu0_DTLB PREFETCH  ACCESS:          0  HIT:          0  MISS:          0
cpu0_DTLB WRITEBACK ACCESS:          0  HIT:          0  MISS:          0
cpu0_ITLB TOTAL     ACCESS:    2510750  HIT:    2510750  MISS:          0
cpu0_ITLB LOAD      ACCESS:    2510750  HIT:    2510750  MISS:          0
cpu0_ITLB RFO       ACCESS:          0  HIT:          0  MISS:          0
cpu0_ITLB PREFETCH  ACCESS:          0  HIT:          0  MISS:          0
cpu0_ITLB WRITEBACK ACCESS:          0  HIT:          0  MISS:          0
cpu0_STLB TOTAL     ACCESS:      52361  HIT:      50932  MISS:       1429
cpu0_STLB LOAD      ACCESS:      51373  HIT:      50302  MISS:       1071
cpu0_STLB RFO       ACCESS:        988  HIT:        630  MISS:        358
cpu0_STLB PREFETCH  ACCESS:          0  HIT:          0  MISS:          0
cpu0_STLB WRITEBACK ACCESS:          0  HIT:          0  MISS:          0
cpu0_L1D TOTAL     ACCESS:    6675869  HIT:    6612567  MISS:      63302
cpu0_L1D LOAD      ACCESS:    3804321  HIT:    3751775  MISS:      52546
cpu0_L1D RFO       ACCESS:    2870126  HIT:    2859439  MISS:      10687
cpu0_L1D PREFETCH  ACCESS:          0  HIT:          0  MISS:          0
cpu0_L1D WRITEBACK ACCESS:          0  HIT:          0  MISS:          0
cpu0_L2C TOTAL     ACCESS:      98964  HIT:      57093  MISS:      41871
cpu0_L2C LOAD      ACCESS:      52534  HIT:      20676  MISS:      31858
cpu0_L2C RFO       ACCESS:      10687  HIT:        678  MISS:      10009
cpu0_L2C PREFETCH  ACCESS:          0  HIT:          0  MISS:          0
cpu0_L2C WRITEBACK ACCESS:      35674  HIT:      35671  MISS:          3
LLC TOTAL     ACCESS:      68682  HIT:      10578  MISS:      58104
LLC LOAD      ACCESS:      31858  HIT:       4555  MISS:      27303
LLC RFO       ACCESS:      10009  HIT:        390  MISS:       9619
LLC PREFETCH  ACCESS:          0  HIT:          0  MISS:          0
LLC WRITEBACK ACCESS:      26814  HIT:       5633  MISS:      21181
Heartbeat CPU 0 instructions: 74000000 cycles: 42021711 heartbeat IPC: 0.835105 cumulative IPC: 0.812963 (Simulation time: 0 hr 24 min 54 sec) 

Region of Interest Statistics
cpu0_DTLB TOTAL     ACCESS:    6016701  HIT:    5960098  MISS:      56603
cpu0_DTLB LOAD      ACCESS:    4727350  HIT:    4671859  MISS:      55491
cpu0_DTLB RFO       ACCESS:    1289351  HIT:    1288239  MISS:       1112
cpu0_DTLB PREFETCH  ACCESS:          0  HIT:          0  MISS:          0
cpu0_DTLB WRITEBACK ACCESS:          0  HIT:          0  MISS:          0
cpu0_ITLB TOTAL     ACCESS:    2739228  HIT:    2739228  MISS:          0
cpu0_ITLB LOAD      ACCESS:    2739228  HIT:    2739228  MISS:          0
cpu0_ITLB RFO       ACCESS:          0  HIT:          0  MISS:          0
cpu0_ITLB PREFETCH  ACCESS:          0  HIT:          0  MISS:          0
cpu0_ITLB WRITEBACK ACCESS:          0  HIT:          0  MISS:          0
cpu0_STLB TOTAL     ACCESS:      56603  HIT:      55046  MISS:       1557
cpu0_STLB LOAD      ACCESS:      55491  HIT:      54326  MISS:       1165
cpu0_STLB RFO       ACCESS:       1112  HIT:        720  MISS:        392
cpu0_STLB PREFETCH  ACCESS:          0  HIT:          0  MISS:          0
cpu0_STLB WRITEBACK ACCESS:          0  HIT:          0  MISS:          0
cpu0_L1D TOTAL     ACCESS:    7283403  HIT:    7214061  MISS:      69342
cpu0_L1D LOAD      ACCESS:    4153297  HIT:    4096056  MISS:      57241
cpu0_L1D RFO       ACCESS:    3128556  HIT:    3116532  MISS:      12024
cpu0_L1D PREFETCH  ACCESS:          0  HIT:          0  MISS:          0
cpu0_L1D WRITEBACK ACCESS:          0  HIT:          0  MISS:          0
cpu0_L2C TOTAL     ACCESS:     108586  HIT:      64004  MISS:      44582
cpu0_L2C LOAD      ACCESS:      57229  HIT:      23914  MISS:      33315
cpu0_L2C RFO       ACCESS:      12024  HIT:        761  MISS:      11263
cpu0_L2C PREFETCH  ACCESS:          0  HIT:          0  MISS:          0
cpu0_L2C WRITEBACK ACCESS:      39256  HIT:      39253  MISS:          3
LLC TOTAL     ACCESS:      73356  HIT:      10833  MISS:      62523
LLC LOAD      ACCESS:      33315  HIT:       4588  MISS:      28727
LLC RFO       ACCESS:      11263  HIT:        432  MISS:      10831
LLC PREFETCH  ACCESS:          0  HIT:          0  MISS:          0
LLC WRITEBACK ACCESS:      28777  HIT:       5813  MISS:      22964
Heartbeat CPU 0 instructions: 76000000 cycles: 44442023 heartbeat IPC: 0.82634 cumulative IPC: 0.813977 (Simulation time: 0 hr 25 min 39 sec) 

Region of Interest Statistics
cpu0_DTLB TOTAL     ACCESS:    6521298  HIT:    6459368  MISS:      61930
cpu0_DTLB LOAD      ACCESS:    5125076  HIT:    5064365  MISS:      60711
cpu0_DTLB RFO       ACCESS:    1396222  HIT:    1395003  MISS:       1219
cpu0_DTLB PREFETCH  ACCESS:          0  HIT:          0  MISS:          0
cpu0_DTLB WRITEBACK ACCESS:          0  HIT:          0  MISS:          0
cpu0_ITLB TOTAL     ACCESS:    2968540  HIT:    2968540  MISS:          0
cpu0_ITLB LOAD      ACCESS:    2968540  HIT:    2968540  MISS:          0
cpu0_ITLB RFO       ACCESS:          0  HIT:          0  MISS:          0
cpu0_ITLB PREFETCH  ACCESS:          0  HIT:          0  MISS:          0
cpu0_ITLB WRITEBACK ACCESS:          0  HIT:          0  MISS:          0
cpu0_STLB TOTAL     ACCESS:      61930  HIT:      60172  MISS:       1758
cpu0_STLB LOAD      ACCESS:      60711  HIT:      59383  MISS:       1328
cpu0_STLB RFO       ACCESS:       1219  HIT:        789  MISS:        430
cpu0_STLB PREFETCH  ACCESS:          0  HIT:          0  MISS:          0
cpu0_STLB WRITEBACK ACCESS:          0  HIT:          0  MISS:          0
cpu0_L1D TOTAL     ACCESS:    7892076  HIT:    7815904  MISS:      76172
cpu0_L1D LOAD      ACCESS:    4502610  HIT:    4439874  MISS:      62736
cpu0_L1D RFO       ACCESS:    3387716  HIT:    3374359  MISS:      13357
cpu0_L1D PREFETCH  ACCESS:          0  HIT:          0  MISS:          0
cpu0_L1D WRITEBACK ACCESS:          0  HIT:          0  MISS:          0
cpu0_L2C TOTAL     ACCESS:     119287  HIT:      71747  MISS:      47540
cpu0_L2C LOAD      ACCESS:      62724  HIT:      27720  MISS:      35004
cpu0_L2C RFO       ACCESS:      13357  HIT:        825  MISS:      12532
cpu0_L2C PREFETCH  ACCESS:          0  HIT:          0  MISS:          0
cpu0_L2C WRITEBACK ACCESS:      43127  HIT:      43124  MISS:          3
LLC TOTAL     ACCESS:      78524  HIT:      11030  MISS:      67494
LLC LOAD      ACCESS:      35004  HIT:       4624  MISS:      30380
LLC RFO       ACCESS:      12532  HIT:        432  MISS:      12100
LLC PREFETCH  ACCESS:          0  HIT:          0  MISS:          0
LLC WRITEBACK ACCESS:      30987  HIT:       5974  MISS:      25013
Heartbeat CPU 0 instructions: 78000004 cycles: 46913499 heartbeat IPC: 0.809235 cumulative IPC: 0.813636 (Simulation time: 0 hr 26 min 24 sec) 

Region of Interest Statistics
cpu0_DTLB TOTAL     ACCESS:    7026454  HIT:    6959014  MISS:      67440
cpu0_DTLB LOAD      ACCESS:    5523535  HIT:    5457422  MISS:      66113
cpu0_DTLB RFO       ACCESS:    1502919  HIT:    1501592  MISS:       1327
cpu0_DTLB PREFETCH  ACCESS:          0  HIT:          0  MISS:          0
cpu0_DTLB WRITEBACK ACCESS:          0  HIT:          0  MISS:          0
cpu0_ITLB TOTAL     ACCESS:    3198796  HIT:    3198796  MISS:          0
cpu0_ITLB LOAD      ACCESS:    3198796  HIT:    3198796  MISS:          0
cpu0_ITLB RFO       ACCESS:          0  HIT:          0  MISS:          0
cpu0_ITLB PREFETCH  ACCESS:          0  HIT:          0  MISS:          0
cpu0_ITLB WRITEBACK ACCESS:          0  HIT:          0  MISS:          0
cpu0_STLB TOTAL     ACCESS:      67440  HIT:      65501  MISS:       1939
cpu0_STLB LOAD      ACCESS:      66113  HIT:      64641  MISS:       1472
cpu0_STLB RFO       ACCESS:       1327  HIT:        860  MISS:        467
cpu0_STLB PREFETCH  ACCESS:          0  HIT:          0  MISS:          0
cpu0_STLB WRITEBACK ACCESS:          0  HIT:          0  MISS:          0
cpu0_L1D TOTAL     ACCESS:    8501838  HIT:    8418802  MISS:      83036
cpu0_L1D LOAD      ACCESS:    4853096  HIT:    4784730  MISS:      68366
cpu0_L1D RFO       ACCESS:    3646811  HIT:    3632222  MISS:      14589
cpu0_L1D PREFETCH  ACCESS:          0  HIT:          0  MISS:          0
cpu0_L1D WRITEBACK ACCESS:          0  HIT:          0  MISS:          0
cpu0_L2C TOTAL     ACCESS:     130072  HIT:      79402  MISS:      50670
cpu0_L2C LOAD      ACCESS:      68354  HIT:      31382  MISS:      36972
cpu0_L2C RFO       ACCESS:      14589  HIT:        896  MISS:      13693
cpu0_L2C PREFETCH  ACCESS:          0  HIT:          0  MISS:          0
cpu0_L2C WRITEBACK ACCESS:      47048  HIT:      47045  MISS:          3
LLC TOTAL     ACCESS:      84061  HIT:      11239  MISS:      72822
LLC LOAD      ACCESS:      36972  HIT:       4684  MISS:      32288
LLC RFO       ACCESS:      13693  HIT:        435  MISS:      13258
LLC PREFETCH  ACCESS:          0  HIT:          0  MISS:          0
LLC WRITEBACK ACCESS:      33394  HIT:       6120  MISS:      27274
Heartbeat CPU 0 instructions: 80000000 cycles: 49327390 heartbeat IPC: 0.828536 cumulative IPC: 0.814613 (Simulation time: 0 hr 27 min 10 sec) 

Region of Interest Statistics
cpu0_DTLB TOTAL     ACCESS:    7529327  HIT:    7457936  MISS:      71391
cpu0_DTLB LOAD      ACCESS:    5919383  HIT:    5849416  MISS:      69967
cpu0_DTLB RFO       ACCESS:    1609944  HIT:    1608520  MISS:       1424
cpu0_DTLB PREFETCH  ACCESS:          0  HIT:          0  MISS:          0
cpu0_DTLB WRITEBACK ACCESS:          0  HIT:          0  MISS:          0
cpu0_ITLB TOTAL     ACCESS:    3428451  HIT:    3428451  MISS:          0
cpu0_ITLB LOAD      ACCESS:    3428451  HIT:    3428451  MISS:          0
cpu0_ITLB RFO       ACCESS:          0  HIT:          0  MISS:          0
cpu0_ITLB PREFETCH  ACCESS:          0  HIT:          0  MISS:          0
cpu0_ITLB WRITEBACK ACCESS:          0  HIT:          0  MISS:          0
cpu0_STLB TOTAL     ACCESS:      71391  HIT:      69374  MISS:       2017
cpu0_STLB LOAD      ACCESS:      69967  HIT:      68456  MISS:       1511
cpu0_STLB RFO       ACCESS:       1424  HIT:        918  MISS:        506
cpu0_STLB PREFETCH  ACCESS:          0  HIT:          0  MISS:          0
cpu0_STLB WRITEBACK ACCESS:          0  HIT:          0  MISS:          0
cpu0_L1D TOTAL     ACCESS:    9112295  HIT:    9023804  MISS:      88491
cpu0_L1D LOAD      ACCESS:    5203788  HIT:    5131264  MISS:      72524
cpu0_L1D RFO       ACCESS:    3906498  HIT:    3890612  MISS:      15886
cpu0_L1D PREFETCH  ACCESS:          0  HIT:          0  MISS:          0
cpu0_L1D WRITEBACK ACCESS:          0  HIT:          0  MISS:          0
cpu0_L2C TOTAL     ACCESS:     138753  HIT:      85210  MISS:      53543
cpu0_L2C LOAD      ACCESS:      72512  HIT:      33915  MISS:      38597
cpu0_L2C RFO       ACCESS:      15886  HIT:        945  MISS:      14941
cpu0_L2C PREFETCH  ACCESS:          0  HIT:          0  MISS:          0
cpu0_L2C WRITEBACK ACCESS:      50274  HIT:      50271  MISS:          3
LLC TOTAL     ACCESS:      89094  HIT:      11398  MISS:      77696
LLC LOAD      ACCESS:      38597  HIT:       4701  MISS:      33896
LLC RFO       ACCESS:      14941  HIT:        445  MISS:      14496
LLC PREFETCH  ACCESS:          0  HIT:          0  MISS:          0
LLC WRITEBACK ACCESS:      35554  HIT:       6252  MISS:      29302
Heartbeat CPU 0 instructions: 82000004 cycles: 51717613 heartbeat IPC: 0.836744 cumulative IPC: 0.815962 (Simulation time: 0 hr 27 min 57 sec) 

Region of Interest Statistics
cpu0_DTLB TOTAL     ACCESS:    8033686  HIT:    7958844  MISS:      74842
cpu0_DTLB LOAD      ACCESS:    6316291  HIT:    6242949  MISS:      73342
cpu0_DTLB RFO       ACCESS:    1717395  HIT:    1715895  MISS:       1500
cpu0_DTLB PREFETCH  ACCESS:          0  HIT:          0  MISS:          0
cpu0_DTLB WRITEBACK ACCESS:          0  HIT:          0  MISS:          0
cpu0_ITLB TOTAL     ACCESS:    3657434  HIT:    3657434  MISS:          0
cpu0_ITLB LOAD      ACCESS:    3657434  HIT:    3657434  MISS:          0
cpu0_ITLB RFO       ACCESS:          0  HIT:          0  MISS:          0
cpu0_ITLB PREFETCH  ACCESS:          0  HIT:          0  MISS:          0
cpu0_ITLB WRITEBACK ACCESS:          0  HIT:          0  MISS:          0
cpu0_STLB TOTAL     ACCESS:      74842  HIT:      72684  MISS:       2158
cpu0_STLB LOAD      ACCESS:      73342  HIT:      71726  MISS:       1616
cpu0_STLB RFO       ACCESS:       1500  HIT:        958  MISS:        542
cpu0_STLB PREFETCH  ACCESS:          0  HIT:          0  MISS:          0
cpu0_STLB WRITEBACK ACCESS:          0  HIT:          0  MISS:          0
cpu0_L1D TOTAL     ACCESS:    9725395  HIT:    9631599  MISS:      93796
cpu0_L1D LOAD      ACCESS:    5555727  HIT:    5479285  MISS:      76442
cpu0_L1D RFO       ACCESS:    4167518  HIT:    4150246  MISS:      17272
cpu0_L1D PREFETCH  ACCESS:          0  HIT:          0  MISS:          0
cpu0_L1D WRITEBACK ACCESS:          0  HIT:          0  MISS:          0
cpu0_L2C TOTAL     ACCESS:     147378  HIT:      90968  MISS:      56410
cpu0_L2C LOAD      ACCESS:      76430  HIT:      36318  MISS:      40112
cpu0_L2C RFO       ACCESS:      17272  HIT:        981  MISS:      16291
cpu0_L2C PREFETCH  ACCESS:          0  HIT:          0  MISS:          0
cpu0_L2C WRITEBACK ACCESS:      53594  HIT:      53590  MISS:          4
LLC TOTAL     ACCESS:      94103  HIT:      11538  MISS:      82565
LLC LOAD      ACCESS:      40112  HIT:       4710  MISS:      35402
LLC RFO       ACCESS:      16291  HIT:        450  MISS:      15841
LLC PREFETCH  ACCESS:          0  HIT:          0  MISS:          0
LLC WRITEBACK ACCESS:      37697  HIT:       6378  MISS:      31319
Heartbeat CPU 0 instructions: 84000003 cycles: 54046029 heartbeat IPC: 0.858953 cumulative IPC: 0.818371 (Simulation time: 0 hr 28 min 44 sec) 

Region of Interest Statistics
cpu0_DTLB TOTAL     ACCESS:    8539038  HIT:    8461521  MISS:      77517
cpu0_DTLB LOAD      ACCESS:    6714078  HIT:    6638122  MISS:      75956
cpu0_DTLB RFO       ACCESS:    1824960  HIT:    1823399  MISS:       1561
cpu0_DTLB PREFETCH  ACCESS:          0  HIT:          0  MISS:          0
cpu0_DTLB WRITEBACK ACCESS:          0  HIT:          0  MISS:          0
cpu0_ITLB TOTAL     ACCESS:    3887146  HIT:    3887146  MISS:          0
cpu0_ITLB LOAD      ACCESS:    3887146  HIT:    3887146  MISS:          0
cpu0_ITLB RFO       ACCESS:          0  HIT:          0  MISS:          0
cpu0_ITLB PREFETCH  ACCESS:          0  HIT:          0  MISS:          0
cpu0_ITLB WRITEBACK ACCESS:          0  HIT:          0  MISS:          0
cpu0_STLB TOTAL     ACCESS:      77517  HIT:      75294  MISS:       2223
cpu0_STLB LOAD      ACCESS:      75956  HIT:      74307  MISS:       1649
cpu0_STLB RFO       ACCESS:       1561  HIT:        987  MISS:        574
cpu0_STLB PREFETCH  ACCESS:          0  HIT:          0  MISS:          0
cpu0_STLB WRITEBACK ACCESS:          0  HIT:          0  MISS:          0
cpu0_L1D TOTAL     ACCESS:   10340091  HIT:   10241307  MISS:      98784
cpu0_L1D LOAD      ACCESS:    5910663  HIT:    5830760  MISS:      79903
cpu0_L1D RFO       ACCESS:    4427213  HIT:    4408422  MISS:      18791
cpu0_L1D PREFETCH  ACCESS:          0  HIT:          0  MISS:          0
cpu0_L1D WRITEBACK ACCESS:          0  HIT:          0  MISS:          0
cpu0_L2C TOTAL     ACCESS:     155462  HIT:      96523  MISS:      58939
cpu0_L2C LOAD      ACCESS:      79891  HIT:      38755  MISS:      41136
cpu0_L2C RFO       ACCESS:      18791  HIT:        998  MISS:      17793
cpu0_L2C PREFETCH  ACCESS:          0  HIT:          0  MISS:          0
cpu0_L2C WRITEBACK ACCESS:      56690  HIT:      56685  MISS:          5
LLC TOTAL     ACCESS:      98585  HIT:      11705  MISS:      86880
LLC LOAD      ACCESS:      41136  HIT:       4733  MISS:      36403
LLC RFO       ACCESS:      17793  HIT:        453  MISS:      17340
LLC PREFETCH  ACCESS:          0  HIT:          0  MISS:          0
LLC WRITEBACK ACCESS:      39651  HIT:       6519  MISS:      33132
Heartbeat CPU 0 instructions: 86000001 cycles: 56388037 heartbeat IPC: 0.853967 cumulative IPC: 0.820271 (Simulation time: 0 hr 29 min 28 sec) 

Region of Interest Statistics
cpu0_DTLB TOTAL     ACCESS:    9044051  HIT:    8963673  MISS:      80378
cpu0_DTLB LOAD      ACCESS:    7111515  HIT:    7032772  MISS:      78743
cpu0_DTLB RFO       ACCESS:    1932536  HIT:    1930901  MISS:       1635
cpu0_DTLB PREFETCH  ACCESS:          0  HIT:          0  MISS:          0
cpu0_DTLB WRITEBACK ACCESS:          0  HIT:          0  MISS:          0
cpu0_ITLB TOTAL     ACCESS:    4116419  HIT:    4116419  MISS:          0
cpu0_ITLB LOAD      ACCESS:    4116419  HIT:    4116419  MISS:          0
cpu0_ITLB RFO       ACCESS:          0  HIT:          0  MISS:          0
cpu0_ITLB PREFETCH  ACCESS:          0  HIT:          0  MISS:          0
cpu0_ITLB WRITEBACK ACCESS:          0  HIT:          0  MISS:          0
cpu0_STLB TOTAL     ACCESS:      80378  HIT:      78059  MISS:       2319
cpu0_STLB LOAD      ACCESS:      78743  HIT:      77035  MISS:       1708
cpu0_STLB RFO       ACCESS:       1635  HIT:       1024  MISS:        611
cpu0_STLB PREFETCH  ACCESS:          0  HIT:          0  MISS:          0
cpu0_STLB WRITEBACK ACCESS:          0  HIT:          0  MISS:          0
cpu0_L1D TOTAL     ACCESS:   10954649  HIT:   10851096  MISS:     103553
cpu0_L1D LOAD      ACCESS:    6264588  HIT:    6181372  MISS:      83216
cpu0_L1D RFO       ACCESS:    4687750  HIT:    4667517  MISS:      20233
cpu0_L1D PREFETCH  ACCESS:          0  HIT:          0  MISS:          0
cpu0_L1D WRITEBACK ACCESS:          0  HIT:          0  MISS:          0
cpu0_L2C TOTAL     ACCESS:     163230  HIT:     101870  MISS:      61360
cpu0_L2C LOAD      ACCESS:      83203  HIT:      41062  MISS:      42141
cpu0_L2C RFO       ACCESS:      20233  HIT:       1024  MISS:      19209
cpu0_L2C PREFETCH  ACCESS:          0  HIT:          0  MISS:          0
cpu0_L2C WRITEBACK ACCESS:      59690  HIT:      59685  MISS:          5
LLC TOTAL     ACCESS:     102860  HIT:      11860  MISS:      91000
LLC LOAD      ACCESS:      42141  HIT:       4775  MISS:      37366
LLC RFO       ACCESS:      19209  HIT:        453  MISS:      18756
LLC PREFETCH  ACCESS:          0  HIT:          0  MISS:          0
LLC WRITEBACK ACCESS:      41505  HIT:       6632  MISS:      34873
Heartbeat CPU 0 instructions: 88000001 cycles: 58752885 heartbeat IPC: 0.84572 cumulative IPC: 0.821572 (Simulation time: 0 hr 30 min 12 sec) 

Region of Interest Statistics
cpu0_DTLB TOTAL     ACCESS:    9546718  HIT:    9463580  MISS:      83138
cpu0_DTLB LOAD      ACCESS:    7505981  HIT:    7424583  MISS:      81398
cpu0_DTLB RFO       ACCESS:    2040737  HIT:    2038997  MISS:       1740
cpu0_DTLB PREFETCH  ACCESS:          0  HIT:          0  MISS:          0
cpu0_DTLB WRITEBACK ACCESS:          0  HIT:          0  MISS:          0
cpu0_ITLB TOTAL     ACCESS:    4345150  HIT:    4345150  MISS:          0
cpu0_ITLB LOAD      ACCESS:    4345150  HIT:    4345150  MISS:          0
cpu0_ITLB RFO       ACCESS:          0  HIT:          0  MISS:          0
cpu0_ITLB PREFETCH  ACCESS:          0  HIT:          0  MISS:          0
cpu0_ITLB WRITEBACK ACCESS:          0  HIT:          0  MISS:          0
cpu0_STLB TOTAL     ACCESS:      83138  HIT:      80628  MISS:       2510
cpu0_STLB LOAD      ACCESS:      81398  HIT:      79539  MISS:       1859
cpu0_STLB RFO       ACCESS:       1740  HIT:       1089  MISS:        651
cpu0_STLB PREFETCH  ACCESS:          0  HIT:          0  MISS:          0
cpu0_STLB WRITEBACK ACCESS:          0  HIT:          0  MISS:          0
cpu0_L1D TOTAL     ACCESS:   11568114  HIT:   11460694  MISS:     107420
cpu0_L1D LOAD      ACCESS:    6616353  HIT:    6530509  MISS:      85844
cpu0_L1D RFO       ACCESS:    4949259  HIT:    4927788  MISS:      21471
cpu0_L1D PREFETCH  ACCESS:          0  HIT:          0  MISS:          0
cpu0_L1D WRITEBACK ACCESS:          0  HIT:          0  MISS:          0
cpu0_L2C TOTAL     ACCESS:     169615  HIT:     105474  MISS:      64141
cpu0_L2C LOAD      ACCESS:      85830  HIT:      42100  MISS:      43730
cpu0_L2C RFO       ACCESS:      21471  HIT:       1070  MISS:      20401
cpu0_L2C PREFETCH  ACCESS:          0  HIT:          0  MISS:          0
cpu0_L2C WRITEBACK ACCESS:      62209  HIT:      62204  MISS:          5
LLC TOTAL     ACCESS:     107878  HIT:      12006  MISS:      95872
LLC LOAD      ACCESS:      43730  HIT:       4782  MISS:      38948
LLC RFO       ACCESS:      20401  HIT:        453  MISS:      19948
LLC PREFETCH  ACCESS:          0  HIT:          0  MISS:          0
LLC WRITEBACK ACCESS:      43742  HIT:       6771  MISS:      36971
Heartbeat CPU 0 instructions: 90000000 cycles: 61122243 heartbeat IPC: 0.84411 cumulative IPC: 0.82267 (Simulation time: 0 hr 30 min 58 sec) 

Region of Interest Statistics
cpu0_DTLB TOTAL     ACCESS:   10049108  HIT:    9962633  MISS:      86475
cpu0_DTLB LOAD      ACCESS:    7900840  HIT:    7816198  MISS:      84642
cpu0_DTLB RFO       ACCESS:    2148268  HIT:    2146435  MISS:       1833
cpu0_DTLB PREFETCH  ACCESS:          0  HIT:          0  MISS:          0
cpu0_DTLB WRITEBACK ACCESS:          0  HIT:          0  MISS:          0
cpu0_ITLB TOTAL     ACCESS:    4574068  HIT:    4574068  MISS:          0
cpu0_ITLB LOAD      ACCESS:    4574068  HIT:    4574068  MISS:          0
cpu0_ITLB RFO       ACCESS:          0  HIT:          0  MISS:          0
cpu0_ITLB PREFETCH  ACCESS:          0  HIT:          0  MISS:          0
cpu0_ITLB WRITEBACK ACCESS:          0  HIT:          0  MISS:          0
cpu0_STLB TOTAL     ACCESS:      86475  HIT:      83811  MISS:       2664
cpu0_STLB LOAD      ACCESS:      84642  HIT:      82672  MISS:       1970
cpu0_STLB RFO       ACCESS:       1833  HIT:       1139  MISS:        694
cpu0_STLB PREFETCH  ACCESS:          0  HIT:          0  MISS:          0
cpu0_STLB WRITEBACK ACCESS:          0  HIT:          0  MISS:          0
cpu0_L1D TOTAL     ACCESS:   12178730  HIT:   12067184  MISS:     111546
cpu0_L1D LOAD      ACCESS:    6966850  HIT:    6878194  MISS:      88656
cpu0_L1D RFO       ACCESS:    5209227  HIT:    5186467  MISS:      22760
cpu0_L1D PREFETCH  ACCESS:          0  HIT:          0  MISS:          0
cpu0_L1D WRITEBACK ACCESS:          0  HIT:          0  MISS:          0
cpu0_L2C TOTAL     ACCESS:     176347  HIT:     109414  MISS:      66933
cpu0_L2C LOAD      ACCESS:      88642  HIT:      43387  MISS:      45255
cpu0_L2C RFO       ACCESS:      22760  HIT:       1095  MISS:      21665
cpu0_L2C PREFETCH  ACCESS:          0  HIT:          0  MISS:          0
cpu0_L2C WRITEBACK ACCESS:      64815  HIT:      64809  MISS:          6
LLC TOTAL     ACCESS:     112888  HIT:      12086  MISS:     100802
LLC LOAD      ACCESS:      45255  HIT:       4782  MISS:      40473
LLC RFO       ACCESS:      21665  HIT:        453  MISS:      21212
LLC PREFETCH  ACCESS:          0  HIT:          0  MISS:          0
LLC WRITEBACK ACCESS:      45961  HIT:       6851  MISS:      39110
Heartbeat CPU 0 instructions: 92000003 cycles: 63480482 heartbeat IPC: 0.848092 cumulative IPC: 0.823846 (Simulation time: 0 hr 31 min 46 sec) 

Region of Interest Statistics
cpu0_DTLB TOTAL     ACCESS:   10549376  HIT:   10459018  MISS:      90358
cpu0_DTLB LOAD      ACCESS:    8294624  HIT:    8206212  MISS:      88412
cpu0_DTLB RFO       ACCESS:    2254752  HIT:    2252806  MISS:       1946
cpu0_DTLB PREFETCH  ACCESS:          0  HIT:          0  MISS:          0
cpu0_DTLB WRITEBACK ACCESS:          0  HIT:          0  MISS:          0
cpu0_ITLB TOTAL     ACCESS:    4803098  HIT:    4803098  MISS:          0
cpu0_ITLB LOAD      ACCESS:    4803098  HIT:    4803098  MISS:          0
cpu0_ITLB RFO       ACCESS:          0  HIT:          0  MISS:          0
cpu0_ITLB PREFETCH  ACCESS:          0  HIT:          0  MISS:          0
cpu0_ITLB WRITEBACK ACCESS:          0  HIT:          0  MISS:          0
cpu0_STLB TOTAL     ACCESS:      90358  HIT:      87558  MISS:       2800
cpu0_STLB LOAD      ACCESS:      88412  HIT:      86344  MISS:       2068
cpu0_STLB RFO       ACCESS:       1946  HIT:       1214  MISS:        732
cpu0_STLB PREFETCH  ACCESS:          0  HIT:          0  MISS:          0
cpu0_STLB WRITEBACK ACCESS:          0  HIT:          0  MISS:          0
cpu0_L1D TOTAL     ACCESS:   12785820  HIT:   12668918  MISS:     116902
cpu0_L1D LOAD      ACCESS:    7315944  HIT:    7223266  MISS:      92678
cpu0_L1D RFO       ACCESS:    5467087  HIT:    5443008  MISS:      24079
cpu0_L1D PREFETCH  ACCESS:          0  HIT:          0  MISS:          0
cpu0_L1D WRITEBACK ACCESS:          0  HIT:          0  MISS:          0
cpu0_L2C TOTAL     ACCESS:     185012  HIT:     115380  MISS:      69632
cpu0_L2C LOAD      ACCESS:      92664  HIT:      45993  MISS:      46671
cpu0_L2C RFO       ACCESS:      24079  HIT:       1131  MISS:      22948
cpu0_L2C PREFETCH  ACCESS:          0  HIT:          0  MISS:          0
cpu0_L2C WRITEBACK ACCESS:      68124  HIT:      68118  MISS:          6
LLC TOTAL     ACCESS:     117707  HIT:      12162  MISS:     105545
LLC LOAD      ACCESS:      46671  HIT:       4791  MISS:      41880
LLC RFO       ACCESS:      22948  HIT:        453  MISS:      22495
LLC PREFETCH  ACCESS:          0  HIT:          0  MISS:          0
LLC WRITEBACK ACCESS:      48081  HIT:       6918  MISS:      41163
Heartbeat CPU 0 instructions: 94000001 cycles: 65897247 heartbeat IPC: 0.827552 cumulative IPC: 0.824014 (Simulation time: 0 hr 32 min 33 sec) 

Region of Interest Statistics
cpu0_DTLB TOTAL     ACCESS:   11049797  HIT:   10954874  MISS:      94923
cpu0_DTLB LOAD      ACCESS:    8688569  HIT:    8595699  MISS:      92870
cpu0_DTLB RFO       ACCESS:    2361228  HIT:    2359175  MISS:       2053
cpu0_DTLB PREFETCH  ACCESS:          0  HIT:          0  MISS:          0
cpu0_DTLB WRITEBACK ACCESS:          0  HIT:          0  MISS:          0
cpu0_ITLB TOTAL     ACCESS:    5032255  HIT:    5032255  MISS:          0
cpu0_ITLB LOAD      ACCESS:    5032255  HIT:    5032255  MISS:          0
cpu0_ITLB RFO       ACCESS:          0  HIT:          0  MISS:          0
cpu0_ITLB PREFETCH  ACCESS:          0  HIT:          0  MISS:          0
cpu0_ITLB WRITEBACK ACCESS:          0  HIT:          0  MISS:          0
cpu0_STLB TOTAL     ACCESS:      94923  HIT:      91895  MISS:       3028
cpu0_STLB LOAD      ACCESS:      92870  HIT:      90612  MISS:       2258
cpu0_STLB RFO       ACCESS:       2053  HIT:       1283  MISS:        770
cpu0_STLB PREFETCH  ACCESS:          0  HIT:          0  MISS:          0
cpu0_STLB WRITEBACK ACCESS:          0  HIT:          0  MISS:          0
cpu0_L1D TOTAL     ACCESS:   13393517  HIT:   13270383  MISS:     123134
cpu0_L1D LOAD      ACCESS:    7664713  HIT:    7567045  MISS:      97668
cpu0_L1D RFO       ACCESS:    5725787  HIT:    5700474  MISS:      25313
cpu0_L1D PREFETCH  ACCESS:          0  HIT:          0  MISS:          0
cpu0_L1D WRITEBACK ACCESS:          0  HIT:          0  MISS:          0
cpu0_L2C TOTAL     ACCESS:     194720  HIT:     122087  MISS:      72633
cpu0_L2C LOAD      ACCESS:      97652  HIT:      49155  MISS:      48497
cpu0_L2C RFO       ACCESS:      25313  HIT:       1191  MISS:      24122
cpu0_L2C PREFETCH  ACCESS:          0  HIT:          0  MISS:          0
cpu0_L2C WRITEBACK ACCESS:      71602  HIT:      71596  MISS:          6
LLC TOTAL     ACCESS:     123155  HIT:      12536  MISS:     110619
LLC LOAD      ACCESS:      48497  HIT:       4880  MISS:      43617
LLC RFO       ACCESS:      24122  HIT:        456  MISS:      23666
LLC PREFETCH  ACCESS:          0  HIT:          0  MISS:          0
LLC WRITEBACK ACCESS:      50528  HIT:       7200  MISS:      43328
Heartbeat CPU 0 instructions: 96000000 cycles: 68360143 heartbeat IPC: 0.812052 cumulative IPC: 0.823486 (Simulation time: 0 hr 33 min 21 sec) 

Region of Interest Statistics
cpu0_DTLB TOTAL     ACCESS:   11552421  HIT:   11451672  MISS:     100749
cpu0_DTLB LOAD      ACCESS:    9084091  HIT:    8985489  MISS:      98602
cpu0_DTLB RFO       ACCESS:    2468330  HIT:    2466183  MISS:       2147
cpu0_DTLB PREFETCH  ACCESS:          0  HIT:          0  MISS:          0
cpu0_DTLB WRITEBACK ACCESS:          0  HIT:          0  MISS:          0
cpu0_ITLB TOTAL     ACCESS:    5262347  HIT:    5262347  MISS:          0
cpu0_ITLB LOAD      ACCESS:    5262347  HIT:    5262347  MISS:          0
cpu0_ITLB RFO       ACCESS:          0  HIT:          0  MISS:          0
cpu0_ITLB PREFETCH  ACCESS:          0  HIT:          0  MISS:          0
cpu0_ITLB WRITEBACK ACCESS:          0  HIT:          0  MISS:          0
cpu0_STLB TOTAL     ACCESS:     100749  HIT:      97594  MISS:       3155
cpu0_STLB LOAD      ACCESS:      98602  HIT:      96261  MISS:       2341
cpu0_STLB RFO       ACCESS:       2147  HIT:       1333  MISS:        814
cpu0_STLB PREFETCH  ACCESS:          0  HIT:          0  MISS:          0
cpu0_STLB WRITEBACK ACCESS:          0  HIT:          0  MISS:          0
cpu0_L1D TOTAL     ACCESS:   14002211  HIT:   13871401  MISS:     130810
cpu0_L1D LOAD      ACCESS:    8014655  HIT:    7910531  MISS:     104124
cpu0_L1D RFO       ACCESS:    5984412  HIT:    5957882  MISS:      26530
cpu0_L1D PREFETCH  ACCESS:          0  HIT:          0  MISS:          0
cpu0_L1D WRITEBACK ACCESS:          0  HIT:          0  MISS:          0
cpu0_L2C TOTAL     ACCESS:     206645  HIT:     130623  MISS:      76022
cpu0_L2C LOAD      ACCESS:     104107  HIT:      53380  MISS:      50727
cpu0_L2C RFO       ACCESS:      26530  HIT:       1249  MISS:      25281
cpu0_L2C PREFETCH  ACCESS:          0  HIT:          0  MISS:          0
cpu0_L2C WRITEBACK ACCESS:      75852  HIT:      75846  MISS:          6
LLC TOTAL     ACCESS:     129140  HIT:      13228  MISS:     115912
LLC LOAD      ACCESS:      50727  HIT:       5100  MISS:      45627
LLC RFO       ACCESS:      25281  HIT:        457  MISS:      24824
LLC PREFETCH  ACCESS:          0  HIT:          0  MISS:          0
LLC WRITEBACK ACCESS:      53124  HIT:       7671  MISS:      45453
Heartbeat CPU 0 instructions: 98000000 cycles: 70823255 heartbeat IPC: 0.811981 cumulative IPC: 0.823 (Simulation time: 0 hr 34 min 14 sec) 

Region of Interest Statistics
cpu0_DTLB TOTAL     ACCESS:   12055061  HIT:   11949145  MISS:     105916
cpu0_DTLB LOAD      ACCESS:    9479649  HIT:    9375987  MISS:     103662
cpu0_DTLB RFO       ACCESS:    2575412  HIT:    2573158  MISS:       2254
cpu0_DTLB PREFETCH  ACCESS:          0  HIT:          0  MISS:          0
cpu0_DTLB WRITEBACK ACCESS:          0  HIT:          0  MISS:          0
cpu0_ITLB TOTAL     ACCESS:    5492026  HIT:    5492026  MISS:          0
cpu0_ITLB LOAD      ACCESS:    5492026  HIT:    5492026  MISS:          0
cpu0_ITLB RFO       ACCESS:          0  HIT:          0  MISS:          0
cpu0_ITLB PREFETCH  ACCESS:          0  HIT:          0  MISS:          0
cpu0_ITLB WRITEBACK ACCESS:          0  HIT:          0  MISS:          0
cpu0_STLB TOTAL     ACCESS:     105916  HIT:     102620  MISS:       3296
cpu0_STLB LOAD      ACCESS:     103662  HIT:     101219  MISS:       2443
cpu0_STLB RFO       ACCESS:       2254  HIT:       1401  MISS:        853
cpu0_STLB PREFETCH  ACCESS:          0  HIT:          0  MISS:          0
cpu0_STLB WRITEBACK ACCESS:          0  HIT:          0  MISS:          0
cpu0_L1D TOTAL     ACCESS:   14610241  HIT:   14472630  MISS:     137611
cpu0_L1D LOAD      ACCESS:    8363964  HIT:    8254253  MISS:     109711
cpu0_L1D RFO       ACCESS:    6242992  HIT:    6215252  MISS:      27740
cpu0_L1D PREFETCH  ACCESS:          0  HIT:          0  MISS:          0
cpu0_L1D WRITEBACK ACCESS:          0  HIT:          0  MISS:          0
cpu0_L2C TOTAL     ACCESS:     217266  HIT:     137838  MISS:      79428
cpu0_L2C LOAD      ACCESS:     109692  HIT:      56700  MISS:      52992
cpu0_L2C RFO       ACCESS:      27740  HIT:       1318  MISS:      26422
cpu0_L2C PREFETCH  ACCESS:          0  HIT:          0  MISS:          0
cpu0_L2C WRITEBACK ACCESS:      79674  HIT:      79668  MISS:          6
LLC TOTAL     ACCESS:     135091  HIT:      13885  MISS:     121206
LLC LOAD      ACCESS:      52992  HIT:       5397  MISS:      47595
LLC RFO       ACCESS:      26422  HIT:        459  MISS:      25963
LLC PREFETCH  ACCESS:          0  HIT:          0  MISS:          0
LLC WRITEBACK ACCESS:      55669  HIT:       8029  MISS:      47640
Heartbeat CPU 0 instructions: 100000003 cycles: 73245604 heartbeat IPC: 0.825646 cumulative IPC: 0.823106 (Simulation time: 0 hr 35 min 26 sec) 

Region of Interest Statistics
cpu0_DTLB TOTAL     ACCESS:   12556631  HIT:   12446656  MISS:     109975
cpu0_DTLB LOAD      ACCESS:    9874743  HIT:    9767102  MISS:     107641
cpu0_DTLB RFO       ACCESS:    2681888  HIT:    2679554  MISS:       2334
cpu0_DTLB PREFETCH  ACCESS:          0  HIT:          0  MISS:          0
cpu0_DTLB WRITEBACK ACCESS:          0  HIT:          0  MISS:          0
cpu0_ITLB TOTAL     ACCESS:    5720552  HIT:    5720552  MISS:          0
cpu0_ITLB LOAD      ACCESS:    5720552  HIT:    5720552  MISS:          0
cpu0_ITLB RFO       ACCESS:          0  HIT:          0  MISS:          0
cpu0_ITLB PREFETCH  ACCESS:          0  HIT:          0  MISS:          0
cpu0_ITLB WRITEBACK ACCESS:          0  HIT:          0  MISS:          0
cpu0_STLB TOTAL     ACCESS:     109975  HIT:     106408  MISS:       3567
cpu0_STLB LOAD      ACCESS:     107641  HIT:     104964  MISS:       2677
cpu0_STLB RFO       ACCESS:       2334  HIT:       1444  MISS:        890
cpu0_STLB PREFETCH  ACCESS:          0  HIT:          0  MISS:          0
cpu0_STLB WRITEBACK ACCESS:          0  HIT:          0  MISS:          0
cpu0_L1D TOTAL     ACCESS:   15216115  HIT:   15073797  MISS:     142318
cpu0_L1D LOAD      ACCESS:    8712203  HIT:    8599057  MISS:     113146
cpu0_L1D RFO       ACCESS:    6500356  HIT:    6471357  MISS:      28999
cpu0_L1D PREFETCH  ACCESS:          0  HIT:          0  MISS:          0
cpu0_L1D WRITEBACK ACCESS:          0  HIT:          0  MISS:          0
cpu0_L2C TOTAL     ACCESS:     224947  HIT:     142422  MISS:      82525
cpu0_L2C LOAD      ACCESS:     113126  HIT:      58222  MISS:      54904
cpu0_L2C RFO       ACCESS:      28999  HIT:       1392  MISS:      27607
cpu0_L2C PREFETCH  ACCESS:          0  HIT:          0  MISS:          0
cpu0_L2C WRITEBACK ACCESS:      82649  HIT:      82643  MISS:          6
LLC TOTAL     ACCESS:     140510  HIT:      13951  MISS:     126559
LLC LOAD      ACCESS:      54904  HIT:       5399  MISS:      49505
LLC RFO       ACCESS:      27607  HIT:        459  MISS:      27148
LLC PREFETCH  ACCESS:          0  HIT:          0  MISS:          0
LLC WRITEBACK ACCESS:      57991  HIT:       8093  MISS:      49898
Heartbeat CPU 0 instructions: 102000002 cycles: 75635627 heartbeat IPC: 0.836812 cumulative IPC: 0.823625 (Simulation time: 0 hr 36 min 32 sec) 

Region of Interest Statistics
cpu0_DTLB TOTAL     ACCESS:   13057267  HIT:   12943640  MISS:     113627
cpu0_DTLB LOAD      ACCESS:   10269051  HIT:   10157842  MISS:     111209
cpu0_DTLB RFO       ACCESS:    2788216  HIT:    2785798  MISS:       2418
cpu0_DTLB PREFETCH  ACCESS:          0  HIT:          0  MISS:          0
cpu0_DTLB WRITEBACK ACCESS:          0  HIT:          0  MISS:          0
cpu0_ITLB TOTAL     ACCESS:    5948901  HIT:    5948901  MISS:          0
cpu0_ITLB LOAD      ACCESS:    5948901  HIT:    5948901  MISS:          0
cpu0_ITLB RFO       ACCESS:          0  HIT:          0  MISS:          0
cpu0_ITLB PREFETCH  ACCESS:          0  HIT:          0  MISS:          0
cpu0_ITLB WRITEBACK ACCESS:          0  HIT:          0  MISS:          0
cpu0_STLB TOTAL     ACCESS:     113627  HIT:     109909  MISS:       3718
cpu0_STLB LOAD      ACCESS:     111209  HIT:     108421  MISS:       2788
cpu0_STLB RFO       ACCESS:       2418  HIT:       1488  MISS:        930
cpu0_STLB PREFETCH  ACCESS:          0  HIT:          0  MISS:          0
cpu0_STLB WRITEBACK ACCESS:          0  HIT:          0  MISS:          0
cpu0_L1D TOTAL     ACCESS:   15822092  HIT:   15674984  MISS:     147108
cpu0_L1D LOAD      ACCESS:    9060191  HIT:    8943603  MISS:     116588
cpu0_L1D RFO       ACCESS:    6758194  HIT:    6727876  MISS:      30318
cpu0_L1D PREFETCH  ACCESS:          0  HIT:          0  MISS:          0
cpu0_L1D WRITEBACK ACCESS:          0  HIT:          0  MISS:          0
cpu0_L2C TOTAL     ACCESS:     232642  HIT:     147095  MISS:      85547
cpu0_L2C LOAD      ACCESS:     116568  HIT:      59879  MISS:      56689
cpu0_L2C RFO       ACCESS:      30318  HIT:       1475  MISS:      28843
cpu0_L2C PREFETCH  ACCESS:          0  HIT:          0  MISS:          0
cpu0_L2C WRITEBACK ACCESS:      85554  HIT:      85548  MISS:          6
LLC TOTAL     ACCESS:     145776  HIT:      14048  MISS:     131728
LLC LOAD      ACCESS:      56689  HIT:       5414  MISS:      51275
LLC RFO       ACCESS:      28843  HIT:        459  MISS:      28384
LLC PREFETCH  ACCESS:          0  HIT:          0  MISS:          0
LLC WRITEBACK ACCESS:      60235  HIT:       8175  MISS:      52060
Heartbeat CPU 0 instructions: 104000000 cycles: 78009170 heartbeat IPC: 0.842621 cumulative IPC: 0.824313 (Simulation time: 0 hr 37 min 57 sec) 

Region of Interest Statistics
cpu0_DTLB TOTAL     ACCESS:   13553832  HIT:   13436656  MISS:     117176
cpu0_DTLB LOAD      ACCESS:   10659298  HIT:   10544622  MISS:     114676
cpu0_DTLB RFO       ACCESS:    2894534  HIT:    2892034  MISS:       2500
cpu0_DTLB PREFETCH  ACCESS:          0  HIT:          0  MISS:          0
cpu0_DTLB WRITEBACK ACCESS:          0  HIT:          0  MISS:          0
cpu0_ITLB TOTAL     ACCESS:    6177843  HIT:    6177843  MISS:          0
cpu0_ITLB LOAD      ACCESS:    6177843  HIT:    6177843  MISS:          0
cpu0_ITLB RFO       ACCESS:          0  HIT:          0  MISS:          0
cpu0_ITLB PREFETCH  ACCESS:          0  HIT:          0  MISS:          0
cpu0_ITLB WRITEBACK ACCESS:          0  HIT:          0  MISS:          0
cpu0_STLB TOTAL     ACCESS:     117176  HIT:     113276  MISS:       3900
cpu0_STLB LOAD      ACCESS:     114676  HIT:     111744  MISS:       2932
cpu0_STLB RFO       ACCESS:       2500  HIT:       1532  MISS:        968
cpu0_STLB PREFETCH  ACCESS:          0  HIT:          0  MISS:          0
cpu0_STLB WRITEBACK ACCESS:          0  HIT:          0  MISS:          0
cpu0_L1D TOTAL     ACCESS:   16427613  HIT:   16275656  MISS:     151957
cpu0_L1D LOAD      ACCESS:    9407163  HIT:    9287042  MISS:     120121
cpu0_L1D RFO       ACCESS:    7016561  HIT:    6984927  MISS:      31634
cpu0_L1D PREFETCH  ACCESS:          0  HIT:          0  MISS:          0
cpu0_L1D WRITEBACK ACCESS:          0  HIT:          0  MISS:          0
cpu0_L2C TOTAL     ACCESS:     240436  HIT:     152086  MISS:      88350
cpu0_L2C LOAD      ACCESS:     120101  HIT:      61888  MISS:      58213
cpu0_L2C RFO       ACCESS:      31634  HIT:       1512  MISS:      30122
cpu0_L2C PREFETCH  ACCESS:          0  HIT:          0  MISS:          0
cpu0_L2C WRITEBACK ACCESS:      88499  HIT:      88493  MISS:          6
LLC TOTAL     ACCESS:     150641  HIT:      14168  MISS:     136473
LLC LOAD      ACCESS:      58213  HIT:       5441  MISS:      52772
LLC RFO       ACCESS:      30122  HIT:        459  MISS:      29663
LLC PREFETCH  ACCESS:          0  HIT:          0  MISS:          0
LLC WRITEBACK ACCESS:      62297  HIT:       8268  MISS:      54029
Heartbeat CPU 0 instructions: 106000003 cycles: 80357151 heartbeat IPC: 0.851797 cumulative IPC: 0.825264 (Simulation time: 0 hr 39 min 22 sec) 

Region of Interest Statistics
cpu0_DTLB TOTAL     ACCESS:   14053602  HIT:   13932854  MISS:     120748
cpu0_DTLB LOAD      ACCESS:   11052910  HIT:   10934736  MISS:     118174
cpu0_DTLB RFO       ACCESS:    3000692  HIT:    2998118  MISS:       2574
cpu0_DTLB PREFETCH  ACCESS:          0  HIT:          0  MISS:          0
cpu0_DTLB WRITEBACK ACCESS:          0  HIT:          0  MISS:          0
cpu0_ITLB TOTAL     ACCESS:    6406811  HIT:    6406811  MISS:          0
cpu0_ITLB LOAD      ACCESS:    6406811  HIT:    6406811  MISS:          0
cpu0_ITLB RFO       ACCESS:          0  HIT:          0  MISS:          0
cpu0_ITLB PREFETCH  ACCESS:          0  HIT:          0  MISS:          0
cpu0_ITLB WRITEBACK ACCESS:          0  HIT:          0  MISS:          0
cpu0_STLB TOTAL     ACCESS:     120748  HIT:     116687  MISS:       4061
cpu0_STLB LOAD      ACCESS:     118174  HIT:     115120  MISS:       3054
cpu0_STLB RFO       ACCESS:       2574  HIT:       1567  MISS:       1007
cpu0_STLB PREFETCH  ACCESS:          0  HIT:          0  MISS:          0
cpu0_STLB WRITEBACK ACCESS:          0  HIT:          0  MISS:          0
cpu0_L1D TOTAL     ACCESS:   17034769  HIT:   16877847  MISS:     156922
cpu0_L1D LOAD      ACCESS:    9756039  HIT:    9632340  MISS:     123699
cpu0_L1D RFO       ACCESS:    7274680  HIT:    7241659  MISS:      33021
cpu0_L1D PREFETCH  ACCESS:          0  HIT:          0  MISS:          0
cpu0_L1D WRITEBACK ACCESS:          0  HIT:          0  MISS:          0
cpu0_L2C TOTAL     ACCESS:     248478  HIT:     157362  MISS:      91116
cpu0_L2C LOAD      ACCESS:     123679  HIT:      64063  MISS:      59616
cpu0_L2C RFO       ACCESS:      33021  HIT:       1536  MISS:      31485
cpu0_L2C PREFETCH  ACCESS:          0  HIT:          0  MISS:          0
cpu0_L2C WRITEBACK ACCESS:      91576  HIT:      91570  MISS:          6
LLC TOTAL     ACCESS:     155472  HIT:      14318  MISS:     141154
LLC LOAD      ACCESS:      59616  HIT:       5478  MISS:      54138
LLC RFO       ACCESS:      31485  HIT:        459  MISS:      31026
LLC PREFETCH  ACCESS:          0  HIT:          0  MISS:          0
LLC WRITEBACK ACCESS:      64362  HIT:       8381  MISS:      55981
Heartbeat CPU 0 instructions: 108000000 cycles: 82695803 heartbeat IPC: 0.855192 cumulative IPC: 0.826261 (Simulation time: 0 hr 40 min 46 sec) 

Region of Interest Statistics
cpu0_DTLB TOTAL     ACCESS:   14553764  HIT:   14430039  MISS:     123725
cpu0_DTLB LOAD      ACCESS:   11447050  HIT:   11325958  MISS:     121092
cpu0_DTLB RFO       ACCESS:    3106714  HIT:    3104081  MISS:       2633
cpu0_DTLB PREFETCH  ACCESS:          0  HIT:          0  MISS:          0
cpu0_DTLB WRITEBACK ACCESS:          0  HIT:          0  MISS:          0
cpu0_ITLB TOTAL     ACCESS:    6635958  HIT:    6635958  MISS:          0
cpu0_ITLB LOAD      ACCESS:    6635958  HIT:    6635958  MISS:          0
cpu0_ITLB RFO       ACCESS:          0  HIT:          0  MISS:          0
cpu0_ITLB PREFETCH  ACCESS:          0  HIT:          0  MISS:          0
cpu0_ITLB WRITEBACK ACCESS:          0  HIT:          0  MISS:          0
cpu0_STLB TOTAL     ACCESS:     123725  HIT:     119479  MISS:       4246
cpu0_STLB LOAD      ACCESS:     121092  HIT:     117888  MISS:       3204
cpu0_STLB RFO       ACCESS:       2633  HIT:       1591  MISS:       1042
cpu0_STLB PREFETCH  ACCESS:          0  HIT:          0  MISS:          0
cpu0_STLB WRITEBACK ACCESS:          0  HIT:          0  MISS:          0
cpu0_L1D TOTAL     ACCESS:   17641945  HIT:   17480115  MISS:     161830
cpu0_L1D LOAD      ACCESS:   10105046  HIT:    9977882  MISS:     127164
cpu0_L1D RFO       ACCESS:    7532665  HIT:    7498203  MISS:      34462
cpu0_L1D PREFETCH  ACCESS:          0  HIT:          0  MISS:          0
cpu0_L1D WRITEBACK ACCESS:          0  HIT:          0  MISS:          0
cpu0_L2C TOTAL     ACCESS:     256377  HIT:     162440  MISS:      93937
cpu0_L2C LOAD      ACCESS:     127142  HIT:      66132  MISS:      61010
cpu0_L2C RFO       ACCESS:      34462  HIT:       1552  MISS:      32910
cpu0_L2C PREFETCH  ACCESS:          0  HIT:          0  MISS:          0
cpu0_L2C WRITEBACK ACCESS:      94569  HIT:      94563  MISS:          6
LLC TOTAL     ACCESS:     160460  HIT:      14575  MISS:     145885
LLC LOAD      ACCESS:      61010  HIT:       5547  MISS:      55463
LLC RFO       ACCESS:      32910  HIT:        459  MISS:      32451
LLC PREFETCH  ACCESS:          0  HIT:          0  MISS:          0
LLC WRITEBACK ACCESS:      66529  HIT:       8569  MISS:      57960
Heartbeat CPU 0 instructions: 110000002 cycles: 85013700 heartbeat IPC: 0.862852 cumulative IPC: 0.827431 (Simulation time: 0 hr 42 min 8 sec) 

Region of Interest Statistics
cpu0_DTLB TOTAL     ACCESS:   15053306  HIT:   14926382  MISS:     126924
cpu0_DTLB LOAD      ACCESS:   11840532  HIT:   11716310  MISS:     124222
cpu0_DTLB RFO       ACCESS:    3212774  HIT:    3210072  MISS:       2702
cpu0_DTLB PREFETCH  ACCESS:          0  HIT:          0  MISS:          0
cpu0_DTLB WRITEBACK ACCESS:          0  HIT:          0  MISS:          0
cpu0_ITLB TOTAL     ACCESS:    6865036  HIT:    6865036  MISS:          0
cpu0_ITLB LOAD      ACCESS:    6865036  HIT:    6865036  MISS:          0
cpu0_ITLB RFO       ACCESS:          0  HIT:          0  MISS:          0
cpu0_ITLB PREFETCH  ACCESS:          0  HIT:          0  MISS:          0
cpu0_ITLB WRITEBACK ACCESS:          0  HIT:          0  MISS:          0
cpu0_STLB TOTAL     ACCESS:     126924  HIT:     122567  MISS:       4357
cpu0_STLB LOAD      ACCESS:     124222  HIT:     120947  MISS:       3275
cpu0_STLB RFO       ACCESS:       2702  HIT:       1620  MISS:       1082
cpu0_STLB PREFETCH  ACCESS:          0  HIT:          0  MISS:          0
cpu0_STLB WRITEBACK ACCESS:          0  HIT:          0  MISS:          0
cpu0_L1D TOTAL     ACCESS:   18248494  HIT:   18081470  MISS:     167024
cpu0_L1D LOAD      ACCESS:   10453425  HIT:   10322523  MISS:     130902
cpu0_L1D RFO       ACCESS:    7790724  HIT:    7754806  MISS:      35918
cpu0_L1D PREFETCH  ACCESS:          0  HIT:          0  MISS:          0
cpu0_L1D WRITEBACK ACCESS:          0  HIT:          0  MISS:          0
cpu0_L2C TOTAL     ACCESS:     264758  HIT:     167934  MISS:      96824
cpu0_L2C LOAD      ACCESS:     130879  HIT:      68424  MISS:      62455
cpu0_L2C RFO       ACCESS:      35918  HIT:       1566  MISS:      34352
cpu0_L2C PREFETCH  ACCESS:          0  HIT:          0  MISS:          0
cpu0_L2C WRITEBACK ACCESS:      97757  HIT:      97751  MISS:          6
LLC TOTAL     ACCESS:     165507  HIT:      15036  MISS:     150471
LLC LOAD      ACCESS:      62455  HIT:       5746  MISS:      56709
LLC RFO       ACCESS:      34352  HIT:        459  MISS:      33893
LLC PREFETCH  ACCESS:          0  HIT:          0  MISS:          0
LLC WRITEBACK ACCESS:      68689  HIT:       8831  MISS:      59858
Heartbeat CPU 0 instructions: 112000000 cycles: 87366384 heartbeat IPC: 0.850092 cumulative IPC: 0.828143 (Simulation time: 0 hr 43 min 28 sec) 

Region of Interest Statistics
cpu0_DTLB TOTAL     ACCESS:   15553522  HIT:   15423251  MISS:     130271
cpu0_DTLB LOAD      ACCESS:   12234414  HIT:   12106937  MISS:     127477
cpu0_DTLB RFO       ACCESS:    3319108  HIT:    3316314  MISS:       2794
cpu0_DTLB PREFETCH  ACCESS:          0  HIT:          0  MISS:          0
cpu0_DTLB WRITEBACK ACCESS:          0  HIT:          0  MISS:          0
cpu0_ITLB TOTAL     ACCESS:    7093889  HIT:    7093889  MISS:          0
cpu0_ITLB LOAD      ACCESS:    7093889  HIT:    7093889  MISS:          0
cpu0_ITLB RFO       ACCESS:          0  HIT:          0  MISS:          0
cpu0_ITLB PREFETCH  ACCESS:          0  HIT:          0  MISS:          0
cpu0_ITLB WRITEBACK ACCESS:          0  HIT:          0  MISS:          0
cpu0_STLB TOTAL     ACCESS:     130271  HIT:     125760  MISS:       4511
cpu0_STLB LOAD      ACCESS:     127477  HIT:     124084  MISS:       3393
cpu0_STLB RFO       ACCESS:       2794  HIT:       1676  MISS:       1118
cpu0_STLB PREFETCH  ACCESS:          0  HIT:          0  MISS:          0
cpu0_STLB WRITEBACK ACCESS:          0  HIT:          0  MISS:          0
cpu0_L1D TOTAL     ACCESS:   18855591  HIT:   18683773  MISS:     171818
cpu0_L1D LOAD      ACCESS:   10802578  HIT:   10668190  MISS:     134388
cpu0_L1D RFO       ACCESS:    8048514  HIT:    8011290  MISS:      37224
cpu0_L1D PREFETCH  ACCESS:          0  HIT:          0  MISS:          0
cpu0_L1D WRITEBACK ACCESS:          0  HIT:          0  MISS:          0
cpu0_L2C TOTAL     ACCESS:     272516  HIT:     173019  MISS:      99497
cpu0_L2C LOAD      ACCESS:     134365  HIT:      70482  MISS:      63883
cpu0_L2C RFO       ACCESS:      37224  HIT:       1628  MISS:      35596
cpu0_L2C PREFETCH  ACCESS:          0  HIT:          0  MISS:          0
cpu0_L2C WRITEBACK ACCESS:     100721  HIT:     100715  MISS:          6
LLC TOTAL     ACCESS:     170254  HIT:      15331  MISS:     154923
LLC LOAD      ACCESS:      63883  HIT:       5854  MISS:      58029
LLC RFO       ACCESS:      35596  HIT:        459  MISS:      35137
LLC PREFETCH  ACCESS:          0  HIT:          0  MISS:          0
LLC WRITEBACK ACCESS:      70763  HIT:       9018  MISS:      61745
Heartbeat CPU 0 instructions: 114000004 cycles: 89744390 heartbeat IPC: 0.841042 cumulative IPC: 0.82854 (Simulation time: 0 hr 44 min 47 sec) 

Region of Interest Statistics
cpu0_DTLB TOTAL     ACCESS:   16053715  HIT:   15919449  MISS:     134266
cpu0_DTLB LOAD      ACCESS:   12628035  HIT:   12496670  MISS:     131365
cpu0_DTLB RFO       ACCESS:    3425680  HIT:    3422779  MISS:       2901
cpu0_DTLB PREFETCH  ACCESS:          0  HIT:          0  MISS:          0
cpu0_DTLB WRITEBACK ACCESS:          0  HIT:          0  MISS:          0
cpu0_ITLB TOTAL     ACCESS:    7322850  HIT:    7322850  MISS:          0
cpu0_ITLB LOAD      ACCESS:    7322850  HIT:    7322850  MISS:          0
cpu0_ITLB RFO       ACCESS:          0  HIT:          0  MISS:          0
cpu0_ITLB PREFETCH  ACCESS:          0  HIT:          0  MISS:          0
cpu0_ITLB WRITEBACK ACCESS:          0  HIT:          0  MISS:          0
cpu0_STLB TOTAL     ACCESS:     134266  HIT:     129611  MISS:       4655
cpu0_STLB LOAD      ACCESS:     131365  HIT:     127863  MISS:       3502
cpu0_STLB RFO       ACCESS:       2901  HIT:       1748  MISS:       1153
cpu0_STLB PREFETCH  ACCESS:          0  HIT:          0  MISS:          0
cpu0_STLB WRITEBACK ACCESS:          0  HIT:          0  MISS:          0
cpu0_L1D TOTAL     ACCESS:   19463979  HIT:   19286699  MISS:     177280
cpu0_L1D LOAD      ACCESS:   11151359  HIT:   11012804  MISS:     138555
cpu0_L1D RFO       ACCESS:    8307977  HIT:    8269458  MISS:      38519
cpu0_L1D PREFETCH  ACCESS:          0  HIT:          0  MISS:          0
cpu0_L1D WRITEBACK ACCESS:          0  HIT:          0  MISS:          0
cpu0_L2C TOTAL     ACCESS:     281174  HIT:     178802  MISS:     102372
cpu0_L2C LOAD      ACCESS:     138528  HIT:      72991  MISS:      65537
cpu0_L2C RFO       ACCESS:      38519  HIT:       1705  MISS:      36814
cpu0_L2C PREFETCH  ACCESS:          0  HIT:          0  MISS:          0
cpu0_L2C WRITEBACK ACCESS:     103921  HIT:     103912  MISS:          9
LLC TOTAL     ACCESS:     175444  HIT:      15745  MISS:     159699
LLC LOAD      ACCESS:      65537  HIT:       5990  MISS:      59547
LLC RFO       ACCESS:      36814  HIT:        461  MISS:      36353
LLC PREFETCH  ACCESS:          0  HIT:          0  MISS:          0
LLC WRITEBACK ACCESS:      73081  HIT:       9294  MISS:      63787
Heartbeat CPU 0 instructions: 116000001 cycles: 92082361 heartbeat IPC: 0.855441 cumulative IPC: 0.82933 (Simulation time: 0 hr 45 min 48 sec) 

Region of Interest Statistics
cpu0_DTLB TOTAL     ACCESS:   16554109  HIT:   16415757  MISS:     138352
cpu0_DTLB LOAD      ACCESS:   13022140  HIT:   12886782  MISS:     135358
cpu0_DTLB RFO       ACCESS:    3531969  HIT:    3528975  MISS:       2994
cpu0_DTLB PREFETCH  ACCESS:          0  HIT:          0  MISS:          0
cpu0_DTLB WRITEBACK ACCESS:          0  HIT:          0  MISS:          0
[...]
cpu0_STLB WRITEBACK ACCESS:          0  HIT:          0  MISS:          0
cpu0_L1D TOTAL     ACCESS:  452417450  HIT:  444534024  MISS:    7883426
cpu0_L1D LOAD      ACCESS:  256691628  HIT:  249731046  MISS:    6960582
cpu0_L1D RFO       ACCESS:  195034349  HIT:  194119575  MISS:     914774
cpu0_L1D PREFETCH  ACCESS:          0  HIT:          0  MISS:          0
cpu0_L1D WRITEBACK ACCESS:          0  HIT:          0  MISS:          0
cpu0_L2C TOTAL     ACCESS:   10785283  HIT:    7629520  MISS:    3155763
cpu0_L2C LOAD      ACCESS:    6957667  HIT:    4292463  MISS:    2665204
cpu0_L2C RFO       ACCESS:     914773  HIT:     424640  MISS:     490133
cpu0_L2C PREFETCH  ACCESS:          0  HIT:          0  MISS:          0
cpu0_L2C WRITEBACK ACCESS:    2904773  HIT:    2904628  MISS:        145
LLC TOTAL     ACCESS:    5227140  HIT:     291147  MISS:    4935993
LLC LOAD      ACCESS:    2665195  HIT:      47389  MISS:    2617806
LLC RFO       ACCESS:     490133  HIT:       2091  MISS:     488042
LLC PREFETCH  ACCESS:          0  HIT:          0  MISS:          0
LLC WRITEBACK ACCESS:    2071531  HIT:     241618  MISS:    1829913
Heartbeat CPU 0 instructions: 1548000003 cycles: 1947965861 heartbeat IPC: 0.729119 cumulative IPC: 0.773974 (Simulation time: 11 hr 27 min 32 sec) 

Region of Interest Statistics
cpu0_DTLB TOTAL     ACCESS:  374181259  HIT:  369167256  MISS:    5014003
cpu0_DTLB LOAD      ACCESS:  293727012  HIT:  288785826  MISS:    4941186
cpu0_DTLB RFO       ACCESS:   80454247  HIT:   80381430  MISS:      72817
cpu0_DTLB PREFETCH  ACCESS:          0  HIT:          0  MISS:          0
cpu0_DTLB WRITEBACK ACCESS:          0  HIT:          0  MISS:          0
cpu0_ITLB TOTAL     ACCESS:  170982793  HIT:  170982793  MISS:          0
cpu0_ITLB LOAD      ACCESS:  170982793  HIT:  170982793  MISS:          0
cpu0_ITLB RFO       ACCESS:          0  HIT:          0  MISS:          0
cpu0_ITLB PREFETCH  ACCESS:          0  HIT:          0  MISS:          0
cpu0_ITLB WRITEBACK ACCESS:          0  HIT:          0  MISS:          0
cpu0_STLB TOTAL     ACCESS:    5014003  HIT:    4319407  MISS:     694596
cpu0_STLB LOAD      ACCESS:    4941186  HIT:    4262438  MISS:     678748
cpu0_STLB RFO       ACCESS:      72817  HIT:      56969  MISS:      15848
cpu0_STLB PREFETCH  ACCESS:          0  HIT:          0  MISS:          0
cpu0_STLB WRITEBACK ACCESS:          0  HIT:          0  MISS:          0
cpu0_L1D TOTAL     ACCESS:  453019992  HIT:  445125077  MISS:    7894915
cpu0_L1D LOAD      ACCESS:  257030165  HIT:  250058970  MISS:    6971195
cpu0_L1D RFO       ACCESS:  195296796  HIT:  194381170  MISS:     915626
cpu0_L1D PREFETCH  ACCESS:          0  HIT:          0  MISS:          0
cpu0_L1D WRITEBACK ACCESS:          0  HIT:          0  MISS:          0
cpu0_L2C TOTAL     ACCESS:   10800664  HIT:    7639312  MISS:    3161352
cpu0_L2C LOAD      ACCESS:    6968267  HIT:    4297800  MISS:    2670467
cpu0_L2C RFO       ACCESS:     915625  HIT:     425168  MISS:     490457
cpu0_L2C PREFETCH  ACCESS:          0  HIT:          0  MISS:          0
cpu0_L2C WRITEBACK ACCESS:    2908678  HIT:    2908532  MISS:        146
LLC TOTAL     ACCESS:    5235993  HIT:     291489  MISS:    4944504
LLC LOAD      ACCESS:    2670458  HIT:      47429  MISS:    2623029
LLC RFO       ACCESS:     490457  HIT:       2091  MISS:     488366
LLC PREFETCH  ACCESS:          0  HIT:          0  MISS:          0
LLC WRITEBACK ACCESS:    2074796  HIT:     241920  MISS:    1832876
Heartbeat CPU 0 instructions: 1550000000 cycles: 1950738596 heartbeat IPC: 0.721308 cumulative IPC: 0.773899 (Simulation time: 11 hr 28 min 11 sec) 

Region of Interest Statistics
cpu0_DTLB TOTAL     ACCESS:  374678918  HIT:  369656577  MISS:    5022341
cpu0_DTLB LOAD      ACCESS:  294117308  HIT:  289167886  MISS:    4949422
cpu0_DTLB RFO       ACCESS:   80561610  HIT:   80488691  MISS:      72919
cpu0_DTLB PREFETCH  ACCESS:          0  HIT:          0  MISS:          0
cpu0_DTLB WRITEBACK ACCESS:          0  HIT:          0  MISS:          0
cpu0_ITLB TOTAL     ACCESS:  171210020  HIT:  171210020  MISS:          0
cpu0_ITLB LOAD      ACCESS:  171210020  HIT:  171210020  MISS:          0
cpu0_ITLB RFO       ACCESS:          0  HIT:          0  MISS:          0
cpu0_ITLB PREFETCH  ACCESS:          0  HIT:          0  MISS:          0
cpu0_ITLB WRITEBACK ACCESS:          0  HIT:          0  MISS:          0
cpu0_STLB TOTAL     ACCESS:    5022341  HIT:    4325999  MISS:     696342
cpu0_STLB LOAD      ACCESS:    4949422  HIT:    4268946  MISS:     680476
cpu0_STLB RFO       ACCESS:      72919  HIT:      57053  MISS:      15866
cpu0_STLB PREFETCH  ACCESS:          0  HIT:          0  MISS:          0
cpu0_STLB WRITEBACK ACCESS:          0  HIT:          0  MISS:          0
cpu0_L1D TOTAL     ACCESS:  453622727  HIT:  445715723  MISS:    7907004
cpu0_L1D LOAD      ACCESS:  257368720  HIT:  250386366  MISS:    6982354
cpu0_L1D RFO       ACCESS:  195559238  HIT:  194642692  MISS:     916546
cpu0_L1D PREFETCH  ACCESS:          0  HIT:          0  MISS:          0
cpu0_L1D WRITEBACK ACCESS:          0  HIT:          0  MISS:          0
cpu0_L2C TOTAL     ACCESS:   10816905  HIT:    7649496  MISS:    3167409
cpu0_L2C LOAD      ACCESS:    6979420  HIT:    4303168  MISS:    2676252
cpu0_L2C RFO       ACCESS:     916545  HIT:     425817  MISS:     490728
cpu0_L2C PREFETCH  ACCESS:          0  HIT:          0  MISS:          0
cpu0_L2C WRITEBACK ACCESS:    2912836  HIT:    2912689  MISS:        147
LLC TOTAL     ACCESS:    5245648  HIT:     292000  MISS:    4953648
LLC LOAD      ACCESS:    2676243  HIT:      47464  MISS:    2628779
LLC RFO       ACCESS:     490728  HIT:       2091  MISS:     488637
LLC PREFETCH  ACCESS:          0  HIT:          0  MISS:          0
LLC WRITEBACK ACCESS:    2078395  HIT:     242396  MISS:    1835999
Finished CPU 0 instructions: 1500000004 cycles: 1938238516 cumulative IPC: 0.773899 (Simulation time: 11 hr 28 min 11 sec) 

ChampSim completed all CPUs

Region of Interest Statistics

CPU 0 cumulative IPC: 0.773899 instructions: 1500000004 cycles: 1938238516
cpu0_DTLB TOTAL     ACCESS:  374678918  HIT:  369656577  MISS:    5022341
cpu0_DTLB LOAD      ACCESS:  294117308  HIT:  289167886  MISS:    4949422
cpu0_DTLB RFO       ACCESS:   80561610  HIT:   80488691  MISS:      72919
cpu0_DTLB PREFETCH  ACCESS:          0  HIT:          0  MISS:          0
cpu0_DTLB WRITEBACK ACCESS:          0  HIT:          0  MISS:          0
cpu0_DTLB TRANSLATION ACCESS:          0  HIT:          0  MISS:          0
cpu0_DTLB PREFETCH  REQUESTED:          0  ISSUED:          0  USEFUL:          0  USELESS:          0
cpu0_DTLB AVERAGE MISS LATENCY: 10.3237 cycles
cpu0_ITLB TOTAL     ACCESS:  171210021  HIT:  171210021  MISS:          0
cpu0_ITLB LOAD      ACCESS:  171210021  HIT:  171210021  MISS:          0
cpu0_ITLB RFO       ACCESS:          0  HIT:          0  MISS:          0
cpu0_ITLB PREFETCH  ACCESS:          0  HIT:          0  MISS:          0
cpu0_ITLB WRITEBACK ACCESS:          0  HIT:          0  MISS:          0
cpu0_ITLB TRANSLATION ACCESS:          0  HIT:          0  MISS:          0
cpu0_ITLB PREFETCH  REQUESTED:          0  ISSUED:          0  USEFUL:          0  USELESS:          0
cpu0_ITLB AVERAGE MISS LATENCY: -nan cycles
cpu0_STLB TOTAL     ACCESS:    5022341  HIT:    4325999  MISS:     696342
cpu0_STLB LOAD      ACCESS:    4949422  HIT:    4268946  MISS:     680476
cpu0_STLB RFO       ACCESS:      72919  HIT:      57053  MISS:      15866
cpu0_STLB PREFETCH  ACCESS:          0  HIT:          0  MISS:          0
cpu0_STLB WRITEBACK ACCESS:          0  HIT:          0  MISS:          0
cpu0_STLB TRANSLATION ACCESS:          0  HIT:          0  MISS:          0
cpu0_STLB PREFETCH  REQUESTED:          0  ISSUED:          0  USEFUL:          0  USELESS:          0
cpu0_STLB AVERAGE MISS LATENCY: 9.46473 cycles
cpu0_L1D TOTAL     ACCESS:  453622727  HIT:  445715723  MISS:    7907004
cpu0_L1D LOAD      ACCESS:  257368720  HIT:  250386366  MISS:    6982354
cpu0_L1D RFO       ACCESS:  195559238  HIT:  194642692  MISS:     916546
cpu0_L1D PREFETCH  ACCESS:          0  HIT:          0  MISS:          0
cpu0_L1D WRITEBACK ACCESS:          0  HIT:          0  MISS:          0
cpu0_L1D TRANSLATION ACCESS:     694769  HIT:     686665  MISS:       8104
cpu0_L1D PREFETCH  REQUESTED:          0  ISSUED:          0  USEFUL:          0  USELESS:          0
cpu0_L1D AVERAGE MISS LATENCY: 83.1102 cycles
cpu0_L2C TOTAL     ACCESS:   10816905  HIT:    7649496  MISS:    3167409
cpu0_L2C LOAD      ACCESS:    6979420  HIT:    4303168  MISS:    2676252
cpu0_L2C RFO       ACCESS:     916545  HIT:     425817  MISS:     490728
cpu0_L2C PREFETCH  ACCESS:          0  HIT:          0  MISS:          0
cpu0_L2C WRITEBACK ACCESS:    2912836  HIT:    2912689  MISS:        147
cpu0_L2C TRANSLATION ACCESS:       8104  HIT:       7822  MISS:        282
cpu0_L2C PREFETCH  REQUESTED:          0  ISSUED:          0  USEFUL:          0  USELESS:          0
cpu0_L2C AVERAGE MISS LATENCY: 179.992 cycles
LLC TOTAL     ACCESS:    5245648  HIT:     292000  MISS:    4953648
LLC LOAD      ACCESS:    2676243  HIT:      47464  MISS:    2628779
LLC RFO       ACCESS:     490728  HIT:       2091  MISS:     488637
LLC PREFETCH  ACCESS:          0  HIT:          0  MISS:          0
LLC WRITEBACK ACCESS:    2078395  HIT:     242396  MISS:    1835999
LLC TRANSLATION ACCESS:        282  HIT:         49  MISS:        233
LLC PREFETCH  REQUESTED:          0  ISSUED:          0  USEFUL:          0  USELESS:          0
LLC AVERAGE MISS LATENCY: 101.662 cycles
~~~~~~~~~~Reuse Distance Profiler output~~~~~~~~~~
0	0	0
1	0	0
2	0	0
3	0	0
4	0	0
5	0	0
6	0	0
7	0	0
8	0	0
9	0	0
10	0	0
11	0	0
12	0	0
13	0	0
14	0	0
15	0	0
16	0	0
17	0	0
18	0	0
19	0	0
20	0	0
21	0	0
22	0	0
23	0	0
24	0	0
25	0	0
26	0	0
27	0	0
28	0	0
29	0	0
30	0	0
31	0	0
32	0	0
33	0	0
34	0	0
35	0	0
36	0	0
37	0	0
38	0	0
39	0	0
40	0	0
41	0	0
42	0	0
43	0	0
44	0	0
45	0	0
46	0	0
47	0	0
48	0	0
49	0	0
50	0	0
51	0	0
52	0	0
53	0	0
54	0	0
55	0	0
56	0	0
57	0	0
58	0	0
59	0	0
60	0	0
61	0	0
62	0	0
63	0	0
64	0	0
66	0	0
68	0	0
70	0	0
72	0	0
74	0	0
76	0	0
78	0	0
80	0	0
82	0	0
84	0	0
86	0	0
88	0	0
90	0	0
92	0	0
94	0	0
96	0	0
98	0	0
100	0	0
102	0	0
104	0	0
106	0	0
108	0	0
110	0	0
112	0	0
114	0	0
116	0	0
118	0	0
120	0	0
122	0	0
124	0	0
126	0	0
128	0	0
132	0	0
136	0	0
140	0	0
144	0	0
148	0	0
152	0	0
156	0	0
160	0	0
164	0	0
168	0	0
172	0	0
176	0	0
180	0	0
184	0	0
188	0	0
192	0	0
196	0	0
200	0	0
204	0	0
208	0	0
212	0	0
216	0	0
220	0	0
224	0	0
228	0	0
232	0	0
236	0	0
240	0	0
244	0	0
248	0	0
252	0	0
256	0	0
264	0	0
272	0	0
280	0	0
288	0	0
296	0	0
304	0	0
312	0	0
320	0	0
328	0	0
336	0	0
344	0	0
352	0	0
360	0	0
368	0	0
376	0	0
384	0	0
392	0	0
400	0	0
408	0	0
416	0	0
424	0	0
432	0	0
440	0	0
448	0	0
456	0	0
464	0	0
472	0	0
480	0	0
488	0	0
496	0	0
504	0	0
512	0	0
528	0	0
544	0	0
560	0	0
576	0	0
592	0	0
608	0	0
624	0	0
640	0	0
656	0	0
672	0	0
688	0	0
704	0	0
720	0	0
736	0	0
752	0	0
768	0	0
784	0	0
800	0	0
816	0	0
832	0	0
848	0	0
864	0	0
880	0	0
896	0	0
912	0	0
928	0	0
944	0	0
960	0	0
976	0	0
992	0	0
1008	0	0
1024	0	0
1056	0	0
1088	0	0
1120	0	0
1152	0	0
1184	0	0
1216	0	0
1248	0	0
1280	0	0
1312	0	0
1344	0	0
1376	0	0
1408	0	0
1440	0	0
1472	0	0
1504	0	0
1536	0	0
1568	0	0
1600	0	0
1632	0	0
1664	0	0
1696	0	0
1728	0	0
1760	0	0
1792	0	0
1824	0	0
1856	0	0
1888	0	0
1920	0	0
1952	0	0
1984	0	0
2016	0	0
2048	0	0
2112	0	0
2176	0	0
2240	0	0
2304	0	0
2368	0	0
2432	0	0
2496	0	0
2560	0	0
2624	0	0
2688	0	0
2752	0	0
2816	0	0
2880	0	0
2944	0	0
3008	0	0
3072	0	0
3136	0	0
3200	0	0
3264	0	0
3328	0	0
3392	0	0
3456	0	0
3520	0	0
3584	0	0
3648	0	0
3712	0	0
3776	0	0
3840	0	0
3904	0	0
3968	0	0
4032	0	0
4096	0	0
4224	0	0
4352	0	0
4480	0	0
4608	0	0
4736	0	0
4864	0	0
4992	0	0
5120	0	0
5248	0	0
5376	0	0
5504	0	0
5632	0	0
5760	0	0
5888	0	0
6016	0	0
6144	0	0
6272	0	0
6400	0	0
6528	0	0
6656	0	0
6784	0	0
6912	0	0
7040	0	0
7168	0	0
7296	0	0
7424	0	0
7552	0	0
7680	0	0
7808	0	0
7936	0	0
8064	0	0
8192	0	0
8448	0	0
8704	0	0
8960	0	0
9216	0	0
9472	0	0
9728	0	0
9984	0	0
10240	0	0
10496	0	0
10752	0	0
11008	0	0
11264	0	0
11520	0	0
11776	0	0
12032	0	0
12288	0	0
12544	0	0
12800	0	0
13056	0	0
13312	0	0
13568	0	0
13824	0	0
14080	0	0
14336	0	0
14592	0	0
14848	0	0
15104	0	0
15360	0	0
15616	0	0
15872	0	0
16128	0	0
16384	0	0
16896	0	0
17408	0	0
17920	0	0
18432	0	0
18944	0	0
19456	0	0
19968	0	0
20480	0	0
20992	0	0
21504	0	0
22016	0	0
22528	0	0
23040	0	0
23552	0	0
24064	0	0
24576	0	0
25088	0	0
25600	0	0
26112	0	0
26624	0	0
27136	0	0
27648	0	0
28160	0	0
28672	0	0
29184	0	0
29696	0	0
30208	0	0
30720	0	0
31232	0	0
31744	0	0
32256	0	0
32768	0	0
33792	0	0
34816	0	0
35840	0	0
36864	0	0
37888	0	0
38912	0	0
39936	0	0
40960	0	0
41984	0	0
43008	0	0
44032	0	0
45056	0	0
46080	0	0
47104	0	0
48128	0	0
49152	0	0
50176	0	0
51200	0	0
52224	0	0
53248	0	0
54272	0	0
55296	0	0
56320	0	0
57344	0	0
58368	0	0
59392	0	0
60416	0	0
61440	0	0
62464	0	0
63488	0	0
64512	0	0
65536	0	0
67584	0	0
69632	0	0
71680	0	0
73728	0	0
75776	0	0
77824	0	0
79872	0	0
81920	0	0
83968	0	0
86016	0	0
88064	0	0
90112	0	0
92160	0	0
94208	0	0
96256	0	0
98304	0	0
100352	0	0
102400	0	0
104448	0	0
106496	0	0
108544	0	0
110592	0	0
112640	0	0
114688	0	0
116736	0	0
118784	0	0
120832	0	0
122880	0	0
124928	0	0
126976	0	0
129024	0	0
131072	0	0
135168	0	0
139264	0	0
143360	0	0
147456	0	0
151552	0	0
155648	0	0
159744	0	0
163840	0	0
167936	0	0
172032	0	0
176128	0	0
180224	0	0
184320	0	0
188416	0	0
192512	0	0
196608	0	0
200704	0	0
204800	0	0
208896	0	0
212992	0	0
217088	0	0
221184	0	0
225280	0	0
229376	0	0
233472	0	0
237568	0	0
241664	0	0
245760	0	0
249856	0	0
253952	0	0
258048	0	0
262144	0	0
270336	0	0
278528	0	0
286720	0	0
294912	0	0
303104	0	0
311296	0	0
319488	0	0
327680	0	0
335872	0	0
344064	0	0
352256	0	0
360448	0	0
368640	0	0
376832	0	0
385024	0	0
393216	0	0
401408	0	0
409600	0	0
417792	0	0
425984	0	0
434176	0	0
442368	0	0
450560	0	0
458752	0	0
466944	0	0
475136	0	0
483328	0	0
491520	0	0
499712	0	0
507904	0	0
516096	0	0
524288	0	0
540672	0	0
557056	0	0
573440	0	0
589824	0	0
606208	0	0
622592	0	0
638976	0	0
655360	0	0
671744	0	0
688128	0	0
704512	0	0
720896	0	0
737280	0	0
753664	0	0
770048	0	0
786432	0	0
802816	0	0
819200	0	0
835584	0	0
851968	0	0
868352	0	0
884736	0	0
901120	0	0
917504	0	0
933888	0	0
950272	0	0
966656	0	0
983040	0	0
999424	0	0
1015808	0	0
1032192	0	0
1048576	0	0
1081344	0	0
1114112	0	0
1146880	0	0
1179648	0	0
1212416	0	0
1245184	0	0
1277952	0	0
1310720	0	0
1343488	0	0
1376256	0	0
1409024	0	0
1441792	0	0
1474560	0	0
1507328	0	0
1540096	0	0
1572864	0	0
1605632	0	0
1638400	0	0
1671168	0	0
1703936	0	0
1736704	0	0
1769472	0	0
1802240	0	0
1835008	0	0
1867776	0	0
1900544	0	0
1933312	0	0
1966080	0	0
1998848	0	0
2031616	0	0
2064384	0	0
2097152	0	0
2162688	0	0
2228224	0	0
2293760	0	0
2359296	0	0
2424832	0	0
2490368	0	0
2555904	0	0
2621440	0	0
2686976	0	0
2752512	0	0
2818048	0	0
2883584	0	0
2949120	0	0
3014656	0	0
3080192	0	0
3145728	0	0
3211264	0	0
3276800	0	0
3342336	0	0
3407872	0	0
3473408	0	0
3538944	0	0
3604480	0	0
3670016	0	0
3735552	0	0
3801088	0	0
3866624	0	0
3932160	0	0
3997696	0	0
4063232	0	0
4128768	0	0
4194304	0	0
4325376	0	0
4456448	0	0
4587520	0	0
4718592	0	0
4849664	0	0
4980736	0	0
5111808	0	0
5242880	0	0
5373952	0	0
5505024	0	0
5636096	0	0
5767168	0	0
5898240	0	0
6029312	0	0
6160384	0	0
6291456	0	0
6422528	0	0
6553600	0	0
6684672	0	0
6815744	0	0
6946816	0	0
7077888	0	0
7208960	0	0
7340032	0	0
7471104	0	0
7602176	0	0
7733248	0	0
7864320	0	0
7995392	0	0
8126464	0	0
8257536	0	0
8388608	0	0
8650752	0	0
8912896	0	0
9175040	0	0
9437184	0	0
9699328	0	0
9961472	0	0
10223616	0	0
10485760	0	0
10747904	0	0
11010048	0	0
11272192	0	0
11534336	0	0
11796480	0	0
12058624	0	0
12320768	0	0
12582912	0	0
12845056	0	0
13107200	0	0
13369344	0	0
13631488	0	0
13893632	0	0
14155776	0	0
14417920	0	0
14680064	0	0
14942208	0	0
15204352	0	0
15466496	0	0
15728640	0	0
15990784	0	0
16252928	0	0
16515072	0	0
16777216	0	0
17301504	0	0
17825792	0	0
18350080	0	0
18874368	0	0
19398656	0	0
19922944	0	0
20447232	0	0
20971520	0	0
21495808	0	0
22020096	0	0
22544384	0	0
23068672	0	0
23592960	0	0
24117248	0	0
24641536	0	0
25165824	0	0
25690112	0	0
26214400	0	0
26738688	0	0
27262976	0	0
27787264	0	0
28311552	0	0
28835840	0	0
29360128	0	0
29884416	0	0
30408704	0	0
30932992	0	0
31457280	0	0
31981568	0	0
32505856	0	0
33030144	0	0
33554432	0	0
34603008	0	0
35651584	0	0
36700160	0	0
37748736	0	0
38797312	0	0
39845888	0	0
40894464	0	0
41943040	0	0
42991616	0	0
44040192	0	0
45088768	0	0
46137344	0	0
47185920	0	0
48234496	0	0
49283072	0	0
50331648	0	0
51380224	0	0
52428800	0	0
53477376	0	0
54525952	0	0
55574528	0	0
56623104	0	0
57671680	0	0
58720256	0	0
59768832	0	0
60817408	0	0
61865984	0	0
62914560	0	0
63963136	0	0
65011712	0	0
66060288	0	0
67108864	0	0
69206016	0	0
71303168	0	0
73400320	0	0
75497472	0	0
77594624	0	0
79691776	0	0
81788928	0	0
83886080	0	0
85983232	0	0
88080384	0	0
90177536	0	0
92274688	0	0
94371840	0	0
96468992	0	0
98566144	0	0
100663296	0	0
102760448	0	0
104857600	0	0
106954752	0	0
109051904	0	0
111149056	0	0
113246208	0	0
115343360	0	0
117440512	0	0
119537664	0	0
121634816	0	0
123731968	0	0
125829120	0	0
127926272	0	0
130023424	0	0
132120576	0	0
134217728	0	0
138412032	0	0
142606336	0	0
146800640	0	0
150994944	0	0
155189248	0	0
159383552	0	0
163577856	0	0
167772160	0	0
171966464	0	0
176160768	0	0
180355072	0	0
184549376	0	0
188743680	0	0
192937984	0	0
197132288	0	0
201326592	0	0
205520896	0	0
209715200	0	0
213909504	0	0
218103808	0	0
222298112	0	0
226492416	0	0
230686720	0	0
234881024	0	0
239075328	0	0
243269632	0	0
247463936	0	0
251658240	0	0
255852544	0	0
260046848	0	0
264241152	0	0
268435456	0	0
276824064	0	0
285212672	0	0
293601280	0	0
301989888	0	0
310378496	0	0
318767104	0	0
327155712	0	0
335544320	0	0
343932928	0	0
352321536	0	0
360710144	0	0
369098752	0	0
377487360	0	0
385875968	0	0
394264576	0	0
402653184	0	0
411041792	0	0
419430400	0	0
427819008	0	0
436207616	0	0
444596224	0	0
452984832	0	0
461373440	0	0
469762048	0	0
478150656	0	0
486539264	0	0
494927872	0	0
503316480	0	0
511705088	0	0
520093696	0	0
528482304	0	0
536870912	0	0
553648128	0	0
570425344	0	0
587202560	0	0
603979776	0	0
620756992	0	0
637534208	0	0
654311424	0	0
671088640	0	0
687865856	0	0
704643072	0	0
721420288	0	0
738197504	0	0
754974720	0	0
771751936	0	0
788529152	0	0
805306368	0	0
822083584	0	0
838860800	0	0
855638016	0	0
872415232	0	0
889192448	0	0
905969664	0	0
922746880	0	0
939524096	0	0
956301312	0	0
973078528	0	0
989855744	0	0
1006632960	0	0
1023410176	0	0
1040187392	0	0
1056964608	0	0
1073741824	0	0
1107296256	0	0
1140850688	0	0
1174405120	0	0
1207959552	0	0
1241513984	0	0
1275068416	0	0
1308622848	0	0
1342177280	0	0
1375731712	0	0
1409286144	0	0
1442840576	0	0
1476395008	0	0
1509949440	0	0
1543503872	0	0
1577058304	0	0
1610612736	0	0
1644167168	0	0
1677721600	0	0
1711276032	0	0
1744830464	0	0
1778384896	0	0
1811939328	0	0
1845493760	0	0
1879048192	0	0
1912602624	0	0
1946157056	0	0
1979711488	0	0
2013265920	0	0
2046820352	0	0
2080374784	0	0
2113929216	0	0
2147483648	0	0
2214592512	0	0
2281701376	0	0
2348810240	0	0
2415919104	0	0
2483027968	0	0
2550136832	0	0
2617245696	0	0
2684354560	0	0
2751463424	0	0
2818572288	0	0
2885681152	0	0
2952790016	0	0
3019898880	0	0
3087007744	0	0
3154116608	0	0
3221225472	0	0
3288334336	0	0
3355443200	0	0
3422552064	0	0
3489660928	0	0
3556769792	0	0
3623878656	0	0
3690987520	0	0
3758096384	0	0
3825205248	0	0
3892314112	0	0
3959422976	0	0
4026531840	0	0
4093640704	0	0
4160749568	0	0
4227858432	0	0
~~~~~~~~~~Reuse Distance Profiler output end~~~~~~~~~~


DRAM Statistics
 CHANNEL 0
 RQ ROW_BUFFER_HIT:     215231  ROW_BUFFER_MISS:    2902375
 DBUS AVG_CONGESTED_CYCLE:     3.6028
 WQ ROW_BUFFER_HIT:     219942  ROW_BUFFER_MISS:    1845067  FULL:          0


CPU 0 Branch Prediction Accuracy: 77.2357% MPKI: 29.7067 Average ROB Occupancy at Mispredict: 44.6525
Branch type MPKI
BRANCH_DIRECT_JUMP: 0
BRANCH_INDIRECT: 0
BRANCH_CONDITIONAL: 29.7067
BRANCH_DIRECT_CALL: 0
BRANCH_INDIRECT_CALL: 0
BRANCH_RETURN: 0

