
*** ChampSim Multicore Out-of-Order Simulator ***

Warmup Instructions: 50000000
Simulation Instructions: 1500000000
Number of CPUs: 1
Off-chip DRAM Size: 4 GiB Channels: 1 Width: 64-bit Data Rate: 3200 MT/s

VirtualMemory physical capacity: 8588881920 num_ppages: 2096895
VirtualMemory page size: 4096 log2_page_size: 12

CPU 0 runs traces/481.wrf-816B.champsimtrace.xz
CPU 0 Bimodal branch predictor
Basic BTB sets: 1024 ways: 8 indirect buffer size: 4096 RAS size: 64
Initializing LRU.
Initializing LRU.
Initializing LRU.
Initializing LRU.
Initializing rdLRU.
Initializing LRU.
Initializing LRU.
Heartbeat CPU 0 instructions: 2000001 cycles: 832414 heartbeat IPC: 2.40265 cumulative IPC: 2.40265 (Simulation time: 0 hr 1 min 26 sec) 
Heartbeat CPU 0 instructions: 4000001 cycles: 1664722 heartbeat IPC: 2.40296 cumulative IPC: 2.4028 (Simulation time: 0 hr 2 min 49 sec) 
Heartbeat CPU 0 instructions: 6000003 cycles: 2496990 heartbeat IPC: 2.40307 cumulative IPC: 2.40289 (Simulation time: 0 hr 4 min 12 sec) 
Heartbeat CPU 0 instructions: 8000001 cycles: 3154941 heartbeat IPC: 3.03974 cumulative IPC: 2.53571 (Simulation time: 0 hr 5 min 15 sec) 
Heartbeat CPU 0 instructions: 10000003 cycles: 3738118 heartbeat IPC: 3.42949 cumulative IPC: 2.67514 (Simulation time: 0 hr 6 min 11 sec) 
Heartbeat CPU 0 instructions: 12000004 cycles: 4321299 heartbeat IPC: 3.42947 cumulative IPC: 2.77694 (Simulation time: 0 hr 7 min 5 sec) 
Heartbeat CPU 0 instructions: 14000000 cycles: 4904482 heartbeat IPC: 3.42945 cumulative IPC: 2.85453 (Simulation time: 0 hr 8 min 1 sec) 
Heartbeat CPU 0 instructions: 16000000 cycles: 5487660 heartbeat IPC: 3.42948 cumulative IPC: 2.91563 (Simulation time: 0 hr 8 min 55 sec) 
Heartbeat CPU 0 instructions: 18000000 cycles: 6070847 heartbeat IPC: 3.42943 cumulative IPC: 2.96499 (Simulation time: 0 hr 9 min 49 sec) 
Heartbeat CPU 0 instructions: 20000002 cycles: 6654025 heartbeat IPC: 3.42949 cumulative IPC: 3.0057 (Simulation time: 0 hr 10 min 46 sec) 
Heartbeat CPU 0 instructions: 22000000 cycles: 7237207 heartbeat IPC: 3.42946 cumulative IPC: 3.03985 (Simulation time: 0 hr 11 min 41 sec) 
Heartbeat CPU 0 instructions: 24000001 cycles: 7742141 heartbeat IPC: 3.96092 cumulative IPC: 3.09992 (Simulation time: 0 hr 12 min 26 sec) 
Heartbeat CPU 0 instructions: 26000001 cycles: 8242141 heartbeat IPC: 4 cumulative IPC: 3.15452 (Simulation time: 0 hr 13 min 10 sec) 
Heartbeat CPU 0 instructions: 28000001 cycles: 8742141 heartbeat IPC: 4 cumulative IPC: 3.20288 (Simulation time: 0 hr 13 min 54 sec) 
Heartbeat CPU 0 instructions: 30000001 cycles: 9242141 heartbeat IPC: 4 cumulative IPC: 3.246 (Simulation time: 0 hr 14 min 37 sec) 
Heartbeat CPU 0 instructions: 32000001 cycles: 9742141 heartbeat IPC: 4 cumulative IPC: 3.2847 (Simulation time: 0 hr 15 min 19 sec) 
Heartbeat CPU 0 instructions: 34000001 cycles: 10242141 heartbeat IPC: 4 cumulative IPC: 3.31962 (Simulation time: 0 hr 16 min 3 sec) 
Heartbeat CPU 0 instructions: 36000001 cycles: 10742141 heartbeat IPC: 4 cumulative IPC: 3.35129 (Simulation time: 0 hr 16 min 44 sec) 
Heartbeat CPU 0 instructions: 38000001 cycles: 11242141 heartbeat IPC: 4 cumulative IPC: 3.38014 (Simulation time: 0 hr 17 min 28 sec) 
Heartbeat CPU 0 instructions: 40000001 cycles: 11742141 heartbeat IPC: 4 cumulative IPC: 3.40653 (Simulation time: 0 hr 18 min 11 sec) 
Heartbeat CPU 0 instructions: 42000001 cycles: 12242141 heartbeat IPC: 4 cumulative IPC: 3.43077 (Simulation time: 0 hr 18 min 55 sec) 
Heartbeat CPU 0 instructions: 44000001 cycles: 12742141 heartbeat IPC: 4 cumulative IPC: 3.45311 (Simulation time: 0 hr 19 min 38 sec) 
Heartbeat CPU 0 instructions: 46000001 cycles: 13242141 heartbeat IPC: 4 cumulative IPC: 3.47376 (Simulation time: 0 hr 20 min 23 sec) 
Heartbeat CPU 0 instructions: 48000002 cycles: 13745252 heartbeat IPC: 3.97527 cumulative IPC: 3.49212 (Simulation time: 0 hr 21 min 8 sec) 
Heartbeat CPU 0 instructions: 50000003 cycles: 14321269 heartbeat IPC: 3.47212 cumulative IPC: 3.49131 (Simulation time: 0 hr 22 min 6 sec) 

Warmup complete CPU 0 instructions: 50000003 cycles: 14321269 (Simulation time: 0 hr 22 min 6 sec) 

Heartbeat CPU 0 instructions: 52000001 cycles: 16204330 heartbeat IPC: 1.0621 cumulative IPC: 1.0621 (Simulation time: 0 hr 24 min 15 sec) 

Region of Interest Statistics
cpu0_DTLB TOTAL     ACCESS:     413138  HIT:     412935  MISS:        203
cpu0_DTLB LOAD      ACCESS:     384043  HIT:     383840  MISS:        203
cpu0_DTLB RFO       ACCESS:      29095  HIT:      29095  MISS:          0
cpu0_DTLB PREFETCH  ACCESS:          0  HIT:          0  MISS:          0
cpu0_DTLB WRITEBACK ACCESS:          0  HIT:          0  MISS:          0
cpu0_ITLB TOTAL     ACCESS:      16125  HIT:      16125  MISS:          0
cpu0_ITLB LOAD      ACCESS:      16125  HIT:      16125  MISS:          0
cpu0_ITLB RFO       ACCESS:          0  HIT:          0  MISS:          0
cpu0_ITLB PREFETCH  ACCESS:          0  HIT:          0  MISS:          0
cpu0_ITLB WRITEBACK ACCESS:          0  HIT:          0  MISS:          0
cpu0_L1I TOTAL     ACCESS:        285  HIT:        285  MISS:          0
cpu0_L1I LOAD      ACCESS:        285  HIT:        285  MISS:          0
cpu0_L1I RFO       ACCESS:          0  HIT:          0  MISS:          0
cpu0_L1I PREFETCH  ACCESS:          0  HIT:          0  MISS:          0
cpu0_L1I WRITEBACK ACCESS:          0  HIT:          0  MISS:          0
cpu0_STLB TOTAL     ACCESS:        203  HIT:          0  MISS:        203
cpu0_STLB LOAD      ACCESS:        203  HIT:          0  MISS:        203
cpu0_STLB RFO       ACCESS:          0  HIT:          0  MISS:          0
cpu0_STLB PREFETCH  ACCESS:          0  HIT:          0  MISS:          0
cpu0_STLB WRITEBACK ACCESS:          0  HIT:          0  MISS:          0
cpu0_L1D TOTAL     ACCESS:     392639  HIT:     380046  MISS:      12593
cpu0_L1D LOAD      ACCESS:     296327  HIT:     283737  MISS:      12590
cpu0_L1D RFO       ACCESS:      96109  HIT:      96109  MISS:          0
cpu0_L1D PREFETCH  ACCESS:          0  HIT:          0  MISS:          0
cpu0_L1D WRITEBACK ACCESS:          0  HIT:          0  MISS:          0
cpu0_L2C TOTAL     ACCESS:      18771  HIT:       6181  MISS:      12590
cpu0_L2C LOAD      ACCESS:      12590  HIT:          0  MISS:      12590
cpu0_L2C RFO       ACCESS:          0  HIT:          0  MISS:          0
cpu0_L2C PREFETCH  ACCESS:          0  HIT:          0  MISS:          0
cpu0_L2C WRITEBACK ACCESS:       6178  HIT:       6178  MISS:          0
LLC TOTAL     ACCESS:      19058  HIT:          0  MISS:      19058
LLC LOAD      ACCESS:      12590  HIT:          0  MISS:      12590
LLC RFO       ACCESS:          0  HIT:          0  MISS:          0
LLC PREFETCH  ACCESS:          0  HIT:          0  MISS:          0
LLC WRITEBACK ACCESS:       6468  HIT:          0  MISS:       6468
Heartbeat CPU 0 instructions: 54000002 cycles: 18077584 heartbeat IPC: 1.06766 cumulative IPC: 1.06487 (Simulation time: 0 hr 26 min 15 sec) 

Region of Interest Statistics
cpu0_DTLB TOTAL     ACCESS:     826235  HIT:     825828  MISS:        407
cpu0_DTLB LOAD      ACCESS:     768154  HIT:     767747  MISS:        407
cpu0_DTLB RFO       ACCESS:      58081  HIT:      58081  MISS:          0
cpu0_DTLB PREFETCH  ACCESS:          0  HIT:          0  MISS:          0
cpu0_DTLB WRITEBACK ACCESS:          0  HIT:          0  MISS:          0
cpu0_ITLB TOTAL     ACCESS:      32054  HIT:      32054  MISS:          0
cpu0_ITLB LOAD      ACCESS:      32054  HIT:      32054  MISS:          0
cpu0_ITLB RFO       ACCESS:          0  HIT:          0  MISS:          0
cpu0_ITLB PREFETCH  ACCESS:          0  HIT:          0  MISS:          0
cpu0_ITLB WRITEBACK ACCESS:          0  HIT:          0  MISS:          0
cpu0_L1I TOTAL     ACCESS:        565  HIT:        565  MISS:          0
cpu0_L1I LOAD      ACCESS:        565  HIT:        565  MISS:          0
cpu0_L1I RFO       ACCESS:          0  HIT:          0  MISS:          0
cpu0_L1I PREFETCH  ACCESS:          0  HIT:          0  MISS:          0
cpu0_L1I WRITEBACK ACCESS:          0  HIT:          0  MISS:          0
cpu0_STLB TOTAL     ACCESS:        407  HIT:          1  MISS:        406
cpu0_STLB LOAD      ACCESS:        407  HIT:          1  MISS:        406
cpu0_STLB RFO       ACCESS:          0  HIT:          0  MISS:          0
cpu0_STLB PREFETCH  ACCESS:          0  HIT:          0  MISS:          0
cpu0_STLB WRITEBACK ACCESS:          0  HIT:          0  MISS:          0
cpu0_L1D TOTAL     ACCESS:     784917  HIT:     759730  MISS:      25187
cpu0_L1D LOAD      ACCESS:     592304  HIT:     567124  MISS:      25180
cpu0_L1D RFO       ACCESS:     192207  HIT:     192207  MISS:          0
cpu0_L1D PREFETCH  ACCESS:          0  HIT:          0  MISS:          0
cpu0_L1D WRITEBACK ACCESS:          0  HIT:          0  MISS:          0
cpu0_L2C TOTAL     ACCESS:      37551  HIT:      12371  MISS:      25180
cpu0_L2C LOAD      ACCESS:      25180  HIT:          0  MISS:      25180
cpu0_L2C RFO       ACCESS:          0  HIT:          0  MISS:          0
cpu0_L2C PREFETCH  ACCESS:          0  HIT:          0  MISS:          0
cpu0_L2C WRITEBACK ACCESS:      12364  HIT:      12364  MISS:          0
LLC TOTAL     ACCESS:      37718  HIT:          0  MISS:      37718
LLC LOAD      ACCESS:      25180  HIT:          0  MISS:      25180
LLC RFO       ACCESS:          0  HIT:          0  MISS:          0
LLC PREFETCH  ACCESS:          0  HIT:          0  MISS:          0
LLC WRITEBACK ACCESS:      12538  HIT:          0  MISS:      12538
Heartbeat CPU 0 instructions: 56000002 cycles: 19945330 heartbeat IPC: 1.07081 cumulative IPC: 1.06684 (Simulation time: 0 hr 28 min 20 sec) 

Region of Interest Statistics
cpu0_DTLB TOTAL     ACCESS:    1240005  HIT:    1239396  MISS:        609
cpu0_DTLB LOAD      ACCESS:    1152670  HIT:    1152061  MISS:        609
cpu0_DTLB RFO       ACCESS:      87335  HIT:      87335  MISS:          0
cpu0_DTLB PREFETCH  ACCESS:          0  HIT:          0  MISS:          0
cpu0_DTLB WRITEBACK ACCESS:          0  HIT:          0  MISS:          0
cpu0_ITLB TOTAL     ACCESS:      48257  HIT:      48257  MISS:          0
cpu0_ITLB LOAD      ACCESS:      48257  HIT:      48257  MISS:          0
cpu0_ITLB RFO       ACCESS:          0  HIT:          0  MISS:          0
cpu0_ITLB PREFETCH  ACCESS:          0  HIT:          0  MISS:          0
cpu0_ITLB WRITEBACK ACCESS:          0  HIT:          0  MISS:          0
cpu0_L1I TOTAL     ACCESS:        840  HIT:        840  MISS:          0
cpu0_L1I LOAD      ACCESS:        840  HIT:        840  MISS:          0
cpu0_L1I RFO       ACCESS:          0  HIT:          0  MISS:          0
cpu0_L1I PREFETCH  ACCESS:          0  HIT:          0  MISS:          0
cpu0_L1I WRITEBACK ACCESS:          0  HIT:          0  MISS:          0
cpu0_STLB TOTAL     ACCESS:        609  HIT:          1  MISS:        608
cpu0_STLB LOAD      ACCESS:        609  HIT:          1  MISS:        608
cpu0_STLB RFO       ACCESS:          0  HIT:          0  MISS:          0
cpu0_STLB PREFETCH  ACCESS:          0  HIT:          0  MISS:          0
cpu0_STLB WRITEBACK ACCESS:          0  HIT:          0  MISS:          0
cpu0_L1D TOTAL     ACCESS:    1178214  HIT:    1140440  MISS:      37774
cpu0_L1D LOAD      ACCESS:     889299  HIT:     851535  MISS:      37764
cpu0_L1D RFO       ACCESS:     288307  HIT:     288307  MISS:          0
cpu0_L1D PREFETCH  ACCESS:          0  HIT:          0  MISS:          0
cpu0_L1D WRITEBACK ACCESS:          0  HIT:          0  MISS:          0
cpu0_L2C TOTAL     ACCESS:      56310  HIT:      18546  MISS:      37764
cpu0_L2C LOAD      ACCESS:      37764  HIT:          0  MISS:      37764
cpu0_L2C RFO       ACCESS:          0  HIT:          0  MISS:          0
cpu0_L2C PREFETCH  ACCESS:          0  HIT:          0  MISS:          0
cpu0_L2C WRITEBACK ACCESS:      18536  HIT:      18536  MISS:          0
LLC TOTAL     ACCESS:      56361  HIT:          0  MISS:      56361
LLC LOAD      ACCESS:      37764  HIT:          0  MISS:      37764
LLC RFO       ACCESS:          0  HIT:          0  MISS:          0
LLC PREFETCH  ACCESS:          0  HIT:          0  MISS:          0
LLC WRITEBACK ACCESS:      18597  HIT:          0  MISS:      18597
Heartbeat CPU 0 instructions: 58000002 cycles: 21826662 heartbeat IPC: 1.06308 cumulative IPC: 1.0659 (Simulation time: 0 hr 30 min 18 sec) 

Region of Interest Statistics
cpu0_DTLB TOTAL     ACCESS:    1653563  HIT:    1652747  MISS:        816
cpu0_DTLB LOAD      ACCESS:    1536907  HIT:    1536091  MISS:        816
cpu0_DTLB RFO       ACCESS:     116656  HIT:     116656  MISS:          0
cpu0_DTLB PREFETCH  ACCESS:          0  HIT:          0  MISS:          0
cpu0_DTLB WRITEBACK ACCESS:          0  HIT:          0  MISS:          0
cpu0_ITLB TOTAL     ACCESS:      64792  HIT:      64792  MISS:          0
cpu0_ITLB LOAD      ACCESS:      64792  HIT:      64792  MISS:          0
cpu0_ITLB RFO       ACCESS:          0  HIT:          0  MISS:          0
cpu0_ITLB PREFETCH  ACCESS:          0  HIT:          0  MISS:          0
cpu0_ITLB WRITEBACK ACCESS:          0  HIT:          0  MISS:          0
cpu0_L1I TOTAL     ACCESS:       1126  HIT:       1112  MISS:         14
cpu0_L1I LOAD      ACCESS:       1126  HIT:       1112  MISS:         14
cpu0_L1I RFO       ACCESS:          0  HIT:          0  MISS:          0
cpu0_L1I PREFETCH  ACCESS:          0  HIT:          0  MISS:          0
cpu0_L1I WRITEBACK ACCESS:          0  HIT:          0  MISS:          0
cpu0_STLB TOTAL     ACCESS:        816  HIT:          1  MISS:        815
cpu0_STLB LOAD      ACCESS:        816  HIT:          1  MISS:        815
cpu0_STLB RFO       ACCESS:          0  HIT:          0  MISS:          0
cpu0_STLB PREFETCH  ACCESS:          0  HIT:          0  MISS:          0
cpu0_STLB WRITEBACK ACCESS:          0  HIT:          0  MISS:          0
cpu0_L1D TOTAL     ACCESS:    1571508  HIT:    1521094  MISS:      50414
cpu0_L1D LOAD      ACCESS:    1186273  HIT:    1135874  MISS:      50399
cpu0_L1D RFO       ACCESS:     384420  HIT:     384419  MISS:          1
cpu0_L1D PREFETCH  ACCESS:          0  HIT:          0  MISS:          0
cpu0_L1D WRITEBACK ACCESS:          0  HIT:          0  MISS:          0
cpu0_L2C TOTAL     ACCESS:      75174  HIT:      24757  MISS:      50417
cpu0_L2C LOAD      ACCESS:      50413  HIT:          0  MISS:      50413
cpu0_L2C RFO       ACCESS:          1  HIT:          0  MISS:          1
cpu0_L2C PREFETCH  ACCESS:          0  HIT:          0  MISS:          0
cpu0_L2C WRITEBACK ACCESS:      24746  HIT:      24743  MISS:          3
LLC TOTAL     ACCESS:      75354  HIT:          0  MISS:      75354
LLC LOAD      ACCESS:      50413  HIT:          0  MISS:      50413
LLC RFO       ACCESS:          1  HIT:          0  MISS:          1
LLC PREFETCH  ACCESS:          0  HIT:          0  MISS:          0
LLC WRITEBACK ACCESS:      24940  HIT:          0  MISS:      24940
Heartbeat CPU 0 instructions: 60000004 cycles: 23696572 heartbeat IPC: 1.06957 cumulative IPC: 1.06663 (Simulation time: 0 hr 32 min 27 sec) 

Region of Interest Statistics
cpu0_DTLB TOTAL     ACCESS:    2066870  HIT:    2065850  MISS:       1020
cpu0_DTLB LOAD      ACCESS:    1920891  HIT:    1919871  MISS:       1020
cpu0_DTLB RFO       ACCESS:     145979  HIT:     145979  MISS:          0
cpu0_DTLB PREFETCH  ACCESS:          0  HIT:          0  MISS:          0
cpu0_DTLB WRITEBACK ACCESS:          0  HIT:          0  MISS:          0
cpu0_ITLB TOTAL     ACCESS:      82383  HIT:      82383  MISS:          0
cpu0_ITLB LOAD      ACCESS:      82383  HIT:      82383  MISS:          0
cpu0_ITLB RFO       ACCESS:          0  HIT:          0  MISS:          0
cpu0_ITLB PREFETCH  ACCESS:          0  HIT:          0  MISS:          0
cpu0_ITLB WRITEBACK ACCESS:          0  HIT:          0  MISS:          0
cpu0_L1I TOTAL     ACCESS:       1373  HIT:       1359  MISS:         14
cpu0_L1I LOAD      ACCESS:       1373  HIT:       1359  MISS:         14
cpu0_L1I RFO       ACCESS:          0  HIT:          0  MISS:          0
cpu0_L1I PREFETCH  ACCESS:          0  HIT:          0  MISS:          0
cpu0_L1I WRITEBACK ACCESS:          0  HIT:          0  MISS:          0
cpu0_STLB TOTAL     ACCESS:       1020  HIT:          1  MISS:       1019
cpu0_STLB LOAD      ACCESS:       1020  HIT:          1  MISS:       1019
cpu0_STLB RFO       ACCESS:          0  HIT:          0  MISS:          0
cpu0_STLB PREFETCH  ACCESS:          0  HIT:          0  MISS:          0
cpu0_STLB WRITEBACK ACCESS:          0  HIT:          0  MISS:          0
cpu0_L1D TOTAL     ACCESS:    1964284  HIT:    1901184  MISS:      63100
cpu0_L1D LOAD      ACCESS:    1482738  HIT:    1419656  MISS:      63082
cpu0_L1D RFO       ACCESS:     480527  HIT:     480526  MISS:          1
cpu0_L1D PREFETCH  ACCESS:          0  HIT:          0  MISS:          0
cpu0_L1D WRITEBACK ACCESS:          0  HIT:          0  MISS:          0
cpu0_L2C TOTAL     ACCESS:      94086  HIT:      30986  MISS:      63100
cpu0_L2C LOAD      ACCESS:      63096  HIT:          0  MISS:      63096
cpu0_L2C RFO       ACCESS:          1  HIT:          0  MISS:          1
cpu0_L2C PREFETCH  ACCESS:          0  HIT:          0  MISS:          0
cpu0_L2C WRITEBACK ACCESS:      30972  HIT:      30969  MISS:          3
LLC TOTAL     ACCESS:      94065  HIT:          0  MISS:      94065
LLC LOAD      ACCESS:      63096  HIT:          0  MISS:      63096
LLC RFO       ACCESS:          1  HIT:          0  MISS:          1
LLC PREFETCH  ACCESS:          0  HIT:          0  MISS:          0
LLC WRITEBACK ACCESS:      30968  HIT:          0  MISS:      30968
Heartbeat CPU 0 instructions: 62000000 cycles: 25590039 heartbeat IPC: 1.05626 cumulative IPC: 1.06489 (Simulation time: 0 hr 34 min 20 sec) 

Region of Interest Statistics
cpu0_DTLB TOTAL     ACCESS:    2480119  HIT:    2478891  MISS:       1228
cpu0_DTLB LOAD      ACCESS:    2304700  HIT:    2303472  MISS:       1228
cpu0_DTLB RFO       ACCESS:     175419  HIT:     175419  MISS:          0
cpu0_DTLB PREFETCH  ACCESS:          0  HIT:          0  MISS:          0
cpu0_DTLB WRITEBACK ACCESS:          0  HIT:          0  MISS:          0
cpu0_ITLB TOTAL     ACCESS:      99969  HIT:      99969  MISS:          0
cpu0_ITLB LOAD      ACCESS:      99969  HIT:      99969  MISS:          0
cpu0_ITLB RFO       ACCESS:          0  HIT:          0  MISS:          0
cpu0_ITLB PREFETCH  ACCESS:          0  HIT:          0  MISS:          0
cpu0_ITLB WRITEBACK ACCESS:          0  HIT:          0  MISS:          0
cpu0_L1I TOTAL     ACCESS:       1610  HIT:       1596  MISS:         14
cpu0_L1I LOAD      ACCESS:       1610  HIT:       1596  MISS:         14
cpu0_L1I RFO       ACCESS:          0  HIT:          0  MISS:          0
cpu0_L1I PREFETCH  ACCESS:          0  HIT:          0  MISS:          0
cpu0_L1I WRITEBACK ACCESS:          0  HIT:          0  MISS:          0
cpu0_STLB TOTAL     ACCESS:       1228  HIT:          3  MISS:       1225
cpu0_STLB LOAD      ACCESS:       1228  HIT:          3  MISS:       1225
cpu0_STLB RFO       ACCESS:          0  HIT:          0  MISS:          0
cpu0_STLB PREFETCH  ACCESS:          0  HIT:          0  MISS:          0
cpu0_STLB WRITEBACK ACCESS:          0  HIT:          0  MISS:          0
cpu0_L1D TOTAL     ACCESS:    2357310  HIT:    2281530  MISS:      75780
cpu0_L1D LOAD      ACCESS:    1779461  HIT:    1703703  MISS:      75758
cpu0_L1D RFO       ACCESS:     576624  HIT:     576623  MISS:          1
cpu0_L1D PREFETCH  ACCESS:          0  HIT:          0  MISS:          0
cpu0_L1D WRITEBACK ACCESS:          0  HIT:          0  MISS:          0
cpu0_L2C TOTAL     ACCESS:     112991  HIT:      37215  MISS:      75776
cpu0_L2C LOAD      ACCESS:      75772  HIT:          0  MISS:      75772
cpu0_L2C RFO       ACCESS:          1  HIT:          0  MISS:          1
cpu0_L2C PREFETCH  ACCESS:          0  HIT:          0  MISS:          0
cpu0_L2C WRITEBACK ACCESS:      37197  HIT:      37194  MISS:          3
LLC TOTAL     ACCESS:     113133  HIT:          0  MISS:     113133
LLC LOAD      ACCESS:      75772  HIT:          0  MISS:      75772
LLC RFO       ACCESS:          1  HIT:          0  MISS:          1
LLC PREFETCH  ACCESS:          0  HIT:          0  MISS:          0
LLC WRITEBACK ACCESS:      37360  HIT:          0  MISS:      37360
Heartbeat CPU 0 instructions: 64000002 cycles: 27442938 heartbeat IPC: 1.07939 cumulative IPC: 1.06694 (Simulation time: 0 hr 35 min 55 sec) 

Region of Interest Statistics
cpu0_DTLB TOTAL     ACCESS:    2893214  HIT:    2891781  MISS:       1433
cpu0_DTLB LOAD      ACCESS:    2688549  HIT:    2687116  MISS:       1433
cpu0_DTLB RFO       ACCESS:     204665  HIT:     204665  MISS:          0
cpu0_DTLB PREFETCH  ACCESS:          0  HIT:          0  MISS:          0
cpu0_DTLB WRITEBACK ACCESS:          0  HIT:          0  MISS:          0
cpu0_ITLB TOTAL     ACCESS:     117416  HIT:     117416  MISS:          0
cpu0_ITLB LOAD      ACCESS:     117416  HIT:     117416  MISS:          0
cpu0_ITLB RFO       ACCESS:          0  HIT:          0  MISS:          0
cpu0_ITLB PREFETCH  ACCESS:          0  HIT:          0  MISS:          0
cpu0_ITLB WRITEBACK ACCESS:          0  HIT:          0  MISS:          0
cpu0_L1I TOTAL     ACCESS:       1854  HIT:       1840  MISS:         14
cpu0_L1I LOAD      ACCESS:       1854  HIT:       1840  MISS:         14
cpu0_L1I RFO       ACCESS:          0  HIT:          0  MISS:          0
cpu0_L1I PREFETCH  ACCESS:          0  HIT:          0  MISS:          0
cpu0_L1I WRITEBACK ACCESS:          0  HIT:          0  MISS:          0
cpu0_STLB TOTAL     ACCESS:       1433  HIT:          3  MISS:       1430
cpu0_STLB LOAD      ACCESS:       1433  HIT:          3  MISS:       1430
cpu0_STLB RFO       ACCESS:          0  HIT:          0  MISS:          0
cpu0_STLB PREFETCH  ACCESS:          0  HIT:          0  MISS:          0
cpu0_STLB WRITEBACK ACCESS:          0  HIT:          0  MISS:          0
cpu0_L1D TOTAL     ACCESS:    2749620  HIT:    2661149  MISS:      88471
cpu0_L1D LOAD      ACCESS:    2075458  HIT:    1987013  MISS:      88445
cpu0_L1D RFO       ACCESS:     672732  HIT:     672731  MISS:          1
cpu0_L1D PREFETCH  ACCESS:          0  HIT:          0  MISS:          0
cpu0_L1D WRITEBACK ACCESS:          0  HIT:          0  MISS:          0
cpu0_L2C TOTAL     ACCESS:     131907  HIT:      43444  MISS:      88463
cpu0_L2C LOAD      ACCESS:      88459  HIT:          0  MISS:      88459
cpu0_L2C RFO       ACCESS:          1  HIT:          0  MISS:          1
cpu0_L2C PREFETCH  ACCESS:          0  HIT:          0  MISS:          0
cpu0_L2C WRITEBACK ACCESS:      43422  HIT:      43419  MISS:          3
LLC TOTAL     ACCESS:     131726  HIT:          0  MISS:     131726
LLC LOAD      ACCESS:      88459  HIT:          0  MISS:      88459
LLC RFO       ACCESS:          1  HIT:          0  MISS:          1
LLC PREFETCH  ACCESS:          0  HIT:          0  MISS:          0
LLC WRITEBACK ACCESS:      43266  HIT:          0  MISS:      43266
Heartbeat CPU 0 instructions: 66000004 cycles: 29328324 heartbeat IPC: 1.06079 cumulative IPC: 1.06617 (Simulation time: 0 hr 37 min 43 sec) 

Region of Interest Statistics
cpu0_DTLB TOTAL     ACCESS:    3306593  HIT:    3304956  MISS:       1637
cpu0_DTLB LOAD      ACCESS:    3072437  HIT:    3070800  MISS:       1637
cpu0_DTLB RFO       ACCESS:     234156  HIT:     234156  MISS:          0
cpu0_DTLB PREFETCH  ACCESS:          0  HIT:          0  MISS:          0
cpu0_DTLB WRITEBACK ACCESS:          0  HIT:          0  MISS:          0
cpu0_ITLB TOTAL     ACCESS:     135107  HIT:     135107  MISS:          0
cpu0_ITLB LOAD      ACCESS:     135107  HIT:     135107  MISS:          0
cpu0_ITLB RFO       ACCESS:          0  HIT:          0  MISS:          0
cpu0_ITLB PREFETCH  ACCESS:          0  HIT:          0  MISS:          0
cpu0_ITLB WRITEBACK ACCESS:          0  HIT:          0  MISS:          0
cpu0_L1I TOTAL     ACCESS:       2098  HIT:       2084  MISS:         14
cpu0_L1I LOAD      ACCESS:       2098  HIT:       2084  MISS:         14
cpu0_L1I RFO       ACCESS:          0  HIT:          0  MISS:          0
cpu0_L1I PREFETCH  ACCESS:          0  HIT:          0  MISS:          0
cpu0_L1I WRITEBACK ACCESS:          0  HIT:          0  MISS:          0
cpu0_STLB TOTAL     ACCESS:       1637  HIT:          3  MISS:       1634
cpu0_STLB LOAD      ACCESS:       1637  HIT:          3  MISS:       1634
cpu0_STLB RFO       ACCESS:          0  HIT:          0  MISS:          0
cpu0_STLB PREFETCH  ACCESS:          0  HIT:          0  MISS:          0
cpu0_STLB WRITEBACK ACCESS:          0  HIT:          0  MISS:          0
cpu0_L1D TOTAL     ACCESS:    3142986  HIT:    3041826  MISS:     101160
cpu0_L1D LOAD      ACCESS:    2372513  HIT:    2271382  MISS:     101131
cpu0_L1D RFO       ACCESS:     768839  HIT:     768838  MISS:          1
cpu0_L1D PREFETCH  ACCESS:          0  HIT:          0  MISS:          0
cpu0_L1D WRITEBACK ACCESS:          0  HIT:          0  MISS:          0
cpu0_L2C TOTAL     ACCESS:     150826  HIT:      49677  MISS:     101149
cpu0_L2C LOAD      ACCESS:     101145  HIT:          0  MISS:     101145
cpu0_L2C RFO       ACCESS:          1  HIT:          0  MISS:          1
cpu0_L2C PREFETCH  ACCESS:          0  HIT:          0  MISS:          0
cpu0_L2C WRITEBACK ACCESS:      49652  HIT:      49649  MISS:          3
LLC TOTAL     ACCESS:     150747  HIT:          0  MISS:     150747
LLC LOAD      ACCESS:     101145  HIT:          0  MISS:     101145
LLC RFO       ACCESS:          1  HIT:          0  MISS:          1
LLC PREFETCH  ACCESS:          0  HIT:          0  MISS:          0
LLC WRITEBACK ACCESS:      49601  HIT:          0  MISS:      49601
Heartbeat CPU 0 instructions: 68000002 cycles: 31170224 heartbeat IPC: 1.08583 cumulative IPC: 1.06832 (Simulation time: 0 hr 40 min 0 sec) 

Region of Interest Statistics
cpu0_DTLB TOTAL     ACCESS:    3805657  HIT:    3803748  MISS:       1909
cpu0_DTLB LOAD      ACCESS:    3504598  HIT:    3502689  MISS:       1909
cpu0_DTLB RFO       ACCESS:     301059  HIT:     301059  MISS:          0
cpu0_DTLB PREFETCH  ACCESS:          0  HIT:          0  MISS:          0
cpu0_DTLB WRITEBACK ACCESS:          0  HIT:          0  MISS:          0
cpu0_ITLB TOTAL     ACCESS:     149433  HIT:     149433  MISS:          0
cpu0_ITLB LOAD      ACCESS:     149433  HIT:     149433  MISS:          0
cpu0_ITLB RFO       ACCESS:          0  HIT:          0  MISS:          0
cpu0_ITLB PREFETCH  ACCESS:          0  HIT:          0  MISS:          0
cpu0_ITLB WRITEBACK ACCESS:          0  HIT:          0  MISS:          0
cpu0_L1I TOTAL     ACCESS:       2539  HIT:       2505  MISS:         34
cpu0_L1I LOAD      ACCESS:       2539  HIT:       2505  MISS:         34
cpu0_L1I RFO       ACCESS:          0  HIT:          0  MISS:          0
cpu0_L1I PREFETCH  ACCESS:          0  HIT:          0  MISS:          0
cpu0_L1I WRITEBACK ACCESS:          0  HIT:          0  MISS:          0
cpu0_STLB TOTAL     ACCESS:       1909  HIT:          5  MISS:       1904
cpu0_STLB LOAD      ACCESS:       1909  HIT:          5  MISS:       1904
cpu0_STLB RFO       ACCESS:          0  HIT:          0  MISS:          0
cpu0_STLB PREFETCH  ACCESS:          0  HIT:          0  MISS:          0
cpu0_STLB WRITEBACK ACCESS:          0  HIT:          0  MISS:          0
cpu0_L1D TOTAL     ACCESS:    3675066  HIT:    3557046  MISS:     118020
cpu0_L1D LOAD      ACCESS:    2775130  HIT:    2657146  MISS:     117984
cpu0_L1D RFO       ACCESS:     898032  HIT:     898029  MISS:          3
cpu0_L1D PREFETCH  ACCESS:          0  HIT:          0  MISS:          0
cpu0_L1D WRITEBACK ACCESS:          0  HIT:          0  MISS:          0
cpu0_L2C TOTAL     ACCESS:     176016  HIT:      58067  MISS:     117949
cpu0_L2C LOAD      ACCESS:     118018  HIT:         81  MISS:     117937
cpu0_L2C RFO       ACCESS:          3  HIT:          0  MISS:          3
cpu0_L2C PREFETCH  ACCESS:          0  HIT:          0  MISS:          0
cpu0_L2C WRITEBACK ACCESS:      57962  HIT:      57955  MISS:          7
LLC TOTAL     ACCESS:     175746  HIT:          0  MISS:     175746
LLC LOAD      ACCESS:     117937  HIT:          0  MISS:     117937
LLC RFO       ACCESS:          3  HIT:          0  MISS:          3
LLC PREFETCH  ACCESS:          0  HIT:          0  MISS:          0
LLC WRITEBACK ACCESS:      57804  HIT:          0  MISS:      57804
Heartbeat CPU 0 instructions: 70000001 cycles: 32989419 heartbeat IPC: 1.09939 cumulative IPC: 1.07134 (Simulation time: 0 hr 42 min 19 sec) 

Region of Interest Statistics
cpu0_DTLB TOTAL     ACCESS:    4346825  HIT:    4344619  MISS:       2206
cpu0_DTLB LOAD      ACCESS:    3960468  HIT:    3958262  MISS:       2206
cpu0_DTLB RFO       ACCESS:     386357  HIT:     386357  MISS:          0
cpu0_DTLB PREFETCH  ACCESS:          0  HIT:          0  MISS:          0
cpu0_DTLB WRITEBACK ACCESS:          0  HIT:          0  MISS:          0
cpu0_ITLB TOTAL     ACCESS:     162014  HIT:     162014  MISS:          0
cpu0_ITLB LOAD      ACCESS:     162014  HIT:     162014  MISS:          0
cpu0_ITLB RFO       ACCESS:          0  HIT:          0  MISS:          0
cpu0_ITLB PREFETCH  ACCESS:          0  HIT:          0  MISS:          0
cpu0_ITLB WRITEBACK ACCESS:          0  HIT:          0  MISS:          0
cpu0_L1I TOTAL     ACCESS:       3114  HIT:       3080  MISS:         34
cpu0_L1I LOAD      ACCESS:       3114  HIT:       3080  MISS:         34
cpu0_L1I RFO       ACCESS:          0  HIT:          0  MISS:          0
cpu0_L1I PREFETCH  ACCESS:          0  HIT:          0  MISS:          0
cpu0_L1I WRITEBACK ACCESS:          0  HIT:          0  MISS:          0
cpu0_STLB TOTAL     ACCESS:       2206  HIT:          7  MISS:       2199
cpu0_STLB LOAD      ACCESS:       2206  HIT:          7  MISS:       2199
cpu0_STLB RFO       ACCESS:          0  HIT:          0  MISS:          0
cpu0_STLB PREFETCH  ACCESS:          0  HIT:          0  MISS:          0
cpu0_STLB WRITEBACK ACCESS:          0  HIT:          0  MISS:          0
cpu0_L1D TOTAL     ACCESS:    4275691  HIT:    4138726  MISS:     136965
cpu0_L1D LOAD      ACCESS:    3229806  HIT:    3092880  MISS:     136926
cpu0_L1D RFO       ACCESS:    1043686  HIT:    1043683  MISS:          3
cpu0_L1D PREFETCH  ACCESS:          0  HIT:          0  MISS:          0
cpu0_L1D WRITEBACK ACCESS:          0  HIT:          0  MISS:          0
cpu0_L2C TOTAL     ACCESS:     204326  HIT:      67573  MISS:     136753
cpu0_L2C LOAD      ACCESS:     136960  HIT:        221  MISS:     136739
cpu0_L2C RFO       ACCESS:          3  HIT:          0  MISS:          3
cpu0_L2C PREFETCH  ACCESS:          0  HIT:          0  MISS:          0
cpu0_L2C WRITEBACK ACCESS:      67327  HIT:      67320  MISS:          7
LLC TOTAL     ACCESS:     203994  HIT:          0  MISS:     203994
LLC LOAD      ACCESS:     136739  HIT:          0  MISS:     136739
LLC RFO       ACCESS:          3  HIT:          0  MISS:          3
LLC PREFETCH  ACCESS:          0  HIT:          0  MISS:          0
LLC WRITEBACK ACCESS:      67248  HIT:          0  MISS:      67248
Heartbeat CPU 0 instructions: 72000002 cycles: 34800748 heartbeat IPC: 1.10416 cumulative IPC: 1.07425 (Simulation time: 0 hr 44 min 8 sec) 

Region of Interest Statistics
cpu0_DTLB TOTAL     ACCESS:    4887970  HIT:    4885470  MISS:       2500
cpu0_DTLB LOAD      ACCESS:    4416257  HIT:    4413757  MISS:       2500
cpu0_DTLB RFO       ACCESS:     471713  HIT:     471713  MISS:          0
cpu0_DTLB PREFETCH  ACCESS:          0  HIT:          0  MISS:          0
cpu0_DTLB WRITEBACK ACCESS:          0  HIT:          0  MISS:          0
cpu0_ITLB TOTAL     ACCESS:     174551  HIT:     174551  MISS:          0
cpu0_ITLB LOAD      ACCESS:     174551  HIT:     174551  MISS:          0
cpu0_ITLB RFO       ACCESS:          0  HIT:          0  MISS:          0
cpu0_ITLB PREFETCH  ACCESS:          0  HIT:          0  MISS:          0
cpu0_ITLB WRITEBACK ACCESS:          0  HIT:          0  MISS:          0
cpu0_L1I TOTAL     ACCESS:       3666  HIT:       3632  MISS:         34
cpu0_L1I LOAD      ACCESS:       3666  HIT:       3632  MISS:         34
cpu0_L1I RFO       ACCESS:          0  HIT:          0  MISS:          0
cpu0_L1I PREFETCH  ACCESS:          0  HIT:          0  MISS:          0
cpu0_L1I WRITEBACK ACCESS:          0  HIT:          0  MISS:          0
cpu0_STLB TOTAL     ACCESS:       2500  HIT:          9  MISS:       2491
cpu0_STLB LOAD      ACCESS:       2500  HIT:          9  MISS:       2491
cpu0_STLB RFO       ACCESS:          0  HIT:          0  MISS:          0
cpu0_STLB PREFETCH  ACCESS:          0  HIT:          0  MISS:          0
cpu0_STLB WRITEBACK ACCESS:          0  HIT:          0  MISS:          0
cpu0_L1D TOTAL     ACCESS:    4876659  HIT:    4720761  MISS:     155898
cpu0_L1D LOAD      ACCESS:    3684842  HIT:    3528985  MISS:     155857
cpu0_L1D RFO       ACCESS:    1189326  HIT:    1189323  MISS:          3
cpu0_L1D PREFETCH  ACCESS:          0  HIT:          0  MISS:          0
cpu0_L1D WRITEBACK ACCESS:          0  HIT:          0  MISS:          0
cpu0_L2C TOTAL     ACCESS:     232598  HIT:      77045  MISS:     155553
cpu0_L2C LOAD      ACCESS:     155891  HIT:        354  MISS:     155537
cpu0_L2C RFO       ACCESS:          3  HIT:          0  MISS:          3
cpu0_L2C PREFETCH  ACCESS:          0  HIT:          0  MISS:          0
cpu0_L2C WRITEBACK ACCESS:      76666  HIT:      76659  MISS:          7
LLC TOTAL     ACCESS:     232083  HIT:          0  MISS:     232083
LLC LOAD      ACCESS:     155537  HIT:          0  MISS:     155537
LLC RFO       ACCESS:          3  HIT:          0  MISS:          3
LLC PREFETCH  ACCESS:          0  HIT:          0  MISS:          0
LLC WRITEBACK ACCESS:      76537  HIT:          0  MISS:      76537
Heartbeat CPU 0 instructions: 74000004 cycles: 36614464 heartbeat IPC: 1.10271 cumulative IPC: 1.07656 (Simulation time: 0 hr 45 min 48 sec) 

Region of Interest Statistics
cpu0_DTLB TOTAL     ACCESS:    5429454  HIT:    5426658  MISS:       2796
cpu0_DTLB LOAD      ACCESS:    4872349  HIT:    4869553  MISS:       2796
cpu0_DTLB RFO       ACCESS:     557105  HIT:     557105  MISS:          0
cpu0_DTLB PREFETCH  ACCESS:          0  HIT:          0  MISS:          0
cpu0_DTLB WRITEBACK ACCESS:          0  HIT:          0  MISS:          0
cpu0_ITLB TOTAL     ACCESS:     187137  HIT:     187137  MISS:          0
cpu0_ITLB LOAD      ACCESS:     187137  HIT:     187137  MISS:          0
cpu0_ITLB RFO       ACCESS:          0  HIT:          0  MISS:          0
cpu0_ITLB PREFETCH  ACCESS:          0  HIT:          0  MISS:          0
cpu0_ITLB WRITEBACK ACCESS:          0  HIT:          0  MISS:          0
cpu0_L1I TOTAL     ACCESS:       4210  HIT:       4176  MISS:         34
cpu0_L1I LOAD      ACCESS:       4210  HIT:       4176  MISS:         34
cpu0_L1I RFO       ACCESS:          0  HIT:          0  MISS:          0
cpu0_L1I PREFETCH  ACCESS:          0  HIT:          0  MISS:          0
cpu0_L1I WRITEBACK ACCESS:          0  HIT:          0  MISS:          0
cpu0_STLB TOTAL     ACCESS:       2796  HIT:         11  MISS:       2785
cpu0_STLB LOAD      ACCESS:       2796  HIT:         11  MISS:       2785
cpu0_STLB RFO       ACCESS:          0  HIT:          0  MISS:          0
cpu0_STLB PREFETCH  ACCESS:          0  HIT:          0  MISS:          0
cpu0_STLB WRITEBACK ACCESS:          0  HIT:          0  MISS:          0
cpu0_L1D TOTAL     ACCESS:    5477783  HIT:    5302952  MISS:     174831
cpu0_L1D LOAD      ACCESS:    4140032  HIT:    3965245  MISS:     174787
cpu0_L1D RFO       ACCESS:    1334966  HIT:    1334963  MISS:          3
cpu0_L1D PREFETCH  ACCESS:          0  HIT:          0  MISS:          0
cpu0_L1D WRITEBACK ACCESS:          0  HIT:          0  MISS:          0
cpu0_L2C TOTAL     ACCESS:     260884  HIT:      86532  MISS:     174352
cpu0_L2C LOAD      ACCESS:     174821  HIT:        487  MISS:     174334
cpu0_L2C RFO       ACCESS:          3  HIT:          0  MISS:          3
cpu0_L2C PREFETCH  ACCESS:          0  HIT:          0  MISS:          0
cpu0_L2C WRITEBACK ACCESS:      86019  HIT:      86012  MISS:          7
LLC TOTAL     ACCESS:     260474  HIT:          0  MISS:     260474
LLC LOAD      ACCESS:     174334  HIT:          0  MISS:     174334
LLC RFO       ACCESS:          3  HIT:          0  MISS:          3
LLC PREFETCH  ACCESS:          0  HIT:          0  MISS:          0
LLC WRITEBACK ACCESS:      86129  HIT:          0  MISS:      86129
Heartbeat CPU 0 instructions: 76000001 cycles: 38421223 heartbeat IPC: 1.10695 cumulative IPC: 1.07884 (Simulation time: 0 hr 47 min 29 sec) 

Region of Interest Statistics
cpu0_DTLB TOTAL     ACCESS:    5970558  HIT:    5967466  MISS:       3092
cpu0_DTLB LOAD      ACCESS:    5328132  HIT:    5325040  MISS:       3092
cpu0_DTLB RFO       ACCESS:     642426  HIT:     642426  MISS:          0
cpu0_DTLB PREFETCH  ACCESS:          0  HIT:          0  MISS:          0
cpu0_DTLB WRITEBACK ACCESS:          0  HIT:          0  MISS:          0
cpu0_ITLB TOTAL     ACCESS:     199513  HIT:     199513  MISS:          0
cpu0_ITLB LOAD      ACCESS:     199513  HIT:     199513  MISS:          0
cpu0_ITLB RFO       ACCESS:          0  HIT:          0  MISS:          0
cpu0_ITLB PREFETCH  ACCESS:          0  HIT:          0  MISS:          0
cpu0_ITLB WRITEBACK ACCESS:          0  HIT:          0  MISS:          0
cpu0_L1I TOTAL     ACCESS:       4779  HIT:       4745  MISS:         34
cpu0_L1I LOAD      ACCESS:       4779  HIT:       4745  MISS:         34
cpu0_L1I RFO       ACCESS:          0  HIT:          0  MISS:          0
cpu0_L1I PREFETCH  ACCESS:          0  HIT:          0  MISS:          0
cpu0_L1I WRITEBACK ACCESS:          0  HIT:          0  MISS:          0
cpu0_STLB TOTAL     ACCESS:       3092  HIT:         14  MISS:       3078
cpu0_STLB LOAD      ACCESS:       3092  HIT:         14  MISS:       3078
cpu0_STLB RFO       ACCESS:          0  HIT:          0  MISS:          0
cpu0_STLB PREFETCH  ACCESS:          0  HIT:          0  MISS:          0
cpu0_STLB WRITEBACK ACCESS:          0  HIT:          0  MISS:          0
cpu0_L1D TOTAL     ACCESS:    6078348  HIT:    5884572  MISS:     193776
cpu0_L1D LOAD      ACCESS:    4594650  HIT:    4400920  MISS:     193730
cpu0_L1D RFO       ACCESS:    1480620  HIT:    1480617  MISS:          3
cpu0_L1D PREFETCH  ACCESS:          0  HIT:          0  MISS:          0
cpu0_L1D WRITEBACK ACCESS:          0  HIT:          0  MISS:          0
cpu0_L2C TOTAL     ACCESS:     289188  HIT:      96032  MISS:     193156
cpu0_L2C LOAD      ACCESS:     193764  HIT:        627  MISS:     193137
cpu0_L2C RFO       ACCESS:          3  HIT:          0  MISS:          3
cpu0_L2C PREFETCH  ACCESS:          0  HIT:          0  MISS:          0
cpu0_L2C WRITEBACK ACCESS:      95378  HIT:      95371  MISS:          7
LLC TOTAL     ACCESS:     288392  HIT:          0  MISS:     288392
LLC LOAD      ACCESS:     193137  HIT:          0  MISS:     193137
LLC RFO       ACCESS:          3  HIT:          0  MISS:          3
LLC PREFETCH  ACCESS:          0  HIT:          0  MISS:          0
LLC WRITEBACK ACCESS:      95243  HIT:          0  MISS:      95243
Heartbeat CPU 0 instructions: 78000000 cycles: 40236429 heartbeat IPC: 1.1018 cumulative IPC: 1.08045 (Simulation time: 0 hr 49 min 19 sec) 

Region of Interest Statistics
cpu0_DTLB TOTAL     ACCESS:    6511919  HIT:    6508530  MISS:       3389
cpu0_DTLB LOAD      ACCESS:    5784101  HIT:    5780712  MISS:       3389
cpu0_DTLB RFO       ACCESS:     727818  HIT:     727818  MISS:          0
cpu0_DTLB PREFETCH  ACCESS:          0  HIT:          0  MISS:          0
cpu0_DTLB WRITEBACK ACCESS:          0  HIT:          0  MISS:          0
cpu0_ITLB TOTAL     ACCESS:     211941  HIT:     211941  MISS:          0
cpu0_ITLB LOAD      ACCESS:     211941  HIT:     211941  MISS:          0
cpu0_ITLB RFO       ACCESS:          0  HIT:          0  MISS:          0
cpu0_ITLB PREFETCH  ACCESS:          0  HIT:          0  MISS:          0
cpu0_ITLB WRITEBACK ACCESS:          0  HIT:          0  MISS:          0
cpu0_L1I TOTAL     ACCESS:       5327  HIT:       5293  MISS:         34
cpu0_L1I LOAD      ACCESS:       5327  HIT:       5293  MISS:         34
cpu0_L1I RFO       ACCESS:          0  HIT:          0  MISS:          0
cpu0_L1I PREFETCH  ACCESS:          0  HIT:          0  MISS:          0
cpu0_L1I WRITEBACK ACCESS:          0  HIT:          0  MISS:          0
cpu0_STLB TOTAL     ACCESS:       3389  HIT:         16  MISS:       3373
cpu0_STLB LOAD      ACCESS:       3389  HIT:         16  MISS:       3373
cpu0_STLB RFO       ACCESS:          0  HIT:          0  MISS:          0
cpu0_STLB PREFETCH  ACCESS:          0  HIT:          0  MISS:          0
cpu0_STLB WRITEBACK ACCESS:          0  HIT:          0  MISS:          0
cpu0_L1D TOTAL     ACCESS:    6679636  HIT:    6466925  MISS:     212711
cpu0_L1D LOAD      ACCESS:    5049999  HIT:    4837337  MISS:     212662
cpu0_L1D RFO       ACCESS:    1626264  HIT:    1626261  MISS:          3
cpu0_L1D PREFETCH  ACCESS:          0  HIT:          0  MISS:          0
cpu0_L1D WRITEBACK ACCESS:          0  HIT:          0  MISS:          0
cpu0_L2C TOTAL     ACCESS:     317493  HIT:     105537  MISS:     211956
cpu0_L2C LOAD      ACCESS:     212696  HIT:        760  MISS:     211936
cpu0_L2C RFO       ACCESS:          3  HIT:          0  MISS:          3
cpu0_L2C PREFETCH  ACCESS:          0  HIT:          0  MISS:          0
cpu0_L2C WRITEBACK ACCESS:     104748  HIT:     104741  MISS:          7
LLC TOTAL     ACCESS:     316612  HIT:          0  MISS:     316612
LLC LOAD      ACCESS:     211936  HIT:          0  MISS:     211936
LLC RFO       ACCESS:          3  HIT:          0  MISS:          3
LLC PREFETCH  ACCESS:          0  HIT:          0  MISS:          0
LLC WRITEBACK ACCESS:     104663  HIT:          0  MISS:     104663
Heartbeat CPU 0 instructions: 80000000 cycles: 42013141 heartbeat IPC: 1.12567 cumulative IPC: 1.08335 (Simulation time: 0 hr 51 min 7 sec) 

Region of Interest Statistics
cpu0_DTLB TOTAL     ACCESS:    7042122  HIT:    7038455  MISS:       3667
cpu0_DTLB LOAD      ACCESS:    6242011  HIT:    6238344  MISS:       3667
cpu0_DTLB RFO       ACCESS:     800111  HIT:     800111  MISS:          0
cpu0_DTLB PREFETCH  ACCESS:          0  HIT:          0  MISS:          0
cpu0_DTLB WRITEBACK ACCESS:          0  HIT:          0  MISS:          0
cpu0_ITLB TOTAL     ACCESS:     224507  HIT:     224507  MISS:          0
cpu0_ITLB LOAD      ACCESS:     224507  HIT:     224507  MISS:          0
cpu0_ITLB RFO       ACCESS:          0  HIT:          0  MISS:          0
cpu0_ITLB PREFETCH  ACCESS:          0  HIT:          0  MISS:          0
cpu0_ITLB WRITEBACK ACCESS:          0  HIT:          0  MISS:          0
cpu0_L1I TOTAL     ACCESS:       5789  HIT:       5741  MISS:         48
cpu0_L1I LOAD      ACCESS:       5789  HIT:       5741  MISS:         48
cpu0_L1I RFO       ACCESS:          0  HIT:          0  MISS:          0
cpu0_L1I PREFETCH  ACCESS:          0  HIT:          0  MISS:          0
cpu0_L1I WRITEBACK ACCESS:          0  HIT:          0  MISS:          0
cpu0_STLB TOTAL     ACCESS:       3667  HIT:         17  MISS:       3650
cpu0_STLB LOAD      ACCESS:       3667  HIT:         17  MISS:       3650
cpu0_STLB RFO       ACCESS:          0  HIT:          0  MISS:          0
cpu0_STLB PREFETCH  ACCESS:          0  HIT:          0  MISS:          0
cpu0_STLB WRITEBACK ACCESS:          0  HIT:          0  MISS:          0
cpu0_L1D TOTAL     ACCESS:    7280264  HIT:    7050111  MISS:     230153
cpu0_L1D LOAD      ACCESS:    5524288  HIT:    5294190  MISS:     230098
cpu0_L1D RFO       ACCESS:    1752326  HIT:    1752323  MISS:          3
cpu0_L1D PREFETCH  ACCESS:          0  HIT:          0  MISS:          0
cpu0_L1D WRITEBACK ACCESS:          0  HIT:          0  MISS:          0
cpu0_L2C TOTAL     ACCESS:     343167  HIT:     113866  MISS:     229301
cpu0_L2C LOAD      ACCESS:     230146  HIT:        871  MISS:     229275
cpu0_L2C RFO       ACCESS:          3  HIT:          0  MISS:          3
cpu0_L2C PREFETCH  ACCESS:          0  HIT:          0  MISS:          0
cpu0_L2C WRITEBACK ACCESS:     112966  HIT:     112956  MISS:         10
LLC TOTAL     ACCESS:     342447  HIT:          0  MISS:     342447
LLC LOAD      ACCESS:     229275  HIT:          0  MISS:     229275
LLC RFO       ACCESS:          3  HIT:          0  MISS:          3
LLC PREFETCH  ACCESS:          0  HIT:          0  MISS:          0
LLC WRITEBACK ACCESS:     113156  HIT:          0  MISS:     113156
Heartbeat CPU 0 instructions: 82000004 cycles: 43632528 heartbeat IPC: 1.23504 cumulative IPC: 1.09173 (Simulation time: 0 hr 52 min 51 sec) 

Region of Interest Statistics
cpu0_DTLB TOTAL     ACCESS:    7533781  HIT:    7529908  MISS:       3873
cpu0_DTLB LOAD      ACCESS:    6703897  HIT:    6700024  MISS:       3873
cpu0_DTLB RFO       ACCESS:     829884  HIT:     829884  MISS:          0
cpu0_DTLB PREFETCH  ACCESS:          0  HIT:          0  MISS:          0
cpu0_DTLB WRITEBACK ACCESS:          0  HIT:          0  MISS:          0
cpu0_ITLB TOTAL     ACCESS:     237264  HIT:     237264  MISS:          0
cpu0_ITLB LOAD      ACCESS:     237264  HIT:     237264  MISS:          0
cpu0_ITLB RFO       ACCESS:          0  HIT:          0  MISS:          0
cpu0_ITLB PREFETCH  ACCESS:          0  HIT:          0  MISS:          0
cpu0_ITLB WRITEBACK ACCESS:          0  HIT:          0  MISS:          0
cpu0_L1I TOTAL     ACCESS:       5915  HIT:       5867  MISS:         48
cpu0_L1I LOAD      ACCESS:       5915  HIT:       5867  MISS:         48
cpu0_L1I RFO       ACCESS:          0  HIT:          0  MISS:          0
cpu0_L1I PREFETCH  ACCESS:          0  HIT:          0  MISS:          0
cpu0_L1I WRITEBACK ACCESS:          0  HIT:          0  MISS:          0
cpu0_STLB TOTAL     ACCESS:       3873  HIT:         20  MISS:       3853
cpu0_STLB LOAD      ACCESS:       3873  HIT:         20  MISS:       3853
cpu0_STLB RFO       ACCESS:          0  HIT:          0  MISS:          0
cpu0_STLB PREFETCH  ACCESS:          0  HIT:          0  MISS:          0
cpu0_STLB WRITEBACK ACCESS:          0  HIT:          0  MISS:          0
cpu0_L1D TOTAL     ACCESS:    7877512  HIT:    7634727  MISS:     242785
cpu0_L1D LOAD      ACCESS:    6057616  HIT:    5814888  MISS:     242728
cpu0_L1D RFO       ACCESS:    1816043  HIT:    1816040  MISS:          3
cpu0_L1D PREFETCH  ACCESS:          0  HIT:          0  MISS:          0
cpu0_L1D WRITEBACK ACCESS:          0  HIT:          0  MISS:          0
cpu0_L2C TOTAL     ACCESS:     359897  HIT:     118007  MISS:     241890
cpu0_L2C LOAD      ACCESS:     242776  HIT:        913  MISS:     241863
cpu0_L2C RFO       ACCESS:          3  HIT:          0  MISS:          3
cpu0_L2C PREFETCH  ACCESS:          0  HIT:          0  MISS:          0
cpu0_L2C WRITEBACK ACCESS:     117064  HIT:     117054  MISS:         10
LLC TOTAL     ACCESS:     359950  HIT:          0  MISS:     359950
LLC LOAD      ACCESS:     241863  HIT:          0  MISS:     241863
LLC RFO       ACCESS:          3  HIT:          0  MISS:          3
LLC PREFETCH  ACCESS:          0  HIT:          0  MISS:          0
LLC WRITEBACK ACCESS:     118070  HIT:          0  MISS:     118070
Heartbeat CPU 0 instructions: 84000002 cycles: 45253648 heartbeat IPC: 1.23371 cumulative IPC: 1.09917 (Simulation time: 0 hr 54 min 34 sec) 

Region of Interest Statistics
cpu0_DTLB TOTAL     ACCESS:    8025554  HIT:    8021476  MISS:       4078
cpu0_DTLB LOAD      ACCESS:    7165854  HIT:    7161776  MISS:       4078
cpu0_DTLB RFO       ACCESS:     859700  HIT:     859700  MISS:          0
cpu0_DTLB PREFETCH  ACCESS:          0  HIT:          0  MISS:          0
cpu0_DTLB WRITEBACK ACCESS:          0  HIT:          0  MISS:          0
cpu0_ITLB TOTAL     ACCESS:     250079  HIT:     250079  MISS:          0
cpu0_ITLB LOAD      ACCESS:     250079  HIT:     250079  MISS:          0
cpu0_ITLB RFO       ACCESS:          0  HIT:          0  MISS:          0
cpu0_ITLB PREFETCH  ACCESS:          0  HIT:          0  MISS:          0
cpu0_ITLB WRITEBACK ACCESS:          0  HIT:          0  MISS:          0
cpu0_L1I TOTAL     ACCESS:       6050  HIT:       6002  MISS:         48
cpu0_L1I LOAD      ACCESS:       6050  HIT:       6002  MISS:         48
cpu0_L1I RFO       ACCESS:          0  HIT:          0  MISS:          0
cpu0_L1I PREFETCH  ACCESS:          0  HIT:          0  MISS:          0
cpu0_L1I WRITEBACK ACCESS:          0  HIT:          0  MISS:          0
cpu0_STLB TOTAL     ACCESS:       4078  HIT:         21  MISS:       4057
cpu0_STLB LOAD      ACCESS:       4078  HIT:         21  MISS:       4057
cpu0_STLB RFO       ACCESS:          0  HIT:          0  MISS:          0
cpu0_STLB PREFETCH  ACCESS:          0  HIT:          0  MISS:          0
cpu0_STLB WRITEBACK ACCESS:          0  HIT:          0  MISS:          0
cpu0_L1D TOTAL     ACCESS:    8474880  HIT:    8219442  MISS:     255438
cpu0_L1D LOAD      ACCESS:    6591053  HIT:    6335674  MISS:     255379
cpu0_L1D RFO       ACCESS:    1879770  HIT:    1879767  MISS:          3
cpu0_L1D PREFETCH  ACCESS:          0  HIT:          0  MISS:          0
cpu0_L1D WRITEBACK ACCESS:          0  HIT:          0  MISS:          0
cpu0_L2C TOTAL     ACCESS:     376652  HIT:     122152  MISS:     254500
cpu0_L2C LOAD      ACCESS:     255427  HIT:        954  MISS:     254473
cpu0_L2C RFO       ACCESS:          3  HIT:          0  MISS:          3
cpu0_L2C PREFETCH  ACCESS:          0  HIT:          0  MISS:          0
cpu0_L2C WRITEBACK ACCESS:     121166  HIT:     121156  MISS:         10
LLC TOTAL     ACCESS:     376598  HIT:          0  MISS:     376598
LLC LOAD      ACCESS:     254473  HIT:          0  MISS:     254473
LLC RFO       ACCESS:          3  HIT:          0  MISS:          3
LLC PREFETCH  ACCESS:          0  HIT:          0  MISS:          0
LLC WRITEBACK ACCESS:     122108  HIT:          0  MISS:     122108
Heartbeat CPU 0 instructions: 86000002 cycles: 46869960 heartbeat IPC: 1.23738 cumulative IPC: 1.10604 (Simulation time: 0 hr 56 min 15 sec) 

Region of Interest Statistics
cpu0_DTLB TOTAL     ACCESS:    8517181  HIT:    8512899  MISS:       4282
cpu0_DTLB LOAD      ACCESS:    7627716  HIT:    7623434  MISS:       4282
cpu0_DTLB RFO       ACCESS:     889465  HIT:     889465  MISS:          0
cpu0_DTLB PREFETCH  ACCESS:          0  HIT:          0  MISS:          0
cpu0_DTLB WRITEBACK ACCESS:          0  HIT:          0  MISS:          0
cpu0_ITLB TOTAL     ACCESS:     262871  HIT:     262871  MISS:          0
cpu0_ITLB LOAD      ACCESS:     262871  HIT:     262871  MISS:          0
cpu0_ITLB RFO       ACCESS:          0  HIT:          0  MISS:          0
cpu0_ITLB PREFETCH  ACCESS:          0  HIT:          0  MISS:          0
cpu0_ITLB WRITEBACK ACCESS:          0  HIT:          0  MISS:          0
cpu0_L1I TOTAL     ACCESS:       6179  HIT:       6131  MISS:         48
cpu0_L1I LOAD      ACCESS:       6179  HIT:       6131  MISS:         48
cpu0_L1I RFO       ACCESS:          0  HIT:          0  MISS:          0
cpu0_L1I PREFETCH  ACCESS:          0  HIT:          0  MISS:          0
cpu0_L1I WRITEBACK ACCESS:          0  HIT:          0  MISS:          0
cpu0_STLB TOTAL     ACCESS:       4282  HIT:         22  MISS:       4260
cpu0_STLB LOAD      ACCESS:       4282  HIT:         22  MISS:       4260
cpu0_STLB RFO       ACCESS:          0  HIT:          0  MISS:          0
cpu0_STLB PREFETCH  ACCESS:          0  HIT:          0  MISS:          0
cpu0_STLB WRITEBACK ACCESS:          0  HIT:          0  MISS:          0
cpu0_L1D TOTAL     ACCESS:    9072157  HIT:    8804098  MISS:     268059
cpu0_L1D LOAD      ACCESS:    7124411  HIT:    6856414  MISS:     267997
cpu0_L1D RFO       ACCESS:    1943486  HIT:    1943483  MISS:          3
cpu0_L1D PREFETCH  ACCESS:          0  HIT:          0  MISS:          0
cpu0_L1D WRITEBACK ACCESS:          0  HIT:          0  MISS:          0
cpu0_L2C TOTAL     ACCESS:     393374  HIT:     126286  MISS:     267088
cpu0_L2C LOAD      ACCESS:     268045  HIT:        985  MISS:     267060
cpu0_L2C RFO       ACCESS:          3  HIT:          0  MISS:          3
cpu0_L2C PREFETCH  ACCESS:          0  HIT:          0  MISS:          0
cpu0_L2C WRITEBACK ACCESS:     125267  HIT:     125257  MISS:         10
LLC TOTAL     ACCESS:     393402  HIT:          0  MISS:     393402
LLC LOAD      ACCESS:     267060  HIT:          0  MISS:     267060
LLC RFO       ACCESS:          3  HIT:          0  MISS:          3
LLC PREFETCH  ACCESS:          0  HIT:          0  MISS:          0
LLC WRITEBACK ACCESS:     126324  HIT:          0  MISS:     126324
Heartbeat CPU 0 instructions: 88000000 cycles: 48485805 heartbeat IPC: 1.23774 cumulative IPC: 1.11226 (Simulation time: 0 hr 58 min 1 sec) 

Region of Interest Statistics
cpu0_DTLB TOTAL     ACCESS:    9008728  HIT:    9004241  MISS:       4487
cpu0_DTLB LOAD      ACCESS:    8089518  HIT:    8085031  MISS:       4487
cpu0_DTLB RFO       ACCESS:     919210  HIT:     919210  MISS:          0
cpu0_DTLB PREFETCH  ACCESS:          0  HIT:          0  MISS:          0
cpu0_DTLB WRITEBACK ACCESS:          0  HIT:          0  MISS:          0
cpu0_ITLB TOTAL     ACCESS:     275627  HIT:     275627  MISS:          0
cpu0_ITLB LOAD      ACCESS:     275627  HIT:     275627  MISS:          0
cpu0_ITLB RFO       ACCESS:          0  HIT:          0  MISS:          0
cpu0_ITLB PREFETCH  ACCESS:          0  HIT:          0  MISS:          0
cpu0_ITLB WRITEBACK ACCESS:          0  HIT:          0  MISS:          0
cpu0_L1I TOTAL     ACCESS:       6314  HIT:       6266  MISS:         48
cpu0_L1I LOAD      ACCESS:       6314  HIT:       6266  MISS:         48
cpu0_L1I RFO       ACCESS:          0  HIT:          0  MISS:          0
cpu0_L1I PREFETCH  ACCESS:          0  HIT:          0  MISS:          0
cpu0_L1I WRITEBACK ACCESS:          0  HIT:          0  MISS:          0
cpu0_STLB TOTAL     ACCESS:       4487  HIT:         26  MISS:       4461
cpu0_STLB LOAD      ACCESS:       4487  HIT:         26  MISS:       4461
cpu0_STLB RFO       ACCESS:          0  HIT:          0  MISS:          0
cpu0_STLB PREFETCH  ACCESS:          0  HIT:          0  MISS:          0
cpu0_STLB WRITEBACK ACCESS:          0  HIT:          0  MISS:          0
cpu0_L1D TOTAL     ACCESS:    9669268  HIT:    9388564  MISS:     280704
cpu0_L1D LOAD      ACCESS:    7657594  HIT:    7376954  MISS:     280640
cpu0_L1D RFO       ACCESS:    2007213  HIT:    2007210  MISS:          3
cpu0_L1D PREFETCH  ACCESS:          0  HIT:          0  MISS:          0
cpu0_L1D WRITEBACK ACCESS:          0  HIT:          0  MISS:          0
cpu0_L2C TOTAL     ACCESS:     410128  HIT:     130432  MISS:     279696
cpu0_L2C LOAD      ACCESS:     280688  HIT:       1020  MISS:     279668
cpu0_L2C RFO       ACCESS:          3  HIT:          0  MISS:          3
cpu0_L2C PREFETCH  ACCESS:          0  HIT:          0  MISS:          0
cpu0_L2C WRITEBACK ACCESS:     129376  HIT:     129366  MISS:         10
LLC TOTAL     ACCESS:     410081  HIT:          0  MISS:     410081
LLC LOAD      ACCESS:     279668  HIT:          0  MISS:     279668
LLC RFO       ACCESS:          3  HIT:          0  MISS:          3
LLC PREFETCH  ACCESS:          0  HIT:          0  MISS:          0
LLC WRITEBACK ACCESS:     130395  HIT:          0  MISS:     130395
Heartbeat CPU 0 instructions: 90000003 cycles: 50104601 heartbeat IPC: 1.23549 cumulative IPC: 1.11784 (Simulation time: 0 hr 59 min 43 sec) 

Region of Interest Statistics
cpu0_DTLB TOTAL     ACCESS:    9500369  HIT:    9495677  MISS:       4692
cpu0_DTLB LOAD      ACCESS:    8551372  HIT:    8546680  MISS:       4692
cpu0_DTLB RFO       ACCESS:     948997  HIT:     948997  MISS:          0
cpu0_DTLB PREFETCH  ACCESS:          0  HIT:          0  MISS:          0
cpu0_DTLB WRITEBACK ACCESS:          0  HIT:          0  MISS:          0
cpu0_ITLB TOTAL     ACCESS:     288364  HIT:     288364  MISS:          0
cpu0_ITLB LOAD      ACCESS:     288364  HIT:     288364  MISS:          0
cpu0_ITLB RFO       ACCESS:          0  HIT:          0  MISS:          0
cpu0_ITLB PREFETCH  ACCESS:          0  HIT:          0  MISS:          0
cpu0_ITLB WRITEBACK ACCESS:          0  HIT:          0  MISS:          0
cpu0_L1I TOTAL     ACCESS:       6440  HIT:       6392  MISS:         48
cpu0_L1I LOAD      ACCESS:       6440  HIT:       6392  MISS:         48
cpu0_L1I RFO       ACCESS:          0  HIT:          0  MISS:          0
cpu0_L1I PREFETCH  ACCESS:          0  HIT:          0  MISS:          0
cpu0_L1I WRITEBACK ACCESS:          0  HIT:          0  MISS:          0
cpu0_STLB TOTAL     ACCESS:       4692  HIT:         27  MISS:       4665
cpu0_STLB LOAD      ACCESS:       4692  HIT:         27  MISS:       4665
cpu0_STLB RFO       ACCESS:          0  HIT:          0  MISS:          0
cpu0_STLB PREFETCH  ACCESS:          0  HIT:          0  MISS:          0
cpu0_STLB WRITEBACK ACCESS:          0  HIT:          0  MISS:          0
cpu0_L1D TOTAL     ACCESS:   10266546  HIT:    9973217  MISS:     293329
cpu0_L1D LOAD      ACCESS:    8190951  HIT:    7897688  MISS:     293263
cpu0_L1D RFO       ACCESS:    2070930  HIT:    2070927  MISS:          3
cpu0_L1D PREFETCH  ACCESS:          0  HIT:          0  MISS:          0
cpu0_L1D WRITEBACK ACCESS:          0  HIT:          0  MISS:          0
cpu0_L2C TOTAL     ACCESS:     426846  HIT:     134559  MISS:     292287
cpu0_L2C LOAD      ACCESS:     293311  HIT:       1052  MISS:     292259
cpu0_L2C RFO       ACCESS:          3  HIT:          0  MISS:          3
cpu0_L2C PREFETCH  ACCESS:          0  HIT:          0  MISS:          0
cpu0_L2C WRITEBACK ACCESS:     133469  HIT:     133459  MISS:         10
LLC TOTAL     ACCESS:     426754  HIT:          1  MISS:     426753
LLC LOAD      ACCESS:     292259  HIT:          1  MISS:     292258
LLC RFO       ACCESS:          3  HIT:          0  MISS:          3
LLC PREFETCH  ACCESS:          0  HIT:          0  MISS:          0
LLC WRITEBACK ACCESS:     134477  HIT:          0  MISS:     134477
Heartbeat CPU 0 instructions: 92000002 cycles: 51723615 heartbeat IPC: 1.23532 cumulative IPC: 1.12292 (Simulation time: 1 hr 1 min 25 sec) 

Region of Interest Statistics
cpu0_DTLB TOTAL     ACCESS:    9992091  HIT:    9987195  MISS:       4896
cpu0_DTLB LOAD      ACCESS:    9013300  HIT:    9008404  MISS:       4896
cpu0_DTLB RFO       ACCESS:     978791  HIT:     978791  MISS:          0
cpu0_DTLB PREFETCH  ACCESS:          0  HIT:          0  MISS:          0
cpu0_DTLB WRITEBACK ACCESS:          0  HIT:          0  MISS:          0
cpu0_ITLB TOTAL     ACCESS:     301169  HIT:     301169  MISS:          0
cpu0_ITLB LOAD      ACCESS:     301169  HIT:     301169  MISS:          0
cpu0_ITLB RFO       ACCESS:          0  HIT:          0  MISS:          0
cpu0_ITLB PREFETCH  ACCESS:          0  HIT:          0  MISS:          0
cpu0_ITLB WRITEBACK ACCESS:          0  HIT:          0  MISS:          0
cpu0_L1I TOTAL     ACCESS:       6575  HIT:       6527  MISS:         48
cpu0_L1I LOAD      ACCESS:       6575  HIT:       6527  MISS:         48
cpu0_L1I RFO       ACCESS:          0  HIT:          0  MISS:          0
cpu0_L1I PREFETCH  ACCESS:          0  HIT:          0  MISS:          0
cpu0_L1I WRITEBACK ACCESS:          0  HIT:          0  MISS:          0
cpu0_STLB TOTAL     ACCESS:       4896  HIT:         29  MISS:       4867
cpu0_STLB LOAD      ACCESS:       4896  HIT:         29  MISS:       4867
cpu0_STLB RFO       ACCESS:          0  HIT:          0  MISS:          0
cpu0_STLB PREFETCH  ACCESS:          0  HIT:          0  MISS:          0
cpu0_STLB WRITEBACK ACCESS:          0  HIT:          0  MISS:          0
cpu0_L1D TOTAL     ACCESS:   10863829  HIT:   10557850  MISS:     305979
cpu0_L1D LOAD      ACCESS:    8724305  HIT:    8418395  MISS:     305910
cpu0_L1D RFO       ACCESS:    2134657  HIT:    2134654  MISS:          3
cpu0_L1D PREFETCH  ACCESS:          0  HIT:          0  MISS:          0
cpu0_L1D WRITEBACK ACCESS:          0  HIT:          0  MISS:          0
cpu0_L2C TOTAL     ACCESS:     443595  HIT:     138700  MISS:     304895
cpu0_L2C LOAD      ACCESS:     305958  HIT:       1091  MISS:     304867
cpu0_L2C RFO       ACCESS:          3  HIT:          0  MISS:          3
cpu0_L2C PREFETCH  ACCESS:          0  HIT:          0  MISS:          0
cpu0_L2C WRITEBACK ACCESS:     137568  HIT:     137558  MISS:         10
LLC TOTAL     ACCESS:     443527  HIT:          1  MISS:     443526
LLC LOAD      ACCESS:     304867  HIT:          1  MISS:     304866
LLC RFO       ACCESS:          3  HIT:          0  MISS:          3
LLC PREFETCH  ACCESS:          0  HIT:          0  MISS:          0
LLC WRITEBACK ACCESS:     138642  HIT:          0  MISS:     138642
Heartbeat CPU 0 instructions: 94000002 cycles: 54437863 heartbeat IPC: 0.736852 cumulative IPC: 1.0968 (Simulation time: 1 hr 3 min 40 sec) 

Region of Interest Statistics
cpu0_DTLB TOTAL     ACCESS:   10455847  HIT:   10430069  MISS:      25778
cpu0_DTLB LOAD      ACCESS:    9424740  HIT:    9419412  MISS:       5328
cpu0_DTLB RFO       ACCESS:    1031107  HIT:    1010657  MISS:      20450
cpu0_DTLB PREFETCH  ACCESS:          0  HIT:          0  MISS:          0
cpu0_DTLB WRITEBACK ACCESS:          0  HIT:          0  MISS:          0
cpu0_ITLB TOTAL     ACCESS:     333007  HIT:     333003  MISS:          4
cpu0_ITLB LOAD      ACCESS:     333007  HIT:     333003  MISS:          4
cpu0_ITLB RFO       ACCESS:          0  HIT:          0  MISS:          0
cpu0_ITLB PREFETCH  ACCESS:          0  HIT:          0  MISS:          0
cpu0_ITLB WRITEBACK ACCESS:          0  HIT:          0  MISS:          0
cpu0_L1I TOTAL     ACCESS:       6971  HIT:       6836  MISS:        135
cpu0_L1I LOAD      ACCESS:       6971  HIT:       6836  MISS:        135
cpu0_L1I RFO       ACCESS:          0  HIT:          0  MISS:          0
cpu0_L1I PREFETCH  ACCESS:          0  HIT:          0  MISS:          0
cpu0_L1I WRITEBACK ACCESS:          0  HIT:          0  MISS:          0
cpu0_STLB TOTAL     ACCESS:      25783  HIT:      19104  MISS:       6679
cpu0_STLB LOAD      ACCESS:       5332  HIT:        221  MISS:       5111
cpu0_STLB RFO       ACCESS:      20451  HIT:      18883  MISS:       1568
cpu0_STLB PREFETCH  ACCESS:          0  HIT:          0  MISS:          0
cpu0_STLB WRITEBACK ACCESS:          0  HIT:          0  MISS:          0
cpu0_L1D TOTAL     ACCESS:   11384984  HIT:   11043005  MISS:     341979
cpu0_L1D LOAD      ACCESS:    9168991  HIT:    8849412  MISS:     319579
cpu0_L1D RFO       ACCESS:    2210249  HIT:    2187946  MISS:      22303
cpu0_L1D PREFETCH  ACCESS:          0  HIT:          0  MISS:          0
cpu0_L1D WRITEBACK ACCESS:          0  HIT:          0  MISS:          0
cpu0_L2C TOTAL     ACCESS:     505064  HIT:     169372  MISS:     335692
cpu0_L2C LOAD      ACCESS:     319714  HIT:       1163  MISS:     318551
cpu0_L2C RFO       ACCESS:      22303  HIT:       5204  MISS:      17099
cpu0_L2C PREFETCH  ACCESS:          0  HIT:          0  MISS:          0
cpu0_L2C WRITEBACK ACCESS:     162950  HIT:     162931  MISS:         19
LLC TOTAL     ACCESS:     490541  HIT:         37  MISS:     490504
LLC LOAD      ACCESS:     318551  HIT:          3  MISS:     318548
LLC RFO       ACCESS:      17100  HIT:         34  MISS:      17066
LLC PREFETCH  ACCESS:          0  HIT:          0  MISS:          0
LLC WRITEBACK ACCESS:     154867  HIT:          0  MISS:     154867
Heartbeat CPU 0 instructions: 96000000 cycles: 58142558 heartbeat IPC: 0.539855 cumulative IPC: 1.04972 (Simulation time: 1 hr 6 min 13 sec) 

Region of Interest Statistics
cpu0_DTLB TOTAL     ACCESS:   10780994  HIT:   10741340  MISS:      39654
cpu0_DTLB LOAD      ACCESS:    9661126  HIT:    9655323  MISS:       5803
cpu0_DTLB RFO       ACCESS:    1119868  HIT:    1086017  MISS:      33851
cpu0_DTLB PREFETCH  ACCESS:          0  HIT:          0  MISS:          0
cpu0_DTLB WRITEBACK ACCESS:          0  HIT:          0  MISS:          0
cpu0_ITLB TOTAL     ACCESS:     378909  HIT:     378901  MISS:          8
cpu0_ITLB LOAD      ACCESS:     378909  HIT:     378901  MISS:          8
cpu0_ITLB RFO       ACCESS:          0  HIT:          0  MISS:          0
cpu0_ITLB PREFETCH  ACCESS:          0  HIT:          0  MISS:          0
cpu0_ITLB WRITEBACK ACCESS:          0  HIT:          0  MISS:          0
cpu0_L1I TOTAL     ACCESS:       7230  HIT:       7001  MISS:        229
cpu0_L1I LOAD      ACCESS:       7230  HIT:       7001  MISS:        229
cpu0_L1I RFO       ACCESS:          0  HIT:          0  MISS:          0
cpu0_L1I PREFETCH  ACCESS:          0  HIT:          0  MISS:          0
cpu0_L1I WRITEBACK ACCESS:          0  HIT:          0  MISS:          0
cpu0_STLB TOTAL     ACCESS:      39662  HIT:      31541  MISS:       8121
cpu0_STLB LOAD      ACCESS:       5811  HIT:        358  MISS:       5453
cpu0_STLB RFO       ACCESS:      33851  HIT:      31183  MISS:       2668
cpu0_STLB PREFETCH  ACCESS:          0  HIT:          0  MISS:          0
cpu0_STLB WRITEBACK ACCESS:          0  HIT:          0  MISS:          0
cpu0_L1D TOTAL     ACCESS:   11571490  HIT:   11180764  MISS:     390726
cpu0_L1D LOAD      ACCESS:    9272617  HIT:    8929743  MISS:     342874
cpu0_L1D RFO       ACCESS:    2292122  HIT:    2244392  MISS:      47730
cpu0_L1D PREFETCH  ACCESS:          0  HIT:          0  MISS:          0
cpu0_L1D WRITEBACK ACCESS:          0  HIT:          0  MISS:          0
cpu0_L2C TOTAL     ACCESS:     580805  HIT:     202819  MISS:     377986
cpu0_L2C LOAD      ACCESS:     343103  HIT:       4471  MISS:     338632
cpu0_L2C RFO       ACCESS:      47730  HIT:       8431  MISS:      39299
cpu0_L2C PREFETCH  ACCESS:          0  HIT:          0  MISS:          0
cpu0_L2C WRITEBACK ACCESS:     189850  HIT:     189829  MISS:         21
LLC TOTAL     ACCESS:     560975  HIT:         82  MISS:     560893
LLC LOAD      ACCESS:     338632  HIT:          3  MISS:     338629
LLC RFO       ACCESS:      39299  HIT:         79  MISS:      39220
LLC PREFETCH  ACCESS:          0  HIT:          0  MISS:          0
LLC WRITEBACK ACCESS:     183010  HIT:          0  MISS:     183010
Heartbeat CPU 0 instructions: 98000002 cycles: 61482701 heartbeat IPC: 0.598777 cumulative IPC: 1.01778 (Simulation time: 1 hr 9 min 15 sec) 

Region of Interest Statistics
cpu0_DTLB TOTAL     ACCESS:   11073280  HIT:   11032924  MISS:      40356
cpu0_DTLB LOAD      ACCESS:    9909598  HIT:    9903268  MISS:       6330
cpu0_DTLB RFO       ACCESS:    1163682  HIT:    1129656  MISS:      34026
cpu0_DTLB PREFETCH  ACCESS:          0  HIT:          0  MISS:          0
cpu0_DTLB WRITEBACK ACCESS:          0  HIT:          0  MISS:          0
cpu0_ITLB TOTAL     ACCESS:     401414  HIT:     401406  MISS:          8
cpu0_ITLB LOAD      ACCESS:     401414  HIT:     401406  MISS:          8
cpu0_ITLB RFO       ACCESS:          0  HIT:          0  MISS:          0
cpu0_ITLB PREFETCH  ACCESS:          0  HIT:          0  MISS:          0
cpu0_ITLB WRITEBACK ACCESS:          0  HIT:          0  MISS:          0
cpu0_L1I TOTAL     ACCESS:       7230  HIT:       7001  MISS:        229
cpu0_L1I LOAD      ACCESS:       7230  HIT:       7001  MISS:        229
cpu0_L1I RFO       ACCESS:          0  HIT:          0  MISS:          0
cpu0_L1I PREFETCH  ACCESS:          0  HIT:          0  MISS:          0
cpu0_L1I WRITEBACK ACCESS:          0  HIT:          0  MISS:          0
cpu0_STLB TOTAL     ACCESS:      40364  HIT:      31541  MISS:       8823
cpu0_STLB LOAD      ACCESS:       6338  HIT:        358  MISS:       5980
cpu0_STLB RFO       ACCESS:      34026  HIT:      31183  MISS:       2843
cpu0_STLB PREFETCH  ACCESS:          0  HIT:          0  MISS:          0
cpu0_STLB WRITEBACK ACCESS:          0  HIT:          0  MISS:          0
cpu0_L1D TOTAL     ACCESS:   11741205  HIT:   11306922  MISS:     434283
cpu0_L1D LOAD      ACCESS:    9350571  HIT:    8974994  MISS:     375577
cpu0_L1D RFO       ACCESS:    2383181  HIT:    2324597  MISS:      58584
cpu0_L1D PREFETCH  ACCESS:          0  HIT:          0  MISS:          0
cpu0_L1D WRITEBACK ACCESS:          0  HIT:          0  MISS:          0
cpu0_L2C TOTAL     ACCESS:     635264  HIT:     213862  MISS:     421402
cpu0_L2C LOAD      ACCESS:     375806  HIT:       4612  MISS:     371194
cpu0_L2C RFO       ACCESS:      58584  HIT:       8431  MISS:      50153
cpu0_L2C PREFETCH  ACCESS:          0  HIT:          0  MISS:          0
cpu0_L2C WRITEBACK ACCESS:     200752  HIT:     200731  MISS:         21
LLC TOTAL     ACCESS:     615379  HIT:         82  MISS:     615297
LLC LOAD      ACCESS:     371195  HIT:          3  MISS:     371192
LLC RFO       ACCESS:      50153  HIT:         79  MISS:      50074
LLC PREFETCH  ACCESS:          0  HIT:          0  MISS:          0
LLC WRITEBACK ACCESS:     193997  HIT:          0  MISS:     193997
Heartbeat CPU 0 instructions: 100000000 cycles: 64816461 heartbeat IPC: 0.599923 cumulative IPC: 0.990193 (Simulation time: 1 hr 12 min 17 sec) 

Region of Interest Statistics
cpu0_DTLB TOTAL     ACCESS:   11365434  HIT:   11324378  MISS:      41056
cpu0_DTLB LOAD      ACCESS:   10157911  HIT:   10151056  MISS:       6855
cpu0_DTLB RFO       ACCESS:    1207523  HIT:    1173322  MISS:      34201
cpu0_DTLB PREFETCH  ACCESS:          0  HIT:          0  MISS:          0
cpu0_DTLB WRITEBACK ACCESS:          0  HIT:          0  MISS:          0
cpu0_ITLB TOTAL     ACCESS:     423975  HIT:     423967  MISS:          8
cpu0_ITLB LOAD      ACCESS:     423975  HIT:     423967  MISS:          8
cpu0_ITLB RFO       ACCESS:          0  HIT:          0  MISS:          0
cpu0_ITLB PREFETCH  ACCESS:          0  HIT:          0  MISS:          0
cpu0_ITLB WRITEBACK ACCESS:          0  HIT:          0  MISS:          0
cpu0_L1I TOTAL     ACCESS:       7230  HIT:       7001  MISS:        229
cpu0_L1I LOAD      ACCESS:       7230  HIT:       7001  MISS:        229
cpu0_L1I RFO       ACCESS:          0  HIT:          0  MISS:          0
cpu0_L1I PREFETCH  ACCESS:          0  HIT:          0  MISS:          0
cpu0_L1I WRITEBACK ACCESS:          0  HIT:          0  MISS:          0
cpu0_STLB TOTAL     ACCESS:      41064  HIT:      31541  MISS:       9523
cpu0_STLB LOAD      ACCESS:       6863  HIT:        358  MISS:       6505
cpu0_STLB RFO       ACCESS:      34201  HIT:      31183  MISS:       3018
cpu0_STLB PREFETCH  ACCESS:          0  HIT:          0  MISS:          0
cpu0_STLB WRITEBACK ACCESS:          0  HIT:          0  MISS:          0
cpu0_L1D TOTAL     ACCESS:   11910610  HIT:   11432778  MISS:     477832
cpu0_L1D LOAD      ACCESS:    9428447  HIT:    9020173  MISS:     408274
cpu0_L1D RFO       ACCESS:    2474010  HIT:    2404574  MISS:      69436
cpu0_L1D PREFETCH  ACCESS:          0  HIT:          0  MISS:          0
cpu0_L1D WRITEBACK ACCESS:          0  HIT:          0  MISS:          0
cpu0_L2C TOTAL     ACCESS:     689714  HIT:     224900  MISS:     464814
cpu0_L2C LOAD      ACCESS:     408503  HIT:       4750  MISS:     403753
cpu0_L2C RFO       ACCESS:      69437  HIT:       8431  MISS:      61006
cpu0_L2C PREFETCH  ACCESS:          0  HIT:          0  MISS:          0
cpu0_L2C WRITEBACK ACCESS:     211652  HIT:     211631  MISS:         21
LLC TOTAL     ACCESS:     669647  HIT:         82  MISS:     669565
LLC LOAD      ACCESS:     403753  HIT:          3  MISS:     403750
LLC RFO       ACCESS:      61006  HIT:         79  MISS:      60927
LLC PREFETCH  ACCESS:          0  HIT:          0  MISS:          0
LLC WRITEBACK ACCESS:     204854  HIT:          0  MISS:     204854
Heartbeat CPU 0 instructions: 102000001 cycles: 67277608 heartbeat IPC: 0.81263 cumulative IPC: 0.981941 (Simulation time: 1 hr 14 min 16 sec) 

Region of Interest Statistics
cpu0_DTLB TOTAL     ACCESS:   11821751  HIT:   11780242  MISS:      41509
cpu0_DTLB LOAD      ACCESS:   10503742  HIT:   10496569  MISS:       7173
cpu0_DTLB RFO       ACCESS:    1318009  HIT:    1283673  MISS:      34336
cpu0_DTLB PREFETCH  ACCESS:          0  HIT:          0  MISS:          0
cpu0_DTLB WRITEBACK ACCESS:          0  HIT:          0  MISS:          0
cpu0_ITLB TOTAL     ACCESS:     442606  HIT:     442598  MISS:          8
cpu0_ITLB LOAD      ACCESS:     442606  HIT:     442598  MISS:          8
cpu0_ITLB RFO       ACCESS:          0  HIT:          0  MISS:          0
cpu0_ITLB PREFETCH  ACCESS:          0  HIT:          0  MISS:          0
cpu0_ITLB WRITEBACK ACCESS:          0  HIT:          0  MISS:          0
cpu0_L1I TOTAL     ACCESS:       7245  HIT:       7006  MISS:        239
cpu0_L1I LOAD      ACCESS:       7245  HIT:       7006  MISS:        239
cpu0_L1I RFO       ACCESS:          0  HIT:          0  MISS:          0
cpu0_L1I PREFETCH  ACCESS:          0  HIT:          0  MISS:          0
cpu0_L1I WRITEBACK ACCESS:          0  HIT:          0  MISS:          0
cpu0_STLB TOTAL     ACCESS:      41517  HIT:      31541  MISS:       9976
cpu0_STLB LOAD      ACCESS:       7181  HIT:        358  MISS:       6823
cpu0_STLB RFO       ACCESS:      34336  HIT:      31183  MISS:       3153
cpu0_STLB PREFETCH  ACCESS:          0  HIT:          0  MISS:          0
cpu0_STLB WRITEBACK ACCESS:          0  HIT:          0  MISS:          0
cpu0_L1D TOTAL     ACCESS:   12190946  HIT:   11685289  MISS:     505657
cpu0_L1D LOAD      ACCESS:    9576568  HIT:    9148756  MISS:     427812
cpu0_L1D RFO       ACCESS:    2605772  HIT:    2528064  MISS:      77708
cpu0_L1D PREFETCH  ACCESS:          0  HIT:          0  MISS:          0
cpu0_L1D WRITEBACK ACCESS:          0  HIT:          0  MISS:          0
cpu0_L2C TOTAL     ACCESS:     731722  HIT:     239229  MISS:     492493
cpu0_L2C LOAD      ACCESS:     428051  HIT:       4896  MISS:     423155
cpu0_L2C RFO       ACCESS:      77708  HIT:       8431  MISS:      69277
cpu0_L2C PREFETCH  ACCESS:          0  HIT:          0  MISS:          0
cpu0_L2C WRITEBACK ACCESS:     225826  HIT:     225804  MISS:         22
LLC TOTAL     ACCESS:     708396  HIT:         82  MISS:     708314
LLC LOAD      ACCESS:     423156  HIT:          3  MISS:     423153
LLC RFO       ACCESS:      69277  HIT:         79  MISS:      69198
LLC PREFETCH  ACCESS:          0  HIT:          0  MISS:          0
LLC WRITEBACK ACCESS:     215924  HIT:          0  MISS:     215924
Heartbeat CPU 0 instructions: 104000001 cycles: 69777713 heartbeat IPC: 0.799966 cumulative IPC: 0.973737 (Simulation time: 1 hr 16 min 24 sec) 

Region of Interest Statistics
cpu0_DTLB TOTAL     ACCESS:   12318200  HIT:   12276309  MISS:      41891
cpu0_DTLB LOAD      ACCESS:   10873519  HIT:   10866087  MISS:       7432
cpu0_DTLB RFO       ACCESS:    1444681  HIT:    1410222  MISS:      34459
cpu0_DTLB PREFETCH  ACCESS:          0  HIT:          0  MISS:          0
cpu0_DTLB WRITEBACK ACCESS:          0  HIT:          0  MISS:          0
cpu0_ITLB TOTAL     ACCESS:     460291  HIT:     460283  MISS:          8
cpu0_ITLB LOAD      ACCESS:     460291  HIT:     460283  MISS:          8
cpu0_ITLB RFO       ACCESS:          0  HIT:          0  MISS:          0
cpu0_ITLB PREFETCH  ACCESS:          0  HIT:          0  MISS:          0
cpu0_ITLB WRITEBACK ACCESS:          0  HIT:          0  MISS:          0
cpu0_L1I TOTAL     ACCESS:       7245  HIT:       7006  MISS:        239
cpu0_L1I LOAD      ACCESS:       7245  HIT:       7006  MISS:        239
cpu0_L1I RFO       ACCESS:          0  HIT:          0  MISS:          0
cpu0_L1I PREFETCH  ACCESS:          0  HIT:          0  MISS:          0
cpu0_L1I WRITEBACK ACCESS:          0  HIT:          0  MISS:          0
cpu0_STLB TOTAL     ACCESS:      41899  HIT:      31541  MISS:      10358
cpu0_STLB LOAD      ACCESS:       7440  HIT:        358  MISS:       7082
cpu0_STLB RFO       ACCESS:      34459  HIT:      31183  MISS:       3276
cpu0_STLB PREFETCH  ACCESS:          0  HIT:          0  MISS:          0
cpu0_STLB WRITEBACK ACCESS:          0  HIT:          0  MISS:          0
cpu0_L1D TOTAL     ACCESS:   12499469  HIT:   11969942  MISS:     529527
cpu0_L1D LOAD      ACCESS:    9742099  HIT:    9298062  MISS:     444037
cpu0_L1D RFO       ACCESS:    2748382  HIT:    2663042  MISS:      85340
cpu0_L1D PREFETCH  ACCESS:          0  HIT:          0  MISS:          0
cpu0_L1D WRITEBACK ACCESS:          0  HIT:          0  MISS:          0
cpu0_L2C TOTAL     ACCESS:     770908  HIT:     254689  MISS:     516219
cpu0_L2C LOAD      ACCESS:     444276  HIT:       5028  MISS:     439248
cpu0_L2C RFO       ACCESS:      85340  HIT:       8431  MISS:      76909
cpu0_L2C PREFETCH  ACCESS:          0  HIT:          0  MISS:          0
cpu0_L2C WRITEBACK ACCESS:     241142  HIT:     241120  MISS:         22
LLC TOTAL     ACCESS:     747382  HIT:         82  MISS:     747300
LLC LOAD      ACCESS:     439248  HIT:          3  MISS:     439245
LLC RFO       ACCESS:      76909  HIT:         79  MISS:      76830
LLC PREFETCH  ACCESS:          0  HIT:          0  MISS:          0
LLC WRITEBACK ACCESS:     231185  HIT:          0  MISS:     231185
Heartbeat CPU 0 instructions: 106000003 cycles: 72282611 heartbeat IPC: 0.798437 cumulative IPC: 0.966161 (Simulation time: 1 hr 18 min 26 sec) 

Region of Interest Statistics
cpu0_DTLB TOTAL     ACCESS:   12814556  HIT:   12772281  MISS:      42275
cpu0_DTLB LOAD      ACCESS:   11243231  HIT:   11235539  MISS:       7692
cpu0_DTLB RFO       ACCESS:    1571325  HIT:    1536742  MISS:      34583
cpu0_DTLB PREFETCH  ACCESS:          0  HIT:          0  MISS:          0
cpu0_DTLB WRITEBACK ACCESS:          0  HIT:          0  MISS:          0
cpu0_ITLB TOTAL     ACCESS:     478172  HIT:     478164  MISS:          8
cpu0_ITLB LOAD      ACCESS:     478172  HIT:     478164  MISS:          8
cpu0_ITLB RFO       ACCESS:          0  HIT:          0  MISS:          0
cpu0_ITLB PREFETCH  ACCESS:          0  HIT:          0  MISS:          0
cpu0_ITLB WRITEBACK ACCESS:          0  HIT:          0  MISS:          0
cpu0_L1I TOTAL     ACCESS:       7245  HIT:       7006  MISS:        239
cpu0_L1I LOAD      ACCESS:       7245  HIT:       7006  MISS:        239
cpu0_L1I RFO       ACCESS:          0  HIT:          0  MISS:          0
cpu0_L1I PREFETCH  ACCESS:          0  HIT:          0  MISS:          0
cpu0_L1I WRITEBACK ACCESS:          0  HIT:          0  MISS:          0
cpu0_STLB TOTAL     ACCESS:      42283  HIT:      31541  MISS:      10742
cpu0_STLB LOAD      ACCESS:       7700  HIT:        358  MISS:       7342
cpu0_STLB RFO       ACCESS:      34583  HIT:      31183  MISS:       3400
cpu0_STLB PREFETCH  ACCESS:          0  HIT:          0  MISS:          0
cpu0_STLB WRITEBACK ACCESS:          0  HIT:          0  MISS:          0
cpu0_L1D TOTAL     ACCESS:   12808284  HIT:   12254841  MISS:     553443
cpu0_L1D LOAD      ACCESS:    9907816  HIT:    9447507  MISS:     460309
cpu0_L1D RFO       ACCESS:    2891096  HIT:    2798123  MISS:      92973
cpu0_L1D PREFETCH  ACCESS:          0  HIT:          0  MISS:          0
cpu0_L1D WRITEBACK ACCESS:          0  HIT:          0  MISS:          0
cpu0_L2C TOTAL     ACCESS:     810157  HIT:     270183  MISS:     539974
cpu0_L2C LOAD      ACCESS:     460548  HIT:       5180  MISS:     455368
cpu0_L2C RFO       ACCESS:      92973  HIT:       8431  MISS:      84542
cpu0_L2C PREFETCH  ACCESS:          0  HIT:          0  MISS:          0
cpu0_L2C WRITEBACK ACCESS:     256475  HIT:     256453  MISS:         22
LLC TOTAL     ACCESS:     786442  HIT:         82  MISS:     786360
[...]
cpu0_DTLB LOAD      ACCESS:  331445253  HIT:  330930074  MISS:     515179
cpu0_DTLB RFO       ACCESS:   49721687  HIT:   49630613  MISS:      91074
cpu0_DTLB PREFETCH  ACCESS:          0  HIT:          0  MISS:          0
cpu0_DTLB WRITEBACK ACCESS:          0  HIT:          0  MISS:          0
cpu0_ITLB TOTAL     ACCESS:   22618293  HIT:   22618227  MISS:         66
cpu0_ITLB LOAD      ACCESS:   22618293  HIT:   22618227  MISS:         66
cpu0_ITLB RFO       ACCESS:          0  HIT:          0  MISS:          0
cpu0_ITLB PREFETCH  ACCESS:          0  HIT:          0  MISS:          0
cpu0_ITLB WRITEBACK ACCESS:          0  HIT:          0  MISS:          0
cpu0_L1I TOTAL     ACCESS:    2825400  HIT:    2820773  MISS:       4627
cpu0_L1I LOAD      ACCESS:    2825400  HIT:    2820773  MISS:       4627
cpu0_L1I RFO       ACCESS:          0  HIT:          0  MISS:          0
cpu0_L1I PREFETCH  ACCESS:          0  HIT:          0  MISS:          0
cpu0_L1I WRITEBACK ACCESS:          0  HIT:          0  MISS:          0
cpu0_STLB TOTAL     ACCESS:     606319  HIT:     424172  MISS:     182147
cpu0_STLB LOAD      ACCESS:     515245  HIT:     352873  MISS:     162372
cpu0_STLB RFO       ACCESS:      91074  HIT:      71299  MISS:      19775
cpu0_STLB PREFETCH  ACCESS:          0  HIT:          0  MISS:          0
cpu0_STLB WRITEBACK ACCESS:          0  HIT:          0  MISS:          0
cpu0_L1D TOTAL     ACCESS:  357432652  HIT:  341814612  MISS:   15618040
cpu0_L1D LOAD      ACCESS:  269924509  HIT:  256520504  MISS:   13404005
cpu0_L1D RFO       ACCESS:   87338363  HIT:   85145664  MISS:    2192699
cpu0_L1D PREFETCH  ACCESS:          0  HIT:          0  MISS:          0
cpu0_L1D WRITEBACK ACCESS:          0  HIT:          0  MISS:          0
cpu0_L2C TOTAL     ACCESS:   20715016  HIT:   10092097  MISS:   10622919
cpu0_L2C LOAD      ACCESS:   13408441  HIT:    3937842  MISS:    9470599
cpu0_L2C RFO       ACCESS:    2192677  HIT:    1043983  MISS:    1148694
cpu0_L2C PREFETCH  ACCESS:          0  HIT:          0  MISS:          0
cpu0_L2C WRITEBACK ACCESS:    5092562  HIT:    5090554  MISS:       2008
LLC TOTAL     ACCESS:   14046255  HIT:      15053  MISS:   14031202
LLC LOAD      ACCESS:    9470590  HIT:       7910  MISS:    9462680
LLC RFO       ACCESS:    1148694  HIT:       7143  MISS:    1141551
LLC PREFETCH  ACCESS:          0  HIT:          0  MISS:          0
LLC WRITEBACK ACCESS:    3425353  HIT:          0  MISS:    3425353
Heartbeat CPU 0 instructions: 1550000004 cycles: 1290595719 heartbeat IPC: 1.82647 cumulative IPC: 1.1753 (Simulation time: 15 hr 38 min 44 sec) 

Region of Interest Statistics
cpu0_DTLB TOTAL     ACCESS:  381624830  HIT:  381018441  MISS:     606389
cpu0_DTLB LOAD      ACCESS:  331863752  HIT:  331348443  MISS:     515309
cpu0_DTLB RFO       ACCESS:   49761078  HIT:   49669998  MISS:      91080
cpu0_DTLB PREFETCH  ACCESS:          0  HIT:          0  MISS:          0
cpu0_DTLB WRITEBACK ACCESS:          0  HIT:          0  MISS:          0
cpu0_ITLB TOTAL     ACCESS:   22637941  HIT:   22637875  MISS:         66
cpu0_ITLB LOAD      ACCESS:   22637941  HIT:   22637875  MISS:         66
cpu0_ITLB RFO       ACCESS:          0  HIT:          0  MISS:          0
cpu0_ITLB PREFETCH  ACCESS:          0  HIT:          0  MISS:          0
cpu0_ITLB WRITEBACK ACCESS:          0  HIT:          0  MISS:          0
cpu0_L1I TOTAL     ACCESS:    2826297  HIT:    2821670  MISS:       4627
cpu0_L1I LOAD      ACCESS:    2826297  HIT:    2821670  MISS:       4627
cpu0_L1I RFO       ACCESS:          0  HIT:          0  MISS:          0
cpu0_L1I PREFETCH  ACCESS:          0  HIT:          0  MISS:          0
cpu0_L1I WRITEBACK ACCESS:          0  HIT:          0  MISS:          0
cpu0_STLB TOTAL     ACCESS:     606455  HIT:     424263  MISS:     182192
cpu0_STLB LOAD      ACCESS:     515375  HIT:     352958  MISS:     162417
cpu0_STLB RFO       ACCESS:      91080  HIT:      71305  MISS:      19775
cpu0_STLB PREFETCH  ACCESS:          0  HIT:          0  MISS:          0
cpu0_STLB WRITEBACK ACCESS:          0  HIT:          0  MISS:          0
cpu0_L1D TOTAL     ACCESS:  357770507  HIT:  342145394  MISS:   15625113
cpu0_L1D LOAD      ACCESS:  270194610  HIT:  256783618  MISS:   13410992
cpu0_L1D RFO       ACCESS:   87406072  HIT:   85213291  MISS:    2192781
cpu0_L1D PREFETCH  ACCESS:          0  HIT:          0  MISS:          0
cpu0_L1D WRITEBACK ACCESS:          0  HIT:          0  MISS:          0
cpu0_L2C TOTAL     ACCESS:   20724600  HIT:   10094910  MISS:   10629690
cpu0_L2C LOAD      ACCESS:   13415428  HIT:    3938077  MISS:    9477351
cpu0_L2C RFO       ACCESS:    2192759  HIT:    1044065  MISS:    1148694
cpu0_L2C PREFETCH  ACCESS:          0  HIT:          0  MISS:          0
cpu0_L2C WRITEBACK ACCESS:    5095073  HIT:    5093046  MISS:       2027
LLC TOTAL     ACCESS:   14055151  HIT:      15053  MISS:   14040098
LLC LOAD      ACCESS:    9477342  HIT:       7910  MISS:    9469432
LLC RFO       ACCESS:    1148694  HIT:       7143  MISS:    1141551
LLC PREFETCH  ACCESS:          0  HIT:          0  MISS:          0
LLC WRITEBACK ACCESS:    3427497  HIT:          0  MISS:    3427497
Finished CPU 0 instructions: 1500000001 cycles: 1276274450 cumulative IPC: 1.1753 (Simulation time: 15 hr 38 min 44 sec) 

ChampSim completed all CPUs

Region of Interest Statistics

CPU 0 cumulative IPC: 1.1753 instructions: 1500000001 cycles: 1276274450
cpu0_DTLB TOTAL     ACCESS:  381624830  HIT:  381018441  MISS:     606389
cpu0_DTLB LOAD      ACCESS:  331863752  HIT:  331348443  MISS:     515309
cpu0_DTLB RFO       ACCESS:   49761078  HIT:   49669998  MISS:      91080
cpu0_DTLB PREFETCH  ACCESS:          0  HIT:          0  MISS:          0
cpu0_DTLB WRITEBACK ACCESS:          0  HIT:          0  MISS:          0
cpu0_DTLB TRANSLATION ACCESS:          0  HIT:          0  MISS:          0
cpu0_DTLB PREFETCH  REQUESTED:          0  ISSUED:          0  USEFUL:          0  USELESS:          0
cpu0_DTLB AVERAGE MISS LATENCY: 44.9995 cycles
cpu0_ITLB TOTAL     ACCESS:   22637941  HIT:   22637875  MISS:         66
cpu0_ITLB LOAD      ACCESS:   22637941  HIT:   22637875  MISS:         66
cpu0_ITLB RFO       ACCESS:          0  HIT:          0  MISS:          0
cpu0_ITLB PREFETCH  ACCESS:          0  HIT:          0  MISS:          0
cpu0_ITLB WRITEBACK ACCESS:          0  HIT:          0  MISS:          0
cpu0_ITLB TRANSLATION ACCESS:          0  HIT:          0  MISS:          0
cpu0_ITLB PREFETCH  REQUESTED:          0  ISSUED:          0  USEFUL:          0  USELESS:          0
cpu0_ITLB AVERAGE MISS LATENCY: 317.788 cycles
cpu0_L1I TOTAL     ACCESS:    2826297  HIT:    2821670  MISS:       4627
cpu0_L1I LOAD      ACCESS:    2826297  HIT:    2821670  MISS:       4627
cpu0_L1I RFO       ACCESS:          0  HIT:          0  MISS:          0
cpu0_L1I PREFETCH  ACCESS:          0  HIT:          0  MISS:          0
cpu0_L1I WRITEBACK ACCESS:          0  HIT:          0  MISS:          0
cpu0_L1I TRANSLATION ACCESS:          0  HIT:          0  MISS:          0
cpu0_L1I PREFETCH  REQUESTED:          0  ISSUED:          0  USEFUL:          0  USELESS:          0
cpu0_L1I AVERAGE MISS LATENCY: 439.111 cycles
cpu0_STLB TOTAL     ACCESS:     606455  HIT:     424263  MISS:     182192
cpu0_STLB LOAD      ACCESS:     515375  HIT:     352958  MISS:     162417
cpu0_STLB RFO       ACCESS:      91080  HIT:      71305  MISS:      19775
cpu0_STLB PREFETCH  ACCESS:          0  HIT:          0  MISS:          0
cpu0_STLB WRITEBACK ACCESS:          0  HIT:          0  MISS:          0
cpu0_STLB TRANSLATION ACCESS:          0  HIT:          0  MISS:          0
cpu0_STLB PREFETCH  REQUESTED:          0  ISSUED:          0  USEFUL:          0  USELESS:          0
cpu0_STLB AVERAGE MISS LATENCY: 119.682 cycles
cpu0_L1D TOTAL     ACCESS:  357770507  HIT:  342145394  MISS:   15625113
cpu0_L1D LOAD      ACCESS:  270194610  HIT:  256783618  MISS:   13410992
cpu0_L1D RFO       ACCESS:   87406072  HIT:   85213291  MISS:    2192781
cpu0_L1D PREFETCH  ACCESS:          0  HIT:          0  MISS:          0
cpu0_L1D WRITEBACK ACCESS:          0  HIT:          0  MISS:          0
cpu0_L1D TRANSLATION ACCESS:     169825  HIT:     148485  MISS:      21340
cpu0_L1D PREFETCH  REQUESTED:          0  ISSUED:          0  USEFUL:          0  USELESS:          0
cpu0_L1D AVERAGE MISS LATENCY: 207.266 cycles
cpu0_L2C TOTAL     ACCESS:   20724600  HIT:   10094910  MISS:   10629690
cpu0_L2C LOAD      ACCESS:   13415428  HIT:    3938077  MISS:    9477351
cpu0_L2C RFO       ACCESS:    2192759  HIT:    1044065  MISS:    1148694
cpu0_L2C PREFETCH  ACCESS:          0  HIT:          0  MISS:          0
cpu0_L2C WRITEBACK ACCESS:    5095073  HIT:    5093046  MISS:       2027
cpu0_L2C TRANSLATION ACCESS:      21340  HIT:      19722  MISS:       1618
cpu0_L2C PREFETCH  REQUESTED:          0  ISSUED:          0  USEFUL:          0  USELESS:          0
cpu0_L2C AVERAGE MISS LATENCY: 288.663 cycles
LLC TOTAL     ACCESS:   14055151  HIT:      15053  MISS:   14040098
LLC LOAD      ACCESS:    9477342  HIT:       7910  MISS:    9469432
LLC RFO       ACCESS:    1148694  HIT:       7143  MISS:    1141551
LLC PREFETCH  ACCESS:          0  HIT:          0  MISS:          0
LLC WRITEBACK ACCESS:    3427497  HIT:          0  MISS:    3427497
LLC TRANSLATION ACCESS:       1618  HIT:          0  MISS:       1618
LLC PREFETCH  REQUESTED:          0  ISSUED:          0  USEFUL:          0  USELESS:          0
LLC AVERAGE MISS LATENCY: 202.649 cycles
~~~~~~~~~~Reuse Distance Profiler output~~~~~~~~~~
0	0	0
1	0	0
2	0	0
3	0	0
4	0	0
5	0	0
6	0	0
7	0	0
8	0	0
9	0	0
10	0	0
11	0	0
12	0	0
13	0	0
14	0	0
15	0	0
16	0	0
17	0	0
18	0	0
19	0	0
20	0	0
21	0	0
22	0	0
23	0	0
24	0	0
25	0	0
26	0	0
27	0	0
28	0	0
29	0	0
30	0	0
31	0	0
32	0	0
33	0	0
34	0	0
35	0	0
36	0	0
37	0	0
38	0	0
39	0	0
40	0	0
41	0	0
42	0	0
43	0	0
44	0	0
45	0	0
46	0	0
47	0	0
48	0	0
49	0	0
50	0	0
51	0	0
52	0	0
53	0	0
54	0	0
55	0	0
56	0	0
57	0	0
58	0	0
59	0	0
60	0	0
61	0	0
62	0	0
63	0	0
64	0	0
66	0	0
68	0	0
70	0	0
72	0	0
74	0	0
76	0	0
78	0	0
80	0	0
82	0	0
84	0	0
86	0	0
88	0	0
90	0	0
92	0	0
94	0	0
96	0	0
98	0	0
100	0	0
102	0	0
104	0	0
106	0	0
108	0	0
110	0	0
112	0	0
114	0	0
116	0	0
118	0	0
120	0	0
122	0	0
124	0	0
126	0	0
128	0	0
132	0	0
136	0	0
140	0	0
144	0	0
148	0	0
152	0	0
156	0	0
160	0	0
164	0	0
168	0	0
172	0	0
176	0	0
180	0	0
184	0	0
188	0	0
192	0	0
196	0	0
200	0	0
204	0	0
208	0	0
212	0	0
216	0	0
220	0	0
224	0	0
228	0	0
232	0	0
236	0	0
240	0	0
244	0	0
248	0	0
252	0	0
256	0	0
264	0	0
272	0	0
280	0	0
288	0	0
296	0	0
304	0	0
312	0	0
320	0	0
328	0	0
336	0	0
344	0	0
352	0	0
360	0	0
368	0	0
376	0	0
384	0	0
392	0	0
400	0	0
408	0	0
416	0	0
424	0	0
432	0	0
440	0	0
448	0	0
456	0	0
464	0	0
472	0	0
480	0	0
488	0	0
496	0	0
504	0	0
512	0	0
528	0	0
544	0	0
560	0	0
576	0	0
592	0	0
608	0	0
624	0	0
640	0	0
656	0	0
672	0	0
688	0	0
704	0	0
720	0	0
736	0	0
752	0	0
768	0	0
784	0	0
800	0	0
816	0	0
832	0	0
848	0	0
864	0	0
880	0	0
896	0	0
912	0	0
928	0	0
944	0	0
960	0	0
976	0	0
992	0	0
1008	0	0
1024	0	0
1056	0	0
1088	0	0
1120	0	0
1152	0	0
1184	0	0
1216	0	0
1248	0	0
1280	0	0
1312	0	0
1344	0	0
1376	0	0
1408	0	0
1440	0	0
1472	0	0
1504	0	0
1536	0	0
1568	0	0
1600	0	0
1632	0	0
1664	0	0
1696	0	0
1728	0	0
1760	0	0
1792	0	0
1824	0	0
1856	0	0
1888	0	0
1920	0	0
1952	0	0
1984	0	0
2016	0	0
2048	0	0
2112	0	0
2176	0	0
2240	0	0
2304	0	0
2368	0	0
2432	0	0
2496	0	0
2560	0	0
2624	0	0
2688	0	0
2752	0	0
2816	0	0
2880	0	0
2944	0	0
3008	0	0
3072	0	0
3136	0	0
3200	0	0
3264	0	0
3328	0	0
3392	0	0
3456	0	0
3520	0	0
3584	0	0
3648	0	0
3712	0	0
3776	0	0
3840	0	0
3904	0	0
3968	0	0
4032	0	0
4096	0	0
4224	0	0
4352	0	0
4480	0	0
4608	0	0
4736	0	0
4864	0	0
4992	0	0
5120	0	0
5248	0	0
5376	0	0
5504	0	0
5632	0	0
5760	0	0
5888	0	0
6016	0	0
6144	0	0
6272	0	0
6400	0	0
6528	0	0
6656	0	0
6784	0	0
6912	0	0
7040	0	0
7168	0	0
7296	0	0
7424	0	0
7552	0	0
7680	0	0
7808	0	0
7936	0	0
8064	0	0
8192	0	0
8448	0	0
8704	0	0
8960	0	0
9216	0	0
9472	0	0
9728	0	0
9984	0	0
10240	0	0
10496	0	0
10752	0	0
11008	0	0
11264	0	0
11520	0	0
11776	0	0
12032	0	0
12288	0	0
12544	0	0
12800	0	0
13056	0	0
13312	0	0
13568	0	0
13824	0	0
14080	0	0
14336	0	0
14592	0	0
14848	0	0
15104	0	0
15360	0	0
15616	0	0
15872	0	0
16128	0	0
16384	0	0
16896	0	0
17408	0	0
17920	0	0
18432	0	0
18944	0	0
19456	0	0
19968	0	0
20480	0	0
20992	0	0
21504	0	0
22016	0	0
22528	0	0
23040	0	0
23552	0	0
24064	0	0
24576	0	0
25088	0	0
25600	0	0
26112	0	0
26624	0	0
27136	0	0
27648	0	0
28160	0	0
28672	0	0
29184	0	0
29696	0	0
30208	0	0
30720	0	0
31232	0	0
31744	0	0
32256	0	0
32768	0	0
33792	0	0
34816	0	0
35840	0	0
36864	0	0
37888	0	0
38912	0	0
39936	0	0
40960	0	0
41984	0	0
43008	0	0
44032	0	0
45056	0	0
46080	0	0
47104	0	0
48128	0	0
49152	0	0
50176	0	0
51200	0	0
52224	0	0
53248	0	0
54272	0	0
55296	0	0
56320	0	0
57344	0	0
58368	0	0
59392	0	0
60416	0	0
61440	0	0
62464	0	0
63488	0	0
64512	0	0
65536	0	0
67584	0	0
69632	0	0
71680	0	0
73728	0	0
75776	0	0
77824	0	0
79872	0	0
81920	0	0
83968	0	0
86016	0	0
88064	0	0
90112	0	0
92160	0	0
94208	0	0
96256	0	0
98304	0	0
100352	0	0
102400	0	0
104448	0	0
106496	0	0
108544	0	0
110592	0	0
112640	0	0
114688	0	0
116736	0	0
118784	0	0
120832	0	0
122880	0	0
124928	0	0
126976	0	0
129024	0	0
131072	0	0
135168	0	0
139264	0	0
143360	0	0
147456	0	0
151552	0	0
155648	0	0
159744	0	0
163840	0	0
167936	0	0
172032	0	0
176128	0	0
180224	0	0
184320	0	0
188416	0	0
192512	0	0
196608	0	0
200704	0	0
204800	0	0
208896	0	0
212992	0	0
217088	0	0
221184	0	0
225280	0	0
229376	0	0
233472	0	0
237568	0	0
241664	0	0
245760	0	0
249856	0	0
253952	0	0
258048	0	0
262144	0	0
270336	0	0
278528	0	0
286720	0	0
294912	0	0
303104	0	0
311296	0	0
319488	0	0
327680	0	0
335872	0	0
344064	0	0
352256	0	0
360448	0	0
368640	0	0
376832	0	0
385024	0	0
393216	0	0
401408	0	0
409600	0	0
417792	0	0
425984	0	0
434176	0	0
442368	0	0
450560	0	0
458752	0	0
466944	0	0
475136	0	0
483328	0	0
491520	0	0
499712	0	0
507904	0	0
516096	0	0
524288	0	0
540672	0	0
557056	0	0
573440	0	0
589824	0	0
606208	0	0
622592	0	0
638976	0	0
655360	0	0
671744	0	0
688128	0	0
704512	0	0
720896	0	0
737280	0	0
753664	0	0
770048	0	0
786432	0	0
802816	0	0
819200	0	0
835584	0	0
851968	0	0
868352	0	0
884736	0	0
901120	0	0
917504	0	0
933888	0	0
950272	0	0
966656	0	0
983040	0	0
999424	0	0
1015808	0	0
1032192	0	0
1048576	0	0
1081344	0	0
1114112	0	0
1146880	0	0
1179648	0	0
1212416	0	0
1245184	0	0
1277952	0	0
1310720	0	0
1343488	0	0
1376256	0	0
1409024	0	0
1441792	0	0
1474560	0	0
1507328	0	0
1540096	0	0
1572864	0	0
1605632	0	0
1638400	0	0
1671168	0	0
1703936	0	0
1736704	0	0
1769472	0	0
1802240	0	0
1835008	0	0
1867776	0	0
1900544	0	0
1933312	0	0
1966080	0	0
1998848	0	0
2031616	0	0
2064384	0	0
2097152	0	0
2162688	0	0
2228224	0	0
2293760	0	0
2359296	0	0
2424832	0	0
2490368	0	0
2555904	0	0
2621440	0	0
2686976	0	0
2752512	0	0
2818048	0	0
2883584	0	0
2949120	0	0
3014656	0	0
3080192	0	0
3145728	0	0
3211264	0	0
3276800	0	0
3342336	0	0
3407872	0	0
3473408	0	0
3538944	0	0
3604480	0	0
3670016	0	0
3735552	0	0
3801088	0	0
3866624	0	0
3932160	0	0
3997696	0	0
4063232	0	0
4128768	0	0
4194304	0	0
4325376	0	0
4456448	0	0
4587520	0	0
4718592	0	0
4849664	0	0
4980736	0	0
5111808	0	0
5242880	0	0
5373952	0	0
5505024	0	0
5636096	0	0
5767168	0	0
5898240	0	0
6029312	0	0
6160384	0	0
6291456	0	0
6422528	0	0
6553600	0	0
6684672	0	0
6815744	0	0
6946816	0	0
7077888	0	0
7208960	0	0
7340032	0	0
7471104	0	0
7602176	0	0
7733248	0	0
7864320	0	0
7995392	0	0
8126464	0	0
8257536	0	0
8388608	0	0
8650752	0	0
8912896	0	0
9175040	0	0
9437184	0	0
9699328	0	0
9961472	0	0
10223616	0	0
10485760	0	0
10747904	0	0
11010048	0	0
11272192	0	0
11534336	0	0
11796480	0	0
12058624	0	0
12320768	0	0
12582912	0	0
12845056	0	0
13107200	0	0
13369344	0	0
13631488	0	0
13893632	0	0
14155776	0	0
14417920	0	0
14680064	0	0
14942208	0	0
15204352	0	0
15466496	0	0
15728640	0	0
15990784	0	0
16252928	0	0
16515072	0	0
16777216	0	0
17301504	0	0
17825792	0	0
18350080	0	0
18874368	0	0
19398656	0	0
19922944	0	0
20447232	0	0
20971520	0	0
21495808	0	0
22020096	0	0
22544384	0	0
23068672	0	0
23592960	0	0
24117248	0	0
24641536	0	0
25165824	0	0
25690112	0	0
26214400	0	0
26738688	0	0
27262976	0	0
27787264	0	0
28311552	0	0
28835840	0	0
29360128	0	0
29884416	0	0
30408704	0	0
30932992	0	0
31457280	0	0
31981568	0	0
32505856	0	0
33030144	0	0
33554432	0	0
34603008	0	0
35651584	0	0
36700160	0	0
37748736	0	0
38797312	0	0
39845888	0	0
40894464	0	0
41943040	0	0
42991616	0	0
44040192	0	0
45088768	0	0
46137344	0	0
47185920	0	0
48234496	0	0
49283072	0	0
50331648	0	0
51380224	0	0
52428800	0	0
53477376	0	0
54525952	0	0
55574528	0	0
56623104	0	0
57671680	0	0
58720256	0	0
59768832	0	0
60817408	0	0
61865984	0	0
62914560	0	0
63963136	0	0
65011712	0	0
66060288	0	0
67108864	0	0
69206016	0	0
71303168	0	0
73400320	0	0
75497472	0	0
77594624	0	0
79691776	0	0
81788928	0	0
83886080	0	0
85983232	0	0
88080384	0	0
90177536	0	0
92274688	0	0
94371840	0	0
96468992	0	0
98566144	0	0
100663296	0	0
102760448	0	0
104857600	0	0
106954752	0	0
109051904	0	0
111149056	0	0
113246208	0	0
115343360	0	0
117440512	0	0
119537664	0	0
121634816	0	0
123731968	0	0
125829120	0	0
127926272	0	0
130023424	0	0
132120576	0	0
134217728	0	0
138412032	0	0
142606336	0	0
146800640	0	0
150994944	0	0
155189248	0	0
159383552	0	0
163577856	0	0
167772160	0	0
171966464	0	0
176160768	0	0
180355072	0	0
184549376	0	0
188743680	0	0
192937984	0	0
197132288	0	0
201326592	0	0
205520896	0	0
209715200	0	0
213909504	0	0
218103808	0	0
222298112	0	0
226492416	0	0
230686720	0	0
234881024	0	0
239075328	0	0
243269632	0	0
247463936	0	0
251658240	0	0
255852544	0	0
260046848	0	0
264241152	0	0
268435456	0	0
276824064	0	0
285212672	0	0
293601280	0	0
301989888	0	0
310378496	0	0
318767104	0	0
327155712	0	0
335544320	0	0
343932928	0	0
352321536	0	0
360710144	0	0
369098752	0	0
377487360	0	0
385875968	0	0
394264576	0	0
402653184	0	0
411041792	0	0
419430400	0	0
427819008	0	0
436207616	0	0
444596224	0	0
452984832	0	0
461373440	0	0
469762048	0	0
478150656	0	0
486539264	0	0
494927872	0	0
503316480	0	0
511705088	0	0
520093696	0	0
528482304	0	0
536870912	0	0
553648128	0	0
570425344	0	0
587202560	0	0
603979776	0	0
620756992	0	0
637534208	0	0
654311424	0	0
671088640	0	0
687865856	0	0
704643072	0	0
721420288	0	0
738197504	0	0
754974720	0	0
771751936	0	0
788529152	0	0
805306368	0	0
822083584	0	0
838860800	0	0
855638016	0	0
872415232	0	0
889192448	0	0
905969664	0	0
922746880	0	0
939524096	0	0
956301312	0	0
973078528	0	0
989855744	0	0
1006632960	0	0
1023410176	0	0
1040187392	0	0
1056964608	0	0
1073741824	0	0
1107296256	0	0
1140850688	0	0
1174405120	0	0
1207959552	0	0
1241513984	0	0
1275068416	0	0
1308622848	0	0
1342177280	0	0
1375731712	0	0
1409286144	0	0
1442840576	0	0
1476395008	0	0
1509949440	0	0
1543503872	0	0
1577058304	0	0
1610612736	0	0
1644167168	0	0
1677721600	0	0
1711276032	0	0
1744830464	0	0
1778384896	0	0
1811939328	0	0
1845493760	0	0
1879048192	0	0
1912602624	0	0
1946157056	0	0
1979711488	0	0
2013265920	0	0
2046820352	0	0
2080374784	0	0
2113929216	0	0
2147483648	0	0
2214592512	0	0
2281701376	0	0
2348810240	0	0
2415919104	0	0
2483027968	0	0
2550136832	0	0
2617245696	0	0
2684354560	0	0
2751463424	0	0
2818572288	0	0
2885681152	0	0
2952790016	0	0
3019898880	0	0
3087007744	0	0
3154116608	0	0
3221225472	0	0
3288334336	0	0
3355443200	0	0
3422552064	0	0
3489660928	0	0
3556769792	0	0
3623878656	0	0
3690987520	0	0
3758096384	0	0
3825205248	0	0
3892314112	0	0
3959422976	0	0
4026531840	0	0
4093640704	0	0
4160749568	0	0
4227858432	0	0
~~~~~~~~~~Reuse Distance Profiler output end~~~~~~~~~~


DRAM Statistics
 CHANNEL 0
 RQ ROW_BUFFER_HIT:     548241  ROW_BUFFER_MISS:   10061890
 DBUS AVG_CONGESTED_CYCLE:     3.9524
 WQ ROW_BUFFER_HIT:     470462  ROW_BUFFER_MISS:    2956935  FULL:          0


CPU 0 Branch Prediction Accuracy: 98.4998% MPKI: 0.701472 Average ROB Occupancy at Mispredict: 312.54
Branch type MPKI
BRANCH_DIRECT_JUMP: 0.000124667
BRANCH_INDIRECT: 0
BRANCH_CONDITIONAL: 0.701244
BRANCH_DIRECT_CALL: 5.2e-05
BRANCH_INDIRECT_CALL: 0
BRANCH_RETURN: 5.13333e-05

