
*** ChampSim Multicore Out-of-Order Simulator ***

Warmup Instructions: 50000000
Simulation Instructions: 1500000000
Number of CPUs: 1
Off-chip DRAM Size: 4 GiB Channels: 1 Width: 64-bit Data Rate: 3200 MT/s

VirtualMemory physical capacity: 8588881920 num_ppages: 2096895
VirtualMemory page size: 4096 log2_page_size: 12

CPU 0 runs traces/482.sphinx3-1100B.champsimtrace.xz
CPU 0 Bimodal branch predictor
Basic BTB sets: 1024 ways: 8 indirect buffer size: 4096 RAS size: 64
Initializing LRU.
Initializing LRU.
Initializing LRU.
Initializing LRU.
Initializing rdLRU.
Initializing LRU.
Initializing LRU.
Heartbeat CPU 0 instructions: 2000001 cycles: 504691 heartbeat IPC: 3.96282 cumulative IPC: 3.96282 (Simulation time: 0 hr 0 min 40 sec) 
Heartbeat CPU 0 instructions: 4000003 cycles: 1024520 heartbeat IPC: 3.84742 cumulative IPC: 3.90427 (Simulation time: 0 hr 1 min 23 sec) 
Heartbeat CPU 0 instructions: 6000000 cycles: 1549540 heartbeat IPC: 3.80937 cumulative IPC: 3.87212 (Simulation time: 0 hr 2 min 2 sec) 
Heartbeat CPU 0 instructions: 8000004 cycles: 2058653 heartbeat IPC: 3.92841 cumulative IPC: 3.88604 (Simulation time: 0 hr 2 min 42 sec) 
Heartbeat CPU 0 instructions: 10000000 cycles: 2592009 heartbeat IPC: 3.74983 cumulative IPC: 3.85801 (Simulation time: 0 hr 3 min 30 sec) 
Heartbeat CPU 0 instructions: 12000001 cycles: 3098760 heartbeat IPC: 3.94671 cumulative IPC: 3.87252 (Simulation time: 0 hr 4 min 6 sec) 
Heartbeat CPU 0 instructions: 14000001 cycles: 3612220 heartbeat IPC: 3.89514 cumulative IPC: 3.87573 (Simulation time: 0 hr 4 min 56 sec) 
Heartbeat CPU 0 instructions: 16000001 cycles: 4149229 heartbeat IPC: 3.72433 cumulative IPC: 3.85614 (Simulation time: 0 hr 5 min 51 sec) 
Heartbeat CPU 0 instructions: 18000002 cycles: 4653021 heartbeat IPC: 3.96989 cumulative IPC: 3.86845 (Simulation time: 0 hr 6 min 38 sec) 
Heartbeat CPU 0 instructions: 20000003 cycles: 5169123 heartbeat IPC: 3.8752 cumulative IPC: 3.86913 (Simulation time: 0 hr 7 min 30 sec) 
Heartbeat CPU 0 instructions: 22000000 cycles: 5699137 heartbeat IPC: 3.77348 cumulative IPC: 3.86023 (Simulation time: 0 hr 8 min 15 sec) 
Heartbeat CPU 0 instructions: 24000003 cycles: 6207396 heartbeat IPC: 3.93501 cumulative IPC: 3.86636 (Simulation time: 0 hr 9 min 4 sec) 
Heartbeat CPU 0 instructions: 26000003 cycles: 6726800 heartbeat IPC: 3.85057 cumulative IPC: 3.86514 (Simulation time: 0 hr 9 min 56 sec) 
Heartbeat CPU 0 instructions: 28000003 cycles: 7249281 heartbeat IPC: 3.82789 cumulative IPC: 3.86245 (Simulation time: 0 hr 10 min 41 sec) 
Heartbeat CPU 0 instructions: 30000002 cycles: 7762419 heartbeat IPC: 3.89759 cumulative IPC: 3.86477 (Simulation time: 0 hr 11 min 32 sec) 
Heartbeat CPU 0 instructions: 32000001 cycles: 8284060 heartbeat IPC: 3.83405 cumulative IPC: 3.86284 (Simulation time: 0 hr 12 min 24 sec) 
Heartbeat CPU 0 instructions: 34000000 cycles: 8806686 heartbeat IPC: 3.82683 cumulative IPC: 3.8607 (Simulation time: 0 hr 13 min 10 sec) 
Heartbeat CPU 0 instructions: 36000004 cycles: 9319230 heartbeat IPC: 3.90211 cumulative IPC: 3.86298 (Simulation time: 0 hr 14 min 2 sec) 
Heartbeat CPU 0 instructions: 38000002 cycles: 9842546 heartbeat IPC: 3.82178 cumulative IPC: 3.86079 (Simulation time: 0 hr 14 min 55 sec) 
Heartbeat CPU 0 instructions: 40000001 cycles: 10365182 heartbeat IPC: 3.82675 cumulative IPC: 3.85907 (Simulation time: 0 hr 15 min 42 sec) 
Heartbeat CPU 0 instructions: 42000000 cycles: 10876993 heartbeat IPC: 3.90769 cumulative IPC: 3.86136 (Simulation time: 0 hr 16 min 36 sec) 
Heartbeat CPU 0 instructions: 44000002 cycles: 11400527 heartbeat IPC: 3.82019 cumulative IPC: 3.85947 (Simulation time: 0 hr 17 min 29 sec) 
Heartbeat CPU 0 instructions: 46000000 cycles: 11923139 heartbeat IPC: 3.82693 cumulative IPC: 3.85804 (Simulation time: 0 hr 18 min 14 sec) 
Heartbeat CPU 0 instructions: 48000003 cycles: 12434371 heartbeat IPC: 3.91212 cumulative IPC: 3.86027 (Simulation time: 0 hr 19 min 1 sec) 
Heartbeat CPU 0 instructions: 50000004 cycles: 12963355 heartbeat IPC: 3.78083 cumulative IPC: 3.85703 (Simulation time: 0 hr 19 min 52 sec) 

Warmup complete CPU 0 instructions: 50000004 cycles: 12963355 (Simulation time: 0 hr 19 min 52 sec) 

Heartbeat CPU 0 instructions: 52000001 cycles: 14521890 heartbeat IPC: 1.28325 cumulative IPC: 1.28325 (Simulation time: 0 hr 21 min 12 sec) 

Region of Interest Statistics
cpu0_DTLB TOTAL     ACCESS:     339329  HIT:     338515  MISS:        814
cpu0_DTLB LOAD      ACCESS:     301607  HIT:     300908  MISS:        699
cpu0_DTLB RFO       ACCESS:      37722  HIT:      37607  MISS:        115
cpu0_DTLB PREFETCH  ACCESS:          0  HIT:          0  MISS:          0
cpu0_DTLB WRITEBACK ACCESS:          0  HIT:          0  MISS:          0
cpu0_ITLB TOTAL     ACCESS:     168139  HIT:     168137  MISS:          2
cpu0_ITLB LOAD      ACCESS:     168139  HIT:     168137  MISS:          2
cpu0_ITLB RFO       ACCESS:          0  HIT:          0  MISS:          0
cpu0_ITLB PREFETCH  ACCESS:          0  HIT:          0  MISS:          0
cpu0_ITLB WRITEBACK ACCESS:          0  HIT:          0  MISS:          0
cpu0_L1I TOTAL     ACCESS:       9730  HIT:       9663  MISS:         67
cpu0_L1I LOAD      ACCESS:       9730  HIT:       9663  MISS:         67
cpu0_L1I RFO       ACCESS:          0  HIT:          0  MISS:          0
cpu0_L1I PREFETCH  ACCESS:          0  HIT:          0  MISS:          0
cpu0_L1I WRITEBACK ACCESS:          0  HIT:          0  MISS:          0
cpu0_STLB TOTAL     ACCESS:        816  HIT:        512  MISS:        304
cpu0_STLB LOAD      ACCESS:        701  HIT:        429  MISS:        272
cpu0_STLB RFO       ACCESS:        115  HIT:         83  MISS:         32
cpu0_STLB PREFETCH  ACCESS:          0  HIT:          0  MISS:          0
cpu0_STLB WRITEBACK ACCESS:          0  HIT:          0  MISS:          0
cpu0_L1D TOTAL     ACCESS:     268323  HIT:     244414  MISS:      23909
cpu0_L1D LOAD      ACCESS:     202429  HIT:     181893  MISS:      20536
cpu0_L1D RFO       ACCESS:      65600  HIT:      62239  MISS:       3361
cpu0_L1D PREFETCH  ACCESS:          0  HIT:          0  MISS:          0
cpu0_L1D WRITEBACK ACCESS:          0  HIT:          0  MISS:          0
cpu0_L2C TOTAL     ACCESS:      27829  HIT:       7064  MISS:      20765
cpu0_L2C LOAD      ACCESS:      20603  HIT:       2675  MISS:      17928
cpu0_L2C RFO       ACCESS:       3360  HIT:        529  MISS:       2831
cpu0_L2C PREFETCH  ACCESS:          0  HIT:          0  MISS:          0
cpu0_L2C WRITEBACK ACCESS:       3854  HIT:       3850  MISS:          4
LLC TOTAL     ACCESS:      25795  HIT:      12161  MISS:      13634
LLC LOAD      ACCESS:      17928  HIT:       5954  MISS:      11974
LLC RFO       ACCESS:       2831  HIT:       1172  MISS:       1659
LLC PREFETCH  ACCESS:          0  HIT:          0  MISS:          0
LLC WRITEBACK ACCESS:       5034  HIT:       5033  MISS:          1
Heartbeat CPU 0 instructions: 54000002 cycles: 16540377 heartbeat IPC: 0.990842 cumulative IPC: 1.11825 (Simulation time: 0 hr 22 min 39 sec) 

Region of Interest Statistics
cpu0_DTLB TOTAL     ACCESS:     680632  HIT:     678544  MISS:       2088
cpu0_DTLB LOAD      ACCESS:     627103  HIT:     625163  MISS:       1940
cpu0_DTLB RFO       ACCESS:      53529  HIT:      53381  MISS:        148
cpu0_DTLB PREFETCH  ACCESS:          0  HIT:          0  MISS:          0
cpu0_DTLB WRITEBACK ACCESS:          0  HIT:          0  MISS:          0
cpu0_ITLB TOTAL     ACCESS:     346456  HIT:     346454  MISS:          2
cpu0_ITLB LOAD      ACCESS:     346456  HIT:     346454  MISS:          2
cpu0_ITLB RFO       ACCESS:          0  HIT:          0  MISS:          0
cpu0_ITLB PREFETCH  ACCESS:          0  HIT:          0  MISS:          0
cpu0_ITLB WRITEBACK ACCESS:          0  HIT:          0  MISS:          0
cpu0_L1I TOTAL     ACCESS:       9730  HIT:       9663  MISS:         67
cpu0_L1I LOAD      ACCESS:       9730  HIT:       9663  MISS:         67
cpu0_L1I RFO       ACCESS:          0  HIT:          0  MISS:          0
cpu0_L1I PREFETCH  ACCESS:          0  HIT:          0  MISS:          0
cpu0_L1I WRITEBACK ACCESS:          0  HIT:          0  MISS:          0
cpu0_STLB TOTAL     ACCESS:       2090  HIT:       1144  MISS:        946
cpu0_STLB LOAD      ACCESS:       1942  HIT:       1029  MISS:        913
cpu0_STLB RFO       ACCESS:        148  HIT:        115  MISS:         33
cpu0_STLB PREFETCH  ACCESS:          0  HIT:          0  MISS:          0
cpu0_STLB WRITEBACK ACCESS:          0  HIT:          0  MISS:          0
cpu0_L1D TOTAL     ACCESS:     491266  HIT:     439565  MISS:      51701
cpu0_L1D LOAD      ACCESS:     401326  HIT:     353603  MISS:      47723
cpu0_L1D RFO       ACCESS:      89021  HIT:      85073  MISS:       3948
cpu0_L1D PREFETCH  ACCESS:          0  HIT:          0  MISS:          0
cpu0_L1D WRITEBACK ACCESS:          0  HIT:          0  MISS:          0
cpu0_L2C TOTAL     ACCESS:      56237  HIT:      10227  MISS:      46010
cpu0_L2C LOAD      ACCESS:      47790  HIT:       5209  MISS:      42581
cpu0_L2C RFO       ACCESS:       3947  HIT:        529  MISS:       3418
cpu0_L2C PREFETCH  ACCESS:          0  HIT:          0  MISS:          0
cpu0_L2C WRITEBACK ACCESS:       4470  HIT:       4465  MISS:          5
LLC TOTAL     ACCESS:      51841  HIT:      21585  MISS:      30256
LLC LOAD      ACCESS:      42581  HIT:      14098  MISS:      28483
LLC RFO       ACCESS:       3418  HIT:       1647  MISS:       1771
LLC PREFETCH  ACCESS:          0  HIT:          0  MISS:          0
LLC WRITEBACK ACCESS:       5836  HIT:       5835  MISS:          1
Heartbeat CPU 0 instructions: 56000001 cycles: 18857025 heartbeat IPC: 0.863316 cumulative IPC: 1.01804 (Simulation time: 0 hr 24 min 15 sec) 

Region of Interest Statistics
cpu0_DTLB TOTAL     ACCESS:    1046854  HIT:    1041584  MISS:       5270
cpu0_DTLB LOAD      ACCESS:     972758  HIT:     967733  MISS:       5025
cpu0_DTLB RFO       ACCESS:      74096  HIT:      73851  MISS:        245
cpu0_DTLB PREFETCH  ACCESS:          0  HIT:          0  MISS:          0
cpu0_DTLB WRITEBACK ACCESS:          0  HIT:          0  MISS:          0
cpu0_ITLB TOTAL     ACCESS:     509942  HIT:     509940  MISS:          2
cpu0_ITLB LOAD      ACCESS:     509942  HIT:     509940  MISS:          2
cpu0_ITLB RFO       ACCESS:          0  HIT:          0  MISS:          0
cpu0_ITLB PREFETCH  ACCESS:          0  HIT:          0  MISS:          0
cpu0_ITLB WRITEBACK ACCESS:          0  HIT:          0  MISS:          0
cpu0_L1I TOTAL     ACCESS:       9730  HIT:       9663  MISS:         67
cpu0_L1I LOAD      ACCESS:       9730  HIT:       9663  MISS:         67
cpu0_L1I RFO       ACCESS:          0  HIT:          0  MISS:          0
cpu0_L1I PREFETCH  ACCESS:          0  HIT:          0  MISS:          0
cpu0_L1I WRITEBACK ACCESS:          0  HIT:          0  MISS:          0
cpu0_STLB TOTAL     ACCESS:       5272  HIT:       3334  MISS:       1938
cpu0_STLB LOAD      ACCESS:       5027  HIT:       3130  MISS:       1897
cpu0_STLB RFO       ACCESS:        245  HIT:        204  MISS:         41
cpu0_STLB PREFETCH  ACCESS:          0  HIT:          0  MISS:          0
cpu0_STLB WRITEBACK ACCESS:          0  HIT:          0  MISS:          0
cpu0_L1D TOTAL     ACCESS:     728903  HIT:     648082  MISS:      80821
cpu0_L1D LOAD      ACCESS:     603524  HIT:     527089  MISS:      76435
cpu0_L1D RFO       ACCESS:     123514  HIT:     119186  MISS:       4328
cpu0_L1D PREFETCH  ACCESS:          0  HIT:          0  MISS:          0
cpu0_L1D WRITEBACK ACCESS:          0  HIT:          0  MISS:          0
cpu0_L2C TOTAL     ACCESS:      85722  HIT:      16520  MISS:      69202
cpu0_L2C LOAD      ACCESS:      76502  HIT:      11110  MISS:      65392
cpu0_L2C RFO       ACCESS:       4327  HIT:        529  MISS:       3798
cpu0_L2C PREFETCH  ACCESS:          0  HIT:          0  MISS:          0
cpu0_L2C WRITEBACK ACCESS:       4835  HIT:       4830  MISS:          5
LLC TOTAL     ACCESS:      75399  HIT:      29611  MISS:      45788
LLC LOAD      ACCESS:      65392  HIT:      21551  MISS:      43841
LLC RFO       ACCESS:       3798  HIT:       1853  MISS:       1945
LLC PREFETCH  ACCESS:          0  HIT:          0  MISS:          0
LLC WRITEBACK ACCESS:       6202  HIT:       6201  MISS:          1
Heartbeat CPU 0 instructions: 58000002 cycles: 20750607 heartbeat IPC: 1.0562 cumulative IPC: 1.02732 (Simulation time: 0 hr 25 min 40 sec) 

Region of Interest Statistics
cpu0_DTLB TOTAL     ACCESS:    1395284  HIT:    1387666  MISS:       7618
cpu0_DTLB LOAD      ACCESS:    1298287  HIT:    1291180  MISS:       7107
cpu0_DTLB RFO       ACCESS:      96997  HIT:      96486  MISS:        511
cpu0_DTLB PREFETCH  ACCESS:          0  HIT:          0  MISS:          0
cpu0_DTLB WRITEBACK ACCESS:          0  HIT:          0  MISS:          0
cpu0_ITLB TOTAL     ACCESS:     688565  HIT:     688563  MISS:          2
cpu0_ITLB LOAD      ACCESS:     688565  HIT:     688563  MISS:          2
cpu0_ITLB RFO       ACCESS:          0  HIT:          0  MISS:          0
cpu0_ITLB PREFETCH  ACCESS:          0  HIT:          0  MISS:          0
cpu0_ITLB WRITEBACK ACCESS:          0  HIT:          0  MISS:          0
cpu0_L1I TOTAL     ACCESS:      12983  HIT:      12911  MISS:         72
cpu0_L1I LOAD      ACCESS:      12983  HIT:      12911  MISS:         72
cpu0_L1I RFO       ACCESS:          0  HIT:          0  MISS:          0
cpu0_L1I PREFETCH  ACCESS:          0  HIT:          0  MISS:          0
cpu0_L1I WRITEBACK ACCESS:          0  HIT:          0  MISS:          0
cpu0_STLB TOTAL     ACCESS:       7620  HIT:       4947  MISS:       2673
cpu0_STLB LOAD      ACCESS:       7109  HIT:       4526  MISS:       2583
cpu0_STLB RFO       ACCESS:        511  HIT:        421  MISS:         90
cpu0_STLB PREFETCH  ACCESS:          0  HIT:          0  MISS:          0
cpu0_STLB WRITEBACK ACCESS:          0  HIT:          0  MISS:          0
cpu0_L1D TOTAL     ACCESS:     960501  HIT:     847956  MISS:     112545
cpu0_L1D LOAD      ACCESS:     804893  HIT:     700116  MISS:     104777
cpu0_L1D RFO       ACCESS:     153023  HIT:     145330  MISS:       7693
cpu0_L1D PREFETCH  ACCESS:          0  HIT:          0  MISS:          0
cpu0_L1D WRITEBACK ACCESS:          0  HIT:          0  MISS:          0
cpu0_L2C TOTAL     ACCESS:     123289  HIT:      28055  MISS:      95234
cpu0_L2C LOAD      ACCESS:     104849  HIT:      16417  MISS:      88432
cpu0_L2C RFO       ACCESS:       7691  HIT:        919  MISS:       6772
cpu0_L2C PREFETCH  ACCESS:          0  HIT:          0  MISS:          0
cpu0_L2C WRITEBACK ACCESS:      10674  HIT:      10656  MISS:         18
LLC TOTAL     ACCESS:     105967  HIT:      43617  MISS:      62350
LLC LOAD      ACCESS:      88432  HIT:      29781  MISS:      58651
LLC RFO       ACCESS:       6772  HIT:       3076  MISS:       3696
LLC PREFETCH  ACCESS:          0  HIT:          0  MISS:          0
LLC WRITEBACK ACCESS:      10751  HIT:      10750  MISS:          1
Heartbeat CPU 0 instructions: 60000001 cycles: 22713062 heartbeat IPC: 1.01913 cumulative IPC: 1.02567 (Simulation time: 0 hr 27 min 2 sec) 

Region of Interest Statistics
cpu0_DTLB TOTAL     ACCESS:    1733489  HIT:    1724637  MISS:       8852
cpu0_DTLB LOAD      ACCESS:    1621171  HIT:    1612855  MISS:       8316
cpu0_DTLB RFO       ACCESS:     112318  HIT:     111782  MISS:        536
cpu0_DTLB PREFETCH  ACCESS:          0  HIT:          0  MISS:          0
cpu0_DTLB WRITEBACK ACCESS:          0  HIT:          0  MISS:          0
cpu0_ITLB TOTAL     ACCESS:     868063  HIT:     868061  MISS:          2
cpu0_ITLB LOAD      ACCESS:     868063  HIT:     868061  MISS:          2
cpu0_ITLB RFO       ACCESS:          0  HIT:          0  MISS:          0
cpu0_ITLB PREFETCH  ACCESS:          0  HIT:          0  MISS:          0
cpu0_ITLB WRITEBACK ACCESS:          0  HIT:          0  MISS:          0
cpu0_L1I TOTAL     ACCESS:      12983  HIT:      12911  MISS:         72
cpu0_L1I LOAD      ACCESS:      12983  HIT:      12911  MISS:         72
cpu0_L1I RFO       ACCESS:          0  HIT:          0  MISS:          0
cpu0_L1I PREFETCH  ACCESS:          0  HIT:          0  MISS:          0
cpu0_L1I WRITEBACK ACCESS:          0  HIT:          0  MISS:          0
cpu0_STLB TOTAL     ACCESS:       8854  HIT:       5557  MISS:       3297
cpu0_STLB LOAD      ACCESS:       8318  HIT:       5112  MISS:       3206
cpu0_STLB RFO       ACCESS:        536  HIT:        445  MISS:         91
cpu0_STLB PREFETCH  ACCESS:          0  HIT:          0  MISS:          0
cpu0_STLB WRITEBACK ACCESS:          0  HIT:          0  MISS:          0
cpu0_L1D TOTAL     ACCESS:    1182612  HIT:    1042361  MISS:     140251
cpu0_L1D LOAD      ACCESS:    1004251  HIT:     872410  MISS:     131841
cpu0_L1D RFO       ACCESS:     175170  HIT:     166851  MISS:       8319
cpu0_L1D PREFETCH  ACCESS:          0  HIT:          0  MISS:          0
cpu0_L1D WRITEBACK ACCESS:          0  HIT:          0  MISS:          0
cpu0_L2C TOTAL     ACCESS:     151651  HIT:      30984  MISS:     120667
cpu0_L2C LOAD      ACCESS:     131913  HIT:      18679  MISS:     113234
cpu0_L2C RFO       ACCESS:       8317  HIT:        919  MISS:       7398
cpu0_L2C PREFETCH  ACCESS:          0  HIT:          0  MISS:          0
cpu0_L2C WRITEBACK ACCESS:      11330  HIT:      11311  MISS:         19
LLC TOTAL     ACCESS:     132473  HIT:      53619  MISS:      78854
LLC LOAD      ACCESS:     113234  HIT:      38189  MISS:      75045
LLC RFO       ACCESS:       7398  HIT:       3593  MISS:       3805
LLC PREFETCH  ACCESS:          0  HIT:          0  MISS:          0
LLC WRITEBACK ACCESS:      11825  HIT:      11824  MISS:          1
Heartbeat CPU 0 instructions: 62000002 cycles: 24983180 heartbeat IPC: 0.881012 cumulative IPC: 0.998351 (Simulation time: 0 hr 28 min 31 sec) 

Region of Interest Statistics
cpu0_DTLB TOTAL     ACCESS:    2099324  HIT:    2087353  MISS:      11971
cpu0_DTLB LOAD      ACCESS:    1966469  HIT:    1955128  MISS:      11341
cpu0_DTLB RFO       ACCESS:     132855  HIT:     132225  MISS:        630
cpu0_DTLB PREFETCH  ACCESS:          0  HIT:          0  MISS:          0
cpu0_DTLB WRITEBACK ACCESS:          0  HIT:          0  MISS:          0
cpu0_ITLB TOTAL     ACCESS:    1032107  HIT:    1032105  MISS:          2
cpu0_ITLB LOAD      ACCESS:    1032107  HIT:    1032105  MISS:          2
cpu0_ITLB RFO       ACCESS:          0  HIT:          0  MISS:          0
cpu0_ITLB PREFETCH  ACCESS:          0  HIT:          0  MISS:          0
cpu0_ITLB WRITEBACK ACCESS:          0  HIT:          0  MISS:          0
cpu0_L1I TOTAL     ACCESS:      12983  HIT:      12911  MISS:         72
cpu0_L1I LOAD      ACCESS:      12983  HIT:      12911  MISS:         72
cpu0_L1I RFO       ACCESS:          0  HIT:          0  MISS:          0
cpu0_L1I PREFETCH  ACCESS:          0  HIT:          0  MISS:          0
cpu0_L1I WRITEBACK ACCESS:          0  HIT:          0  MISS:          0
cpu0_STLB TOTAL     ACCESS:      11973  HIT:       7723  MISS:       4250
cpu0_STLB LOAD      ACCESS:      11343  HIT:       7192  MISS:       4151
cpu0_STLB RFO       ACCESS:        630  HIT:        531  MISS:         99
cpu0_STLB PREFETCH  ACCESS:          0  HIT:          0  MISS:          0
cpu0_STLB WRITEBACK ACCESS:          0  HIT:          0  MISS:          0
cpu0_L1D TOTAL     ACCESS:    1419837  HIT:    1250553  MISS:     169284
cpu0_L1D LOAD      ACCESS:    1206184  HIT:    1045693  MISS:     160491
cpu0_L1D RFO       ACCESS:     209551  HIT:     200876  MISS:       8675
cpu0_L1D PREFETCH  ACCESS:          0  HIT:          0  MISS:          0
cpu0_L1D WRITEBACK ACCESS:          0  HIT:          0  MISS:          0
cpu0_L2C TOTAL     ACCESS:     181045  HIT:      37248  MISS:     143797
cpu0_L2C LOAD      ACCESS:     160563  HIT:      24556  MISS:     136007
cpu0_L2C RFO       ACCESS:       8673  HIT:        919  MISS:       7754
cpu0_L2C PREFETCH  ACCESS:          0  HIT:          0  MISS:          0
cpu0_L2C WRITEBACK ACCESS:      11691  HIT:      11672  MISS:         19
LLC TOTAL     ACCESS:     155960  HIT:      61913  MISS:      94047
LLC LOAD      ACCESS:     136007  HIT:      45933  MISS:      90074
LLC RFO       ACCESS:       7754  HIT:       3785  MISS:       3969
LLC PREFETCH  ACCESS:          0  HIT:          0  MISS:          0
LLC WRITEBACK ACCESS:      12182  HIT:      12181  MISS:          1
Heartbeat CPU 0 instructions: 64000002 cycles: 26905470 heartbeat IPC: 1.04043 cumulative IPC: 1.00415 (Simulation time: 0 hr 29 min 57 sec) 

Region of Interest Statistics
cpu0_DTLB TOTAL     ACCESS:    2451168  HIT:    2436546  MISS:      14622
cpu0_DTLB LOAD      ACCESS:    2294541  HIT:    2280823  MISS:      13718
cpu0_DTLB RFO       ACCESS:     156627  HIT:     155723  MISS:        904
cpu0_DTLB PREFETCH  ACCESS:          0  HIT:          0  MISS:          0
cpu0_DTLB WRITEBACK ACCESS:          0  HIT:          0  MISS:          0
cpu0_ITLB TOTAL     ACCESS:    1209293  HIT:    1209291  MISS:          2
cpu0_ITLB LOAD      ACCESS:    1209293  HIT:    1209291  MISS:          2
cpu0_ITLB RFO       ACCESS:          0  HIT:          0  MISS:          0
cpu0_ITLB PREFETCH  ACCESS:          0  HIT:          0  MISS:          0
cpu0_ITLB WRITEBACK ACCESS:          0  HIT:          0  MISS:          0
cpu0_L1I TOTAL     ACCESS:      16782  HIT:      16710  MISS:         72
cpu0_L1I LOAD      ACCESS:      16782  HIT:      16710  MISS:         72
cpu0_L1I RFO       ACCESS:          0  HIT:          0  MISS:          0
cpu0_L1I PREFETCH  ACCESS:          0  HIT:          0  MISS:          0
cpu0_L1I WRITEBACK ACCESS:          0  HIT:          0  MISS:          0
cpu0_STLB TOTAL     ACCESS:      14624  HIT:       9589  MISS:       5035
cpu0_STLB LOAD      ACCESS:      13720  HIT:       8827  MISS:       4893
cpu0_STLB RFO       ACCESS:        904  HIT:        762  MISS:        142
cpu0_STLB PREFETCH  ACCESS:          0  HIT:          0  MISS:          0
cpu0_STLB WRITEBACK ACCESS:          0  HIT:          0  MISS:          0
cpu0_L1D TOTAL     ACCESS:    1654643  HIT:    1452961  MISS:     201682
cpu0_L1D LOAD      ACCESS:    1408732  HIT:    1219167  MISS:     189565
cpu0_L1D RFO       ACCESS:     241042  HIT:     229065  MISS:      11977
cpu0_L1D PREFETCH  ACCESS:          0  HIT:          0  MISS:          0
cpu0_L1D WRITEBACK ACCESS:          0  HIT:          0  MISS:          0
cpu0_L2C TOTAL     ACCESS:     219361  HIT:      49785  MISS:     169576
cpu0_L2C LOAD      ACCESS:     189637  HIT:      30800  MISS:     158837
cpu0_L2C RFO       ACCESS:      11974  HIT:       1289  MISS:      10685
cpu0_L2C PREFETCH  ACCESS:          0  HIT:          0  MISS:          0
cpu0_L2C WRITEBACK ACCESS:      17610  HIT:      17578  MISS:         32
LLC TOTAL     ACCESS:     185778  HIT:      75737  MISS:     110041
LLC LOAD      ACCESS:     158837  HIT:      54553  MISS:     104284
LLC RFO       ACCESS:      10685  HIT:       4933  MISS:       5752
LLC PREFETCH  ACCESS:          0  HIT:          0  MISS:          0
LLC WRITEBACK ACCESS:      16234  HIT:      16233  MISS:          1
Heartbeat CPU 0 instructions: 66000003 cycles: 28832339 heartbeat IPC: 1.03795 cumulative IPC: 1.00826 (Simulation time: 0 hr 31 min 17 sec) 

Region of Interest Statistics
cpu0_DTLB TOTAL     ACCESS:    2785658  HIT:    2770019  MISS:      15639
cpu0_DTLB LOAD      ACCESS:    2614438  HIT:    2599722  MISS:      14716
cpu0_DTLB RFO       ACCESS:     171220  HIT:     170297  MISS:        923
cpu0_DTLB PREFETCH  ACCESS:          0  HIT:          0  MISS:          0
cpu0_DTLB WRITEBACK ACCESS:          0  HIT:          0  MISS:          0
cpu0_ITLB TOTAL     ACCESS:    1390346  HIT:    1390344  MISS:          2
cpu0_ITLB LOAD      ACCESS:    1390346  HIT:    1390344  MISS:          2
cpu0_ITLB RFO       ACCESS:          0  HIT:          0  MISS:          0
cpu0_ITLB PREFETCH  ACCESS:          0  HIT:          0  MISS:          0
cpu0_ITLB WRITEBACK ACCESS:          0  HIT:          0  MISS:          0
cpu0_L1I TOTAL     ACCESS:      16782  HIT:      16710  MISS:         72
cpu0_L1I LOAD      ACCESS:      16782  HIT:      16710  MISS:         72
cpu0_L1I RFO       ACCESS:          0  HIT:          0  MISS:          0
cpu0_L1I PREFETCH  ACCESS:          0  HIT:          0  MISS:          0
cpu0_L1I WRITEBACK ACCESS:          0  HIT:          0  MISS:          0
cpu0_STLB TOTAL     ACCESS:      15641  HIT:      10036  MISS:       5605
cpu0_STLB LOAD      ACCESS:      14718  HIT:       9256  MISS:       5462
cpu0_STLB RFO       ACCESS:        923  HIT:        780  MISS:        143
cpu0_STLB PREFETCH  ACCESS:          0  HIT:          0  MISS:          0
cpu0_STLB WRITEBACK ACCESS:          0  HIT:          0  MISS:          0
cpu0_L1D TOTAL     ACCESS:    1873844  HIT:    1644777  MISS:     229067
cpu0_L1D LOAD      ACCESS:    1607051  HIT:    1390775  MISS:     216276
cpu0_L1D RFO       ACCESS:     261373  HIT:     248736  MISS:      12637
cpu0_L1D PREFETCH  ACCESS:          0  HIT:          0  MISS:          0
cpu0_L1D WRITEBACK ACCESS:          0  HIT:          0  MISS:          0
cpu0_L2C TOTAL     ACCESS:     247443  HIT:      52280  MISS:     195163
cpu0_L2C LOAD      ACCESS:     216348  HIT:      32589  MISS:     183759
cpu0_L2C RFO       ACCESS:      12634  HIT:       1289  MISS:      11345
cpu0_L2C PREFETCH  ACCESS:          0  HIT:          0  MISS:          0
cpu0_L2C WRITEBACK ACCESS:      18307  HIT:      18274  MISS:         33
LLC TOTAL     ACCESS:     212984  HIT:      85962  MISS:     127022
LLC LOAD      ACCESS:     183760  HIT:      62608  MISS:     121152
LLC RFO       ACCESS:      11345  HIT:       5481  MISS:       5864
LLC PREFETCH  ACCESS:          0  HIT:          0  MISS:          0
LLC WRITEBACK ACCESS:      17853  HIT:      17852  MISS:          1
Heartbeat CPU 0 instructions: 68000003 cycles: 31120943 heartbeat IPC: 0.873895 cumulative IPC: 0.991321 (Simulation time: 0 hr 32 min 44 sec) 

Region of Interest Statistics
cpu0_DTLB TOTAL     ACCESS:    3151443  HIT:    3132528  MISS:      18915
cpu0_DTLB LOAD      ACCESS:    2959500  HIT:    2941614  MISS:      17886
cpu0_DTLB RFO       ACCESS:     191943  HIT:     190914  MISS:       1029
cpu0_DTLB PREFETCH  ACCESS:          0  HIT:          0  MISS:          0
cpu0_DTLB WRITEBACK ACCESS:          0  HIT:          0  MISS:          0
cpu0_ITLB TOTAL     ACCESS:    1554330  HIT:    1554328  MISS:          2
cpu0_ITLB LOAD      ACCESS:    1554330  HIT:    1554328  MISS:          2
cpu0_ITLB RFO       ACCESS:          0  HIT:          0  MISS:          0
cpu0_ITLB PREFETCH  ACCESS:          0  HIT:          0  MISS:          0
cpu0_ITLB WRITEBACK ACCESS:          0  HIT:          0  MISS:          0
cpu0_L1I TOTAL     ACCESS:      16782  HIT:      16710  MISS:         72
cpu0_L1I LOAD      ACCESS:      16782  HIT:      16710  MISS:         72
cpu0_L1I RFO       ACCESS:          0  HIT:          0  MISS:          0
cpu0_L1I PREFETCH  ACCESS:          0  HIT:          0  MISS:          0
cpu0_L1I WRITEBACK ACCESS:          0  HIT:          0  MISS:          0
cpu0_STLB TOTAL     ACCESS:      18917  HIT:      12317  MISS:       6600
cpu0_STLB LOAD      ACCESS:      17888  HIT:      11439  MISS:       6449
cpu0_STLB RFO       ACCESS:       1029  HIT:        878  MISS:        151
cpu0_STLB PREFETCH  ACCESS:          0  HIT:          0  MISS:          0
cpu0_STLB WRITEBACK ACCESS:          0  HIT:          0  MISS:          0
cpu0_L1D TOTAL     ACCESS:    2111306  HIT:    1852856  MISS:     258450
cpu0_L1D LOAD      ACCESS:    1808676  HIT:    1563420  MISS:     245256
cpu0_L1D RFO       ACCESS:     296259  HIT:     283248  MISS:      13011
cpu0_L1D PREFETCH  ACCESS:          0  HIT:          0  MISS:          0
cpu0_L1D WRITEBACK ACCESS:          0  HIT:          0  MISS:          0
cpu0_L2C TOTAL     ACCESS:     277188  HIT:      58694  MISS:     218494
cpu0_L2C LOAD      ACCESS:     245328  HIT:      38613  MISS:     206715
cpu0_L2C RFO       ACCESS:      13008  HIT:       1289  MISS:      11719
cpu0_L2C PREFETCH  ACCESS:          0  HIT:          0  MISS:          0
cpu0_L2C WRITEBACK ACCESS:      18669  HIT:      18636  MISS:         33
LLC TOTAL     ACCESS:     236688  HIT:      94314  MISS:     142374
LLC LOAD      ACCESS:     206715  HIT:      70369  MISS:     136346
LLC RFO       ACCESS:      11719  HIT:       5697  MISS:       6022
LLC PREFETCH  ACCESS:          0  HIT:          0  MISS:          0
LLC WRITEBACK ACCESS:      18227  HIT:      18226  MISS:          1
Heartbeat CPU 0 instructions: 70000002 cycles: 33040137 heartbeat IPC: 1.0421 cumulative IPC: 0.996175 (Simulation time: 0 hr 34 min 3 sec) 

Region of Interest Statistics
cpu0_DTLB TOTAL     ACCESS:    3505490  HIT:    3483967  MISS:      21523
cpu0_DTLB LOAD      ACCESS:    3289977  HIT:    3269748  MISS:      20229
cpu0_DTLB RFO       ACCESS:     215513  HIT:     214219  MISS:       1294
cpu0_DTLB PREFETCH  ACCESS:          0  HIT:          0  MISS:          0
cpu0_DTLB WRITEBACK ACCESS:          0  HIT:          0  MISS:          0
cpu0_ITLB TOTAL     ACCESS:    1730338  HIT:    1730336  MISS:          2
cpu0_ITLB LOAD      ACCESS:    1730338  HIT:    1730336  MISS:          2
cpu0_ITLB RFO       ACCESS:          0  HIT:          0  MISS:          0
cpu0_ITLB PREFETCH  ACCESS:          0  HIT:          0  MISS:          0
cpu0_ITLB WRITEBACK ACCESS:          0  HIT:          0  MISS:          0
cpu0_L1I TOTAL     ACCESS:      19408  HIT:      19336  MISS:         72
cpu0_L1I LOAD      ACCESS:      19408  HIT:      19336  MISS:         72
cpu0_L1I RFO       ACCESS:          0  HIT:          0  MISS:          0
cpu0_L1I PREFETCH  ACCESS:          0  HIT:          0  MISS:          0
cpu0_L1I WRITEBACK ACCESS:          0  HIT:          0  MISS:          0
cpu0_STLB TOTAL     ACCESS:      21525  HIT:      14126  MISS:       7399
cpu0_STLB LOAD      ACCESS:      20231  HIT:      13024  MISS:       7207
cpu0_STLB RFO       ACCESS:       1294  HIT:       1102  MISS:        192
cpu0_STLB PREFETCH  ACCESS:          0  HIT:          0  MISS:          0
cpu0_STLB WRITEBACK ACCESS:          0  HIT:          0  MISS:          0
cpu0_L1D TOTAL     ACCESS:    2345866  HIT:    2055598  MISS:     290268
cpu0_L1D LOAD      ACCESS:    2010971  HIT:    1737186  MISS:     273785
cpu0_L1D RFO       ACCESS:     327744  HIT:     311465  MISS:      16279
cpu0_L1D PREFETCH  ACCESS:          0  HIT:          0  MISS:          0
cpu0_L1D WRITEBACK ACCESS:          0  HIT:          0  MISS:          0
cpu0_L2C TOTAL     ACCESS:     314613  HIT:      70720  MISS:     243893
cpu0_L2C LOAD      ACCESS:     273857  HIT:      44649  MISS:     229208
cpu0_L2C RFO       ACCESS:      16276  HIT:       1669  MISS:      14607
cpu0_L2C PREFETCH  ACCESS:          0  HIT:          0  MISS:          0
cpu0_L2C WRITEBACK ACCESS:      24276  HIT:      24230  MISS:         46
LLC TOTAL     ACCESS:     265430  HIT:     107480  MISS:     157950
LLC LOAD      ACCESS:     229208  HIT:      79037  MISS:     150171
LLC RFO       ACCESS:      14607  HIT:       6835  MISS:       7772
LLC PREFETCH  ACCESS:          0  HIT:          0  MISS:          0
LLC WRITEBACK ACCESS:      21583  HIT:      21582  MISS:          1
Heartbeat CPU 0 instructions: 72000003 cycles: 34919375 heartbeat IPC: 1.06426 cumulative IPC: 1.002 (Simulation time: 0 hr 35 min 26 sec) 

Region of Interest Statistics
cpu0_DTLB TOTAL     ACCESS:    3837972  HIT:    3815556  MISS:      22416
cpu0_DTLB LOAD      ACCESS:    3608290  HIT:    3587187  MISS:      21103
cpu0_DTLB RFO       ACCESS:     229682  HIT:     228369  MISS:       1313
cpu0_DTLB PREFETCH  ACCESS:          0  HIT:          0  MISS:          0
cpu0_DTLB WRITEBACK ACCESS:          0  HIT:          0  MISS:          0
cpu0_ITLB TOTAL     ACCESS:    1912555  HIT:    1912553  MISS:          2
cpu0_ITLB LOAD      ACCESS:    1912555  HIT:    1912553  MISS:          2
cpu0_ITLB RFO       ACCESS:          0  HIT:          0  MISS:          0
cpu0_ITLB PREFETCH  ACCESS:          0  HIT:          0  MISS:          0
cpu0_ITLB WRITEBACK ACCESS:          0  HIT:          0  MISS:          0
cpu0_L1I TOTAL     ACCESS:      19408  HIT:      19336  MISS:         72
cpu0_L1I LOAD      ACCESS:      19408  HIT:      19336  MISS:         72
cpu0_L1I RFO       ACCESS:          0  HIT:          0  MISS:          0
cpu0_L1I PREFETCH  ACCESS:          0  HIT:          0  MISS:          0
cpu0_L1I WRITEBACK ACCESS:          0  HIT:          0  MISS:          0
cpu0_STLB TOTAL     ACCESS:      22418  HIT:      14471  MISS:       7947
cpu0_STLB LOAD      ACCESS:      21105  HIT:      13351  MISS:       7754
cpu0_STLB RFO       ACCESS:       1313  HIT:       1120  MISS:        193
cpu0_STLB PREFETCH  ACCESS:          0  HIT:          0  MISS:          0
cpu0_STLB WRITEBACK ACCESS:          0  HIT:          0  MISS:          0
cpu0_L1D TOTAL     ACCESS:    2565145  HIT:    2247686  MISS:     317459
cpu0_L1D LOAD      ACCESS:    2210570  HIT:    1910302  MISS:     300268
cpu0_L1D RFO       ACCESS:     346895  HIT:     329920  MISS:      16975
cpu0_L1D PREFETCH  ACCESS:          0  HIT:          0  MISS:          0
cpu0_L1D WRITEBACK ACCESS:          0  HIT:          0  MISS:          0
cpu0_L2C TOTAL     ACCESS:     342529  HIT:      72917  MISS:     269612
cpu0_L2C LOAD      ACCESS:     300340  HIT:      46114  MISS:     254226
cpu0_L2C RFO       ACCESS:      16972  HIT:       1669  MISS:      15303
cpu0_L2C PREFETCH  ACCESS:          0  HIT:          0  MISS:          0
cpu0_L2C WRITEBACK ACCESS:      25001  HIT:      24954  MISS:         47
LLC TOTAL     ACCESS:     293244  HIT:     118446  MISS:     174798
LLC LOAD      ACCESS:     254226  HIT:      87319  MISS:     166907
LLC RFO       ACCESS:      15303  HIT:       7420  MISS:       7883
LLC PREFETCH  ACCESS:          0  HIT:          0  MISS:          0
LLC WRITEBACK ACCESS:      23679  HIT:      23678  MISS:          1
Heartbeat CPU 0 instructions: 74000001 cycles: 37172529 heartbeat IPC: 0.887644 cumulative IPC: 0.99136 (Simulation time: 0 hr 36 min 52 sec) 

Region of Interest Statistics
cpu0_DTLB TOTAL     ACCESS:    4204331  HIT:    4178804  MISS:      25527
cpu0_DTLB LOAD      ACCESS:    3954032  HIT:    3929899  MISS:      24133
cpu0_DTLB RFO       ACCESS:     250299  HIT:     248905  MISS:       1394
cpu0_DTLB PREFETCH  ACCESS:          0  HIT:          0  MISS:          0
cpu0_DTLB WRITEBACK ACCESS:          0  HIT:          0  MISS:          0
cpu0_ITLB TOTAL     ACCESS:    2076815  HIT:    2076813  MISS:          2
cpu0_ITLB LOAD      ACCESS:    2076815  HIT:    2076813  MISS:          2
cpu0_ITLB RFO       ACCESS:          0  HIT:          0  MISS:          0
cpu0_ITLB PREFETCH  ACCESS:          0  HIT:          0  MISS:          0
cpu0_ITLB WRITEBACK ACCESS:          0  HIT:          0  MISS:          0
cpu0_L1I TOTAL     ACCESS:      19408  HIT:      19336  MISS:         72
cpu0_L1I LOAD      ACCESS:      19408  HIT:      19336  MISS:         72
cpu0_L1I RFO       ACCESS:          0  HIT:          0  MISS:          0
cpu0_L1I PREFETCH  ACCESS:          0  HIT:          0  MISS:          0
cpu0_L1I WRITEBACK ACCESS:          0  HIT:          0  MISS:          0
cpu0_STLB TOTAL     ACCESS:      25529  HIT:      16599  MISS:       8930
cpu0_STLB LOAD      ACCESS:      24135  HIT:      15405  MISS:       8730
cpu0_STLB RFO       ACCESS:       1394  HIT:       1194  MISS:        200
cpu0_STLB PREFETCH  ACCESS:          0  HIT:          0  MISS:          0
cpu0_STLB WRITEBACK ACCESS:          0  HIT:          0  MISS:          0
cpu0_L1D TOTAL     ACCESS:    2806891  HIT:    2460101  MISS:     346790
cpu0_L1D LOAD      ACCESS:    2416631  HIT:    2087424  MISS:     329207
cpu0_L1D RFO       ACCESS:     381637  HIT:     364297  MISS:      17340
cpu0_L1D PREFETCH  ACCESS:          0  HIT:          0  MISS:          0
cpu0_L1D WRITEBACK ACCESS:          0  HIT:          0  MISS:          0
cpu0_L2C TOTAL     ACCESS:     372215  HIT:      79263  MISS:     292952
cpu0_L2C LOAD      ACCESS:     329279  HIT:      52079  MISS:     277200
cpu0_L2C RFO       ACCESS:      17337  HIT:       1669  MISS:      15668
cpu0_L2C PREFETCH  ACCESS:          0  HIT:          0  MISS:          0
cpu0_L2C WRITEBACK ACCESS:      25356  HIT:      25309  MISS:         47
LLC TOTAL     ACCESS:     317002  HIT:     127247  MISS:     189755
LLC LOAD      ACCESS:     277200  HIT:      95475  MISS:     181725
LLC RFO       ACCESS:      15668  HIT:       7646  MISS:       8022
LLC PREFETCH  ACCESS:          0  HIT:          0  MISS:          0
LLC WRITEBACK ACCESS:      24097  HIT:      24096  MISS:          1
Heartbeat CPU 0 instructions: 76000002 cycles: 39107806 heartbeat IPC: 1.03344 cumulative IPC: 0.994475 (Simulation time: 0 hr 38 min 14 sec) 

Region of Interest Statistics
cpu0_DTLB TOTAL     ACCESS:    4560285  HIT:    4532076  MISS:      28209
cpu0_DTLB LOAD      ACCESS:    4285713  HIT:    4259159  MISS:      26554
cpu0_DTLB RFO       ACCESS:     274572  HIT:     272917  MISS:       1655
cpu0_DTLB PREFETCH  ACCESS:          0  HIT:          0  MISS:          0
cpu0_DTLB WRITEBACK ACCESS:          0  HIT:          0  MISS:          0
cpu0_ITLB TOTAL     ACCESS:    2251989  HIT:    2251987  MISS:          2
cpu0_ITLB LOAD      ACCESS:    2251989  HIT:    2251987  MISS:          2
cpu0_ITLB RFO       ACCESS:          0  HIT:          0  MISS:          0
cpu0_ITLB PREFETCH  ACCESS:          0  HIT:          0  MISS:          0
cpu0_ITLB WRITEBACK ACCESS:          0  HIT:          0  MISS:          0
cpu0_L1I TOTAL     ACCESS:      22459  HIT:      22387  MISS:         72
cpu0_L1I LOAD      ACCESS:      22459  HIT:      22387  MISS:         72
cpu0_L1I RFO       ACCESS:          0  HIT:          0  MISS:          0
cpu0_L1I PREFETCH  ACCESS:          0  HIT:          0  MISS:          0
cpu0_L1I WRITEBACK ACCESS:          0  HIT:          0  MISS:          0
cpu0_STLB TOTAL     ACCESS:      28211  HIT:      18453  MISS:       9758
cpu0_STLB LOAD      ACCESS:      26556  HIT:      17041  MISS:       9515
cpu0_STLB RFO       ACCESS:       1655  HIT:       1412  MISS:        243
cpu0_STLB PREFETCH  ACCESS:          0  HIT:          0  MISS:          0
cpu0_STLB WRITEBACK ACCESS:          0  HIT:          0  MISS:          0
cpu0_L1D TOTAL     ACCESS:    3045309  HIT:    2666355  MISS:     378954
cpu0_L1D LOAD      ACCESS:    2621039  HIT:    2263044  MISS:     357995
cpu0_L1D RFO       ACCESS:     414838  HIT:     394142  MISS:      20696
cpu0_L1D PREFETCH  ACCESS:          0  HIT:          0  MISS:          0
cpu0_L1D WRITEBACK ACCESS:          0  HIT:          0  MISS:          0
cpu0_L2C TOTAL     ACCESS:     410191  HIT:      91896  MISS:     318295
cpu0_L2C LOAD      ACCESS:     358067  HIT:      58421  MISS:     299646
cpu0_L2C RFO       ACCESS:      20693  HIT:       2145  MISS:      18548
cpu0_L2C PREFETCH  ACCESS:          0  HIT:          0  MISS:          0
cpu0_L2C WRITEBACK ACCESS:      31168  HIT:      31108  MISS:         60
LLC TOTAL     ACCESS:     345240  HIT:     140078  MISS:     205162
LLC LOAD      ACCESS:     299646  HIT:     104274  MISS:     195372
LLC RFO       ACCESS:      18548  HIT:       8767  MISS:       9781
LLC PREFETCH  ACCESS:          0  HIT:          0  MISS:          0
LLC WRITEBACK ACCESS:      27005  HIT:      27004  MISS:          1
Heartbeat CPU 0 instructions: 78000001 cycles: 41004002 heartbeat IPC: 1.05474 cumulative IPC: 0.99855 (Simulation time: 0 hr 39 min 31 sec) 

Region of Interest Statistics
cpu0_DTLB TOTAL     ACCESS:    4890651  HIT:    4861537  MISS:      29114
cpu0_DTLB LOAD      ACCESS:    4602222  HIT:    4574778  MISS:      27444
cpu0_DTLB RFO       ACCESS:     288429  HIT:     286759  MISS:       1670
cpu0_DTLB PREFETCH  ACCESS:          0  HIT:          0  MISS:          0
cpu0_DTLB WRITEBACK ACCESS:          0  HIT:          0  MISS:          0
cpu0_ITLB TOTAL     ACCESS:    2434966  HIT:    2434964  MISS:          2
cpu0_ITLB LOAD      ACCESS:    2434966  HIT:    2434964  MISS:          2
cpu0_ITLB RFO       ACCESS:          0  HIT:          0  MISS:          0
cpu0_ITLB PREFETCH  ACCESS:          0  HIT:          0  MISS:          0
cpu0_ITLB WRITEBACK ACCESS:          0  HIT:          0  MISS:          0
cpu0_L1I TOTAL     ACCESS:      22459  HIT:      22387  MISS:         72
cpu0_L1I LOAD      ACCESS:      22459  HIT:      22387  MISS:         72
cpu0_L1I RFO       ACCESS:          0  HIT:          0  MISS:          0
cpu0_L1I PREFETCH  ACCESS:          0  HIT:          0  MISS:          0
cpu0_L1I WRITEBACK ACCESS:          0  HIT:          0  MISS:          0
cpu0_STLB TOTAL     ACCESS:      29116  HIT:      18839  MISS:      10277
cpu0_STLB LOAD      ACCESS:      27446  HIT:      17413  MISS:      10033
cpu0_STLB RFO       ACCESS:       1670  HIT:       1426  MISS:        244
cpu0_STLB PREFETCH  ACCESS:          0  HIT:          0  MISS:          0
cpu0_STLB WRITEBACK ACCESS:          0  HIT:          0  MISS:          0
cpu0_L1D TOTAL     ACCESS:    3261973  HIT:    2855983  MISS:     405990
cpu0_L1D LOAD      ACCESS:    2818850  HIT:    2434539  MISS:     384311
cpu0_L1D RFO       ACCESS:     433191  HIT:     411785  MISS:      21406
cpu0_L1D PREFETCH  ACCESS:          0  HIT:          0  MISS:          0
cpu0_L1D WRITEBACK ACCESS:          0  HIT:          0  MISS:          0
cpu0_L2C TOTAL     ACCESS:     437967  HIT:      93869  MISS:     344098
cpu0_L2C LOAD      ACCESS:     384383  HIT:      59649  MISS:     324734
cpu0_L2C RFO       ACCESS:      21403  HIT:       2145  MISS:      19258
cpu0_L2C PREFETCH  ACCESS:          0  HIT:          0  MISS:          0
cpu0_L2C WRITEBACK ACCESS:      31908  HIT:      31847  MISS:         61
LLC TOTAL     ACCESS:     373567  HIT:     151332  MISS:     222235
LLC LOAD      ACCESS:     324734  HIT:     112395  MISS:     212339
LLC RFO       ACCESS:      19258  HIT:       9372  MISS:       9886
LLC PREFETCH  ACCESS:          0  HIT:          0  MISS:          0
LLC WRITEBACK ACCESS:      29530  HIT:      29529  MISS:          1
Heartbeat CPU 0 instructions: 80000000 cycles: 43415553 heartbeat IPC: 0.829341 cumulative IPC: 0.98515 (Simulation time: 0 hr 40 min 53 sec) 

Region of Interest Statistics
cpu0_DTLB TOTAL     ACCESS:    5255368  HIT:    5223038  MISS:      32330
cpu0_DTLB LOAD      ACCESS:    4946461  HIT:    4915892  MISS:      30569
cpu0_DTLB RFO       ACCESS:     308907  HIT:     307146  MISS:       1761
cpu0_DTLB PREFETCH  ACCESS:          0  HIT:          0  MISS:          0
cpu0_DTLB WRITEBACK ACCESS:          0  HIT:          0  MISS:          0
cpu0_ITLB TOTAL     ACCESS:    2599536  HIT:    2599534  MISS:          2
cpu0_ITLB LOAD      ACCESS:    2599536  HIT:    2599534  MISS:          2
cpu0_ITLB RFO       ACCESS:          0  HIT:          0  MISS:          0
cpu0_ITLB PREFETCH  ACCESS:          0  HIT:          0  MISS:          0
cpu0_ITLB WRITEBACK ACCESS:          0  HIT:          0  MISS:          0
cpu0_L1I TOTAL     ACCESS:      22459  HIT:      22387  MISS:         72
cpu0_L1I LOAD      ACCESS:      22459  HIT:      22387  MISS:         72
cpu0_L1I RFO       ACCESS:          0  HIT:          0  MISS:          0
cpu0_L1I PREFETCH  ACCESS:          0  HIT:          0  MISS:          0
cpu0_L1I WRITEBACK ACCESS:          0  HIT:          0  MISS:          0
cpu0_STLB TOTAL     ACCESS:      32332  HIT:      21145  MISS:      11187
cpu0_STLB LOAD      ACCESS:      30571  HIT:      19633  MISS:      10938
cpu0_STLB RFO       ACCESS:       1761  HIT:       1512  MISS:        249
cpu0_STLB PREFETCH  ACCESS:          0  HIT:          0  MISS:          0
cpu0_STLB WRITEBACK ACCESS:          0  HIT:          0  MISS:          0
cpu0_L1D TOTAL     ACCESS:    3495686  HIT:    3060404  MISS:     435282
cpu0_L1D LOAD      ACCESS:    3017347  HIT:    2604088  MISS:     413259
cpu0_L1D RFO       ACCESS:     467527  HIT:     445806  MISS:      21721
cpu0_L1D PREFETCH  ACCESS:          0  HIT:          0  MISS:          0
cpu0_L1D WRITEBACK ACCESS:          0  HIT:          0  MISS:          0
cpu0_L2C TOTAL     ACCESS:     467562  HIT:     100183  MISS:     367379
cpu0_L2C LOAD      ACCESS:     413331  HIT:      65631  MISS:     347700
cpu0_L2C RFO       ACCESS:      21718  HIT:       2145  MISS:      19573
cpu0_L2C PREFETCH  ACCESS:          0  HIT:          0  MISS:          0
cpu0_L2C WRITEBACK ACCESS:      32211  HIT:      32150  MISS:         61
LLC TOTAL     ACCESS:     397243  HIT:     158485  MISS:     238758
LLC LOAD      ACCESS:     347700  HIT:     118984  MISS:     228716
LLC RFO       ACCESS:      19573  HIT:       9541  MISS:      10032
LLC PREFETCH  ACCESS:          0  HIT:          0  MISS:          0
LLC WRITEBACK ACCESS:      29925  HIT:      29924  MISS:          1
Heartbeat CPU 0 instructions: 82000004 cycles: 45675455 heartbeat IPC: 0.884996 cumulative IPC: 0.978231 (Simulation time: 0 hr 42 min 12 sec) 

Region of Interest Statistics
cpu0_DTLB TOTAL     ACCESS:    5619587  HIT:    5584237  MISS:      35350
cpu0_DTLB LOAD      ACCESS:    5284378  HIT:    5251056  MISS:      33322
cpu0_DTLB RFO       ACCESS:     335209  HIT:     333181  MISS:       2028
cpu0_DTLB PREFETCH  ACCESS:          0  HIT:          0  MISS:          0
cpu0_DTLB WRITEBACK ACCESS:          0  HIT:          0  MISS:          0
cpu0_ITLB TOTAL     ACCESS:    2763658  HIT:    2763656  MISS:          2
cpu0_ITLB LOAD      ACCESS:    2763658  HIT:    2763656  MISS:          2
cpu0_ITLB RFO       ACCESS:          0  HIT:          0  MISS:          0
cpu0_ITLB PREFETCH  ACCESS:          0  HIT:          0  MISS:          0
cpu0_ITLB WRITEBACK ACCESS:          0  HIT:          0  MISS:          0
cpu0_L1I TOTAL     ACCESS:      25565  HIT:      25493  MISS:         72
cpu0_L1I LOAD      ACCESS:      25565  HIT:      25493  MISS:         72
cpu0_L1I RFO       ACCESS:          0  HIT:          0  MISS:          0
cpu0_L1I PREFETCH  ACCESS:          0  HIT:          0  MISS:          0
cpu0_L1I WRITEBACK ACCESS:          0  HIT:          0  MISS:          0
cpu0_STLB TOTAL     ACCESS:      35352  HIT:      23228  MISS:      12124
cpu0_STLB LOAD      ACCESS:      33324  HIT:      21493  MISS:      11831
cpu0_STLB RFO       ACCESS:       2028  HIT:       1735  MISS:        293
cpu0_STLB PREFETCH  ACCESS:          0  HIT:          0  MISS:          0
cpu0_STLB WRITEBACK ACCESS:          0  HIT:          0  MISS:          0
cpu0_L1D TOTAL     ACCESS:    3736852  HIT:    3269046  MISS:     467806
cpu0_L1D LOAD      ACCESS:    3220502  HIT:    2777797  MISS:     442705
cpu0_L1D RFO       ACCESS:     504625  HIT:     479854  MISS:      24771
cpu0_L1D PREFETCH  ACCESS:          0  HIT:          0  MISS:          0
cpu0_L1D WRITEBACK ACCESS:          0  HIT:          0  MISS:          0
cpu0_L2C TOTAL     ACCESS:     505410  HIT:     112297  MISS:     393113
cpu0_L2C LOAD      ACCESS:     442777  HIT:      72156  MISS:     370621
cpu0_L2C RFO       ACCESS:      24768  HIT:       2399  MISS:      22369
cpu0_L2C PREFETCH  ACCESS:          0  HIT:          0  MISS:          0
cpu0_L2C WRITEBACK ACCESS:      37535  HIT:      37461  MISS:         74
LLC TOTAL     ACCESS:     424878  HIT:     168402  MISS:     256476
LLC LOAD      ACCESS:     370620  HIT:     126148  MISS:     244472
LLC RFO       ACCESS:      22369  HIT:      10378  MISS:      11991
LLC PREFETCH  ACCESS:          0  HIT:          0  MISS:          0
LLC WRITEBACK ACCESS:      31840  HIT:      31837  MISS:          3
Heartbeat CPU 0 instructions: 84000000 cycles: 47430915 heartbeat IPC: 1.1393 cumulative IPC: 0.986435 (Simulation time: 0 hr 43 min 17 sec) 

Region of Interest Statistics
cpu0_DTLB TOTAL     ACCESS:    5942513  HIT:    5906631  MISS:      35882
cpu0_DTLB LOAD      ACCESS:    5595530  HIT:    5561698  MISS:      33832
cpu0_DTLB RFO       ACCESS:     346983  HIT:     344933  MISS:       2050
cpu0_DTLB PREFETCH  ACCESS:          0  HIT:          0  MISS:          0
cpu0_DTLB WRITEBACK ACCESS:          0  HIT:          0  MISS:          0
cpu0_ITLB TOTAL     ACCESS:    2956511  HIT:    2956509  MISS:          2
cpu0_ITLB LOAD      ACCESS:    2956511  HIT:    2956509  MISS:          2
cpu0_ITLB RFO       ACCESS:          0  HIT:          0  MISS:          0
cpu0_ITLB PREFETCH  ACCESS:          0  HIT:          0  MISS:          0
cpu0_ITLB WRITEBACK ACCESS:          0  HIT:          0  MISS:          0
cpu0_L1I TOTAL     ACCESS:      25583  HIT:      25511  MISS:         72
cpu0_L1I LOAD      ACCESS:      25583  HIT:      25511  MISS:         72
cpu0_L1I RFO       ACCESS:          0  HIT:          0  MISS:          0
cpu0_L1I PREFETCH  ACCESS:          0  HIT:          0  MISS:          0
cpu0_L1I WRITEBACK ACCESS:          0  HIT:          0  MISS:          0
cpu0_STLB TOTAL     ACCESS:      35884  HIT:      23380  MISS:      12504
cpu0_STLB LOAD      ACCESS:      33834  HIT:      21623  MISS:      12211
cpu0_STLB RFO       ACCESS:       2050  HIT:       1757  MISS:        293
cpu0_STLB PREFETCH  ACCESS:          0  HIT:          0  MISS:          0
cpu0_STLB WRITEBACK ACCESS:          0  HIT:          0  MISS:          0
cpu0_L1D TOTAL     ACCESS:    3943751  HIT:    3449795  MISS:     493956
cpu0_L1D LOAD      ACCESS:    3413833  HIT:    2945919  MISS:     467914
cpu0_L1D RFO       ACCESS:     517831  HIT:     492123  MISS:      25708
cpu0_L1D PREFETCH  ACCESS:          0  HIT:          0  MISS:          0
cpu0_L1D WRITEBACK ACCESS:          0  HIT:          0  MISS:          0
cpu0_L2C TOTAL     ACCESS:     532520  HIT:     114272  MISS:     418248
cpu0_L2C LOAD      ACCESS:     467986  HIT:      73027  MISS:     394959
cpu0_L2C RFO       ACCESS:      25705  HIT:       2542  MISS:      23163
cpu0_L2C PREFETCH  ACCESS:          0  HIT:          0  MISS:          0
cpu0_L2C WRITEBACK ACCESS:      38495  HIT:      38421  MISS:         74
LLC TOTAL     ACCESS:     453487  HIT:     179215  MISS:     274272
LLC LOAD      ACCESS:     394958  HIT:     132849  MISS:     262109
LLC RFO       ACCESS:      23163  HIT:      11014  MISS:      12149
LLC PREFETCH  ACCESS:          0  HIT:          0  MISS:          0
LLC WRITEBACK ACCESS:      35314  HIT:      35311  MISS:          3
Heartbeat CPU 0 instructions: 86000003 cycles: 49843670 heartbeat IPC: 0.828929 cumulative IPC: 0.97613 (Simulation time: 0 hr 44 min 29 sec) 

Region of Interest Statistics
cpu0_DTLB TOTAL     ACCESS:    6309935  HIT:    6271152  MISS:      38783
cpu0_DTLB LOAD      ACCESS:    5942639  HIT:    5905983  MISS:      36656
cpu0_DTLB RFO       ACCESS:     367296  HIT:     365169  MISS:       2127
cpu0_DTLB PREFETCH  ACCESS:          0  HIT:          0  MISS:          0
cpu0_DTLB WRITEBACK ACCESS:          0  HIT:          0  MISS:          0
cpu0_ITLB TOTAL     ACCESS:    3121904  HIT:    3121902  MISS:          2
cpu0_ITLB LOAD      ACCESS:    3121904  HIT:    3121902  MISS:          2
cpu0_ITLB RFO       ACCESS:          0  HIT:          0  MISS:          0
cpu0_ITLB PREFETCH  ACCESS:          0  HIT:          0  MISS:          0
cpu0_ITLB WRITEBACK ACCESS:          0  HIT:          0  MISS:          0
cpu0_L1I TOTAL     ACCESS:      25583  HIT:      25511  MISS:         72
cpu0_L1I LOAD      ACCESS:      25583  HIT:      25511  MISS:         72
cpu0_L1I RFO       ACCESS:          0  HIT:          0  MISS:          0
cpu0_L1I PREFETCH  ACCESS:          0  HIT:          0  MISS:          0
cpu0_L1I WRITEBACK ACCESS:          0  HIT:          0  MISS:          0
cpu0_STLB TOTAL     ACCESS:      38785  HIT:      25366  MISS:      13419
cpu0_STLB LOAD      ACCESS:      36658  HIT:      23536  MISS:      13122
cpu0_STLB RFO       ACCESS:       2127  HIT:       1830  MISS:        297
cpu0_STLB PREFETCH  ACCESS:          0  HIT:          0  MISS:          0
cpu0_STLB WRITEBACK ACCESS:          0  HIT:          0  MISS:          0
cpu0_L1D TOTAL     ACCESS:    4181102  HIT:    3657805  MISS:     523297
cpu0_L1D LOAD      ACCESS:    3615948  HIT:    3119030  MISS:     496918
cpu0_L1D RFO       ACCESS:     552183  HIT:     526167  MISS:      26016
cpu0_L1D PREFETCH  ACCESS:          0  HIT:          0  MISS:          0
cpu0_L1D WRITEBACK ACCESS:          0  HIT:          0  MISS:          0
cpu0_L2C TOTAL     ACCESS:     562194  HIT:     120358  MISS:     441836
cpu0_L2C LOAD      ACCESS:     496990  HIT:      78753  MISS:     418237
cpu0_L2C RFO       ACCESS:      26013  HIT:       2542  MISS:      23471
cpu0_L2C PREFETCH  ACCESS:          0  HIT:          0  MISS:          0
cpu0_L2C WRITEBACK ACCESS:      38828  HIT:      38753  MISS:         75
LLC TOTAL     ACCESS:     477441  HIT:     186538  MISS:     290903
LLC LOAD      ACCESS:     418236  HIT:     139626  MISS:     278610
LLC RFO       ACCESS:      23471  HIT:      11192  MISS:      12279
LLC PREFETCH  ACCESS:          0  HIT:          0  MISS:          0
LLC WRITEBACK ACCESS:      35681  HIT:      35678  MISS:          3
Heartbeat CPU 0 instructions: 88000001 cycles: 52177653 heartbeat IPC: 0.856903 cumulative IPC: 0.969034 (Simulation time: 0 hr 45 min 46 sec) 

Region of Interest Statistics
cpu0_DTLB TOTAL     ACCESS:    6678728  HIT:    6636675  MISS:      42053
cpu0_DTLB LOAD      ACCESS:    6289341  HIT:    6249586  MISS:      39755
cpu0_DTLB RFO       ACCESS:     389387  HIT:     387089  MISS:       2298
cpu0_DTLB PREFETCH  ACCESS:          0  HIT:          0  MISS:          0
cpu0_DTLB WRITEBACK ACCESS:          0  HIT:          0  MISS:          0
cpu0_ITLB TOTAL     ACCESS:    3285702  HIT:    3285700  MISS:          2
cpu0_ITLB LOAD      ACCESS:    3285702  HIT:    3285700  MISS:          2
cpu0_ITLB RFO       ACCESS:          0  HIT:          0  MISS:          0
cpu0_ITLB PREFETCH  ACCESS:          0  HIT:          0  MISS:          0
cpu0_ITLB WRITEBACK ACCESS:          0  HIT:          0  MISS:          0
cpu0_L1I TOTAL     ACCESS:      27740  HIT:      27668  MISS:         72
cpu0_L1I LOAD      ACCESS:      27740  HIT:      27668  MISS:         72
cpu0_L1I RFO       ACCESS:          0  HIT:          0  MISS:          0
cpu0_L1I PREFETCH  ACCESS:          0  HIT:          0  MISS:          0
cpu0_L1I WRITEBACK ACCESS:          0  HIT:          0  MISS:          0
cpu0_STLB TOTAL     ACCESS:      42055  HIT:      27608  MISS:      14447
cpu0_STLB LOAD      ACCESS:      39757  HIT:      25620  MISS:      14137
cpu0_STLB RFO       ACCESS:       2298  HIT:       1988  MISS:        310
cpu0_STLB PREFETCH  ACCESS:          0  HIT:          0  MISS:          0
cpu0_STLB WRITEBACK ACCESS:          0  HIT:          0  MISS:          0
cpu0_L1D TOTAL     ACCESS:    4432510  HIT:    3878537  MISS:     553973
cpu0_L1D LOAD      ACCESS:    3827384  HIT:    3300368  MISS:     527016
cpu0_L1D RFO       ACCESS:     591159  HIT:     564596  MISS:      26563
cpu0_L1D PREFETCH  ACCESS:          0  HIT:          0  MISS:          0
cpu0_L1D WRITEBACK ACCESS:          0  HIT:          0  MISS:          0
cpu0_L2C TOTAL     ACCESS:     595697  HIT:     129678  MISS:     466019
cpu0_L2C LOAD      ACCESS:     527088  HIT:      85080  MISS:     442008
cpu0_L2C RFO       ACCESS:      26560  HIT:       2692  MISS:      23868
cpu0_L2C PREFETCH  ACCESS:          0  HIT:          0  MISS:          0
cpu0_L2C WRITEBACK ACCESS:      41655  HIT:      41569  MISS:         86
LLC TOTAL     ACCESS:     502246  HIT:     194953  MISS:     307293
LLC LOAD      ACCESS:     442007  HIT:     147271  MISS:     294736
LLC RFO       ACCESS:      23868  HIT:      11327  MISS:      12541
LLC PREFETCH  ACCESS:          0  HIT:          0  MISS:          0
LLC WRITEBACK ACCESS:      36314  HIT:      36310  MISS:          4
Heartbeat CPU 0 instructions: 90000000 cycles: 53879469 heartbeat IPC: 1.17521 cumulative IPC: 0.97761 (Simulation time: 0 hr 46 min 53 sec) 

Region of Interest Statistics
cpu0_DTLB TOTAL     ACCESS:    7005885  HIT:    6962963  MISS:      42922
cpu0_DTLB LOAD      ACCESS:    6599206  HIT:    6558689  MISS:      40517
cpu0_DTLB RFO       ACCESS:     406679  HIT:     404274  MISS:       2405
cpu0_DTLB PREFETCH  ACCESS:          0  HIT:          0  MISS:          0
cpu0_DTLB WRITEBACK ACCESS:          0  HIT:          0  MISS:          0
cpu0_ITLB TOTAL     ACCESS:    3475036  HIT:    3475034  MISS:          2
cpu0_ITLB LOAD      ACCESS:    3475036  HIT:    3475034  MISS:          2
cpu0_ITLB RFO       ACCESS:          0  HIT:          0  MISS:          0
cpu0_ITLB PREFETCH  ACCESS:          0  HIT:          0  MISS:          0
cpu0_ITLB WRITEBACK ACCESS:          0  HIT:          0  MISS:          0
cpu0_L1I TOTAL     ACCESS:      28356  HIT:      28284  MISS:         72
cpu0_L1I LOAD      ACCESS:      28356  HIT:      28284  MISS:         72
cpu0_L1I RFO       ACCESS:          0  HIT:          0  MISS:          0
cpu0_L1I PREFETCH  ACCESS:          0  HIT:          0  MISS:          0
cpu0_L1I WRITEBACK ACCESS:          0  HIT:          0  MISS:          0
cpu0_STLB TOTAL     ACCESS:      42924  HIT:      28083  MISS:      14841
cpu0_STLB LOAD      ACCESS:      40519  HIT:      26021  MISS:      14498
cpu0_STLB RFO       ACCESS:       2405  HIT:       2062  MISS:        343
cpu0_STLB PREFETCH  ACCESS:          0  HIT:          0  MISS:          0
cpu0_STLB WRITEBACK ACCESS:          0  HIT:          0  MISS:          0
cpu0_L1D TOTAL     ACCESS:    4639128  HIT:    4056560  MISS:     582568
cpu0_L1D LOAD      ACCESS:    4017989  HIT:    3465739  MISS:     552250
cpu0_L1D RFO       ACCESS:     606792  HIT:     576874  MISS:      29918
cpu0_L1D PREFETCH  ACCESS:          0  HIT:          0  MISS:          0
cpu0_L1D WRITEBACK ACCESS:          0  HIT:          0  MISS:          0
cpu0_L2C TOTAL     ACCESS:     627805  HIT:     136061  MISS:     491744
cpu0_L2C LOAD      ACCESS:     552322  HIT:      87668  MISS:     464654
cpu0_L2C RFO       ACCESS:      29915  HIT:       2970  MISS:      26945
cpu0_L2C PREFETCH  ACCESS:          0  HIT:          0  MISS:          0
cpu0_L2C WRITEBACK ACCESS:      45168  HIT:      45080  MISS:         88
LLC TOTAL     ACCESS:     532706  HIT:     207873  MISS:     324833
LLC LOAD      ACCESS:     464652  HIT:     154169  MISS:     310483
LLC RFO       ACCESS:      26945  HIT:      12611  MISS:      14334
LLC PREFETCH  ACCESS:          0  HIT:          0  MISS:          0
LLC WRITEBACK ACCESS:      41052  HIT:      41048  MISS:          4
Heartbeat CPU 0 instructions: 92000002 cycles: 56034749 heartbeat IPC: 0.927955 cumulative IPC: 0.975125 (Simulation time: 0 hr 48 min 7 sec) 

Region of Interest Statistics
cpu0_DTLB TOTAL     ACCESS:    7364874  HIT:    7319388  MISS:      45486
cpu0_DTLB LOAD      ACCESS:    6938734  HIT:    6895715  MISS:      43019
cpu0_DTLB RFO       ACCESS:     426140  HIT:     423673  MISS:       2467
cpu0_DTLB PREFETCH  ACCESS:          0  HIT:          0  MISS:          0
cpu0_DTLB WRITEBACK ACCESS:          0  HIT:          0  MISS:          0
cpu0_ITLB TOTAL     ACCESS:    3644051  HIT:    3644049  MISS:          2
cpu0_ITLB LOAD      ACCESS:    3644051  HIT:    3644049  MISS:          2
cpu0_ITLB RFO       ACCESS:          0  HIT:          0  MISS:          0
cpu0_ITLB PREFETCH  ACCESS:          0  HIT:          0  MISS:          0
cpu0_ITLB WRITEBACK ACCESS:          0  HIT:          0  MISS:          0
cpu0_L1I TOTAL     ACCESS:      28356  HIT:      28284  MISS:         72
cpu0_L1I LOAD      ACCESS:      28356  HIT:      28284  MISS:         72
cpu0_L1I RFO       ACCESS:          0  HIT:          0  MISS:          0
cpu0_L1I PREFETCH  ACCESS:          0  HIT:          0  MISS:          0
cpu0_L1I WRITEBACK ACCESS:          0  HIT:          0  MISS:          0
cpu0_STLB TOTAL     ACCESS:      45488  HIT:      29772  MISS:      15716
cpu0_STLB LOAD      ACCESS:      43021  HIT:      27652  MISS:      15369
cpu0_STLB RFO       ACCESS:       2467  HIT:       2120  MISS:        347
cpu0_STLB PREFETCH  ACCESS:          0  HIT:          0  MISS:          0
cpu0_STLB WRITEBACK ACCESS:          0  HIT:          0  MISS:          0
cpu0_L1D TOTAL     ACCESS:    4871910  HIT:    4260577  MISS:     611333
cpu0_L1D LOAD      ACCESS:    4219286  HIT:    3638768  MISS:     580518
cpu0_L1D RFO       ACCESS:     637435  HIT:     607040  MISS:      30395
cpu0_L1D PREFETCH  ACCESS:          0  HIT:          0  MISS:          0
cpu0_L1D WRITEBACK ACCESS:          0  HIT:          0  MISS:          0
cpu0_L2C TOTAL     ACCESS:     657077  HIT:     141082  MISS:     515995
cpu0_L2C LOAD      ACCESS:     580590  HIT:      92167  MISS:     488423
cpu0_L2C RFO       ACCESS:      30392  HIT:       2970  MISS:      27422
cpu0_L2C PREFETCH  ACCESS:          0  HIT:          0  MISS:          0
cpu0_L2C WRITEBACK ACCESS:      45675  HIT:      45586  MISS:         89
LLC TOTAL     ACCESS:     557390  HIT:     216915  MISS:     340475
LLC LOAD      ACCESS:     488421  HIT:     162456  MISS:     325965
LLC RFO       ACCESS:      27422  HIT:      12929  MISS:      14493
LLC PREFETCH  ACCESS:          0  HIT:          0  MISS:          0
LLC WRITEBACK ACCESS:      41486  HIT:      41482  MISS:          4
Heartbeat CPU 0 instructions: 94000002 cycles: 58040887 heartbeat IPC: 0.99694 cumulative IPC: 0.976096 (Simulation time: 0 hr 49 min 18 sec) 

Region of Interest Statistics
cpu0_DTLB TOTAL     ACCESS:    7727906  HIT:    7679219  MISS:      48687
cpu0_DTLB LOAD      ACCESS:    7274823  HIT:    7228846  MISS:      45977
cpu0_DTLB RFO       ACCESS:     453083  HIT:     450373  MISS:       2710
cpu0_DTLB PREFETCH  ACCESS:          0  HIT:          0  MISS:          0
cpu0_DTLB WRITEBACK ACCESS:          0  HIT:          0  MISS:          0
cpu0_ITLB TOTAL     ACCESS:    3802038  HIT:    3802036  MISS:          2
cpu0_ITLB LOAD      ACCESS:    3802038  HIT:    3802036  MISS:          2
cpu0_ITLB RFO       ACCESS:          0  HIT:          0  MISS:          0
cpu0_ITLB PREFETCH  ACCESS:          0  HIT:          0  MISS:          0
cpu0_ITLB WRITEBACK ACCESS:          0  HIT:          0  MISS:          0
cpu0_L1I TOTAL     ACCESS:      31101  HIT:      31029  MISS:         72
cpu0_L1I LOAD      ACCESS:      31101  HIT:      31029  MISS:         72
cpu0_L1I RFO       ACCESS:          0  HIT:          0  MISS:          0
cpu0_L1I PREFETCH  ACCESS:          0  HIT:          0  MISS:          0
cpu0_L1I WRITEBACK ACCESS:          0  HIT:          0  MISS:          0
cpu0_STLB TOTAL     ACCESS:      48689  HIT:      31956  MISS:      16733
cpu0_STLB LOAD      ACCESS:      45979  HIT:      29637  MISS:      16342
cpu0_STLB RFO       ACCESS:       2710  HIT:       2319  MISS:        391
cpu0_STLB PREFETCH  ACCESS:          0  HIT:          0  MISS:          0
cpu0_STLB WRITEBACK ACCESS:          0  HIT:          0  MISS:          0
cpu0_L1D TOTAL     ACCESS:    5121393  HIT:    4477654  MISS:     643739
cpu0_L1D LOAD      ACCESS:    4429382  HIT:    3819509  MISS:     609873
cpu0_L1D RFO       ACCESS:     675834  HIT:     642418  MISS:      33416
cpu0_L1D PREFETCH  ACCESS:          0  HIT:          0  MISS:          0
cpu0_L1D WRITEBACK ACCESS:          0  HIT:          0  MISS:          0
cpu0_L2C TOTAL     ACCESS:     694105  HIT:     151859  MISS:     542246
cpu0_L2C LOAD      ACCESS:     609945  HIT:      98131  MISS:     511814
cpu0_L2C RFO       ACCESS:      33413  HIT:       3148  MISS:      30265
cpu0_L2C PREFETCH  ACCESS:          0  HIT:          0  MISS:          0
cpu0_L2C WRITEBACK ACCESS:      50297  HIT:      50195  MISS:        102
LLC TOTAL     ACCESS:     585298  HIT:     230676  MISS:     354622
LLC LOAD      ACCESS:     511812  HIT:     173121  MISS:     338691
LLC RFO       ACCESS:      30265  HIT:      14354  MISS:      15911
LLC PREFETCH  ACCESS:          0  HIT:          0  MISS:          0
LLC WRITEBACK ACCESS:      43156  HIT:      43150  MISS:          6
Heartbeat CPU 0 instructions: 96000004 cycles: 59508223 heartbeat IPC: 1.36302 cumulative IPC: 0.988294 (Simulation time: 0 hr 50 min 14 sec) 

Region of Interest Statistics
cpu0_DTLB TOTAL     ACCESS:    8051203  HIT:    8002006  MISS:      49197
cpu0_DTLB LOAD      ACCESS:    7588181  HIT:    7541714  MISS:      46467
cpu0_DTLB RFO       ACCESS:     463022  HIT:     460292  MISS:       2730
cpu0_DTLB PREFETCH  ACCESS:          0  HIT:          0  MISS:          0
cpu0_DTLB WRITEBACK ACCESS:          0  HIT:          0  MISS:          0
cpu0_ITLB TOTAL     ACCESS:    4000773  HIT:    4000771  MISS:          2
cpu0_ITLB LOAD      ACCESS:    4000773  HIT:    4000771  MISS:          2
cpu0_ITLB RFO       ACCESS:          0  HIT:          0  MISS:          0
cpu0_ITLB PREFETCH  ACCESS:          0  HIT:          0  MISS:          0
cpu0_ITLB WRITEBACK ACCESS:          0  HIT:          0  MISS:          0
cpu0_L1I TOTAL     ACCESS:      31119  HIT:      31047  MISS:         72
cpu0_L1I LOAD      ACCESS:      31119  HIT:      31047  MISS:         72
cpu0_L1I RFO       ACCESS:          0  HIT:          0  MISS:          0
cpu0_L1I PREFETCH  ACCESS:          0  HIT:          0  MISS:          0
cpu0_L1I WRITEBACK ACCESS:          0  HIT:          0  MISS:          0
cpu0_STLB TOTAL     ACCESS:      49199  HIT:      32121  MISS:      17078
cpu0_STLB LOAD      ACCESS:      46469  HIT:      29782  MISS:      16687
cpu0_STLB RFO       ACCESS:       2730  HIT:       2339  MISS:        391
cpu0_STLB PREFETCH  ACCESS:          0  HIT:          0  MISS:          0
cpu0_STLB WRITEBACK ACCESS:          0  HIT:          0  MISS:          0
cpu0_L1D TOTAL     ACCESS:    5331229  HIT:    4661824  MISS:     669405
cpu0_L1D LOAD      ACCESS:    4627203  HIT:    3992573  MISS:     634630
cpu0_L1D RFO       ACCESS:     687519  HIT:     653195  MISS:      34324
cpu0_L1D PREFETCH  ACCESS:          0  HIT:          0  MISS:          0
cpu0_L1D WRITEBACK ACCESS:          0  HIT:          0  MISS:          0
cpu0_L2C TOTAL     ACCESS:     721079  HIT:     155191  MISS:     565888
cpu0_L2C LOAD      ACCESS:     634702  HIT:      99977  MISS:     534725
cpu0_L2C RFO       ACCESS:      34321  HIT:       3325  MISS:      30996
cpu0_L2C PREFETCH  ACCESS:          0  HIT:          0  MISS:          0
cpu0_L2C WRITEBACK ACCESS:      51605  HIT:      51503  MISS:        102
LLC TOTAL     ACCESS:     612368  HIT:     245093  MISS:     367275
LLC LOAD      ACCESS:     534723  HIT:     183459  MISS:     351264
LLC RFO       ACCESS:      30996  HIT:      15005  MISS:      15991
LLC PREFETCH  ACCESS:          0  HIT:          0  MISS:          0
LLC WRITEBACK ACCESS:      46584  HIT:      46578  MISS:          6
Heartbeat CPU 0 instructions: 98000003 cycles: 61471382 heartbeat IPC: 1.01877 cumulative IPC: 0.989527 (Simulation time: 0 hr 51 min 22 sec) 

Region of Interest Statistics
cpu0_DTLB TOTAL     ACCESS:    8415765  HIT:    8363512  MISS:      52253
cpu0_DTLB LOAD      ACCESS:    7931792  HIT:    7882342  MISS:      49450
cpu0_DTLB RFO       ACCESS:     483973  HIT:     481170  MISS:       2803
cpu0_DTLB PREFETCH  ACCESS:          0  HIT:          0  MISS:          0
cpu0_DTLB WRITEBACK ACCESS:          0  HIT:          0  MISS:          0
cpu0_ITLB TOTAL     ACCESS:    4166362  HIT:    4166360  MISS:          2
cpu0_ITLB LOAD      ACCESS:    4166362  HIT:    4166360  MISS:          2
cpu0_ITLB RFO       ACCESS:          0  HIT:          0  MISS:          0
cpu0_ITLB PREFETCH  ACCESS:          0  HIT:          0  MISS:          0
cpu0_ITLB WRITEBACK ACCESS:          0  HIT:          0  MISS:          0
cpu0_L1I TOTAL     ACCESS:      31119  HIT:      31047  MISS:         72
cpu0_L1I LOAD      ACCESS:      31119  HIT:      31047  MISS:         72
cpu0_L1I RFO       ACCESS:          0  HIT:          0  MISS:          0
cpu0_L1I PREFETCH  ACCESS:          0  HIT:          0  MISS:          0
cpu0_L1I WRITEBACK ACCESS:          0  HIT:          0  MISS:          0
cpu0_STLB TOTAL     ACCESS:      52255  HIT:      34216  MISS:      18039
cpu0_STLB LOAD      ACCESS:      49452  HIT:      31810  MISS:      17642
cpu0_STLB RFO       ACCESS:       2803  HIT:       2406  MISS:        397
cpu0_STLB PREFETCH  ACCESS:          0  HIT:          0  MISS:          0
cpu0_STLB WRITEBACK ACCESS:          0  HIT:          0  MISS:          0
cpu0_L1D TOTAL     ACCESS:    5573321  HIT:    4874865  MISS:     698456
cpu0_L1D LOAD      ACCESS:    4834254  HIT:    4171043  MISS:     663211
cpu0_L1D RFO       ACCESS:     721636  HIT:     686866  MISS:      34770
cpu0_L1D PREFETCH  ACCESS:          0  HIT:          0  MISS:          0
cpu0_L1D WRITEBACK ACCESS:          0  HIT:          0  MISS:          0
cpu0_L2C TOTAL     ACCESS:     750590  HIT:     161040  MISS:     589550
cpu0_L2C LOAD      ACCESS:     663283  HIT:     105347  MISS:     557936
cpu0_L2C RFO       ACCESS:      34767  HIT:       3325  MISS:      31442
cpu0_L2C PREFETCH  ACCESS:          0  HIT:          0  MISS:          0
cpu0_L2C WRITEBACK ACCESS:      52065  HIT:      51962  MISS:        103
LLC TOTAL     ACCESS:     636486  HIT:     256814  MISS:     379672
LLC LOAD      ACCESS:     557934  HIT:     194378  MISS:     363556
LLC RFO       ACCESS:      31442  HIT:      15347  MISS:      16095
LLC PREFETCH  ACCESS:          0  HIT:          0  MISS:          0
LLC WRITEBACK ACCESS:      47041  HIT:      47035  MISS:          6
Heartbeat CPU 0 instructions: 100000000 cycles: 63230677 heartbeat IPC: 1.13682 cumulative IPC: 0.994682 (Simulation time: 0 hr 52 min 37 sec) 

Region of Interest Statistics
cpu0_DTLB TOTAL     ACCESS:    8799562  HIT:    8744909  MISS:      54653
cpu0_DTLB LOAD      ACCESS:    8226010  HIT:    8174601  MISS:      51409
cpu0_DTLB RFO       ACCESS:     573552  HIT:     570308  MISS:       3244
cpu0_DTLB PREFETCH  ACCESS:          0  HIT:          0  MISS:          0
cpu0_DTLB WRITEBACK ACCESS:          0  HIT:          0  MISS:          0
cpu0_ITLB TOTAL     ACCESS:    4315853  HIT:    4315827  MISS:         26
cpu0_ITLB LOAD      ACCESS:    4315853  HIT:    4315827  MISS:         26
cpu0_ITLB RFO       ACCESS:          0  HIT:          0  MISS:          0
cpu0_ITLB PREFETCH  ACCESS:          0  HIT:          0  MISS:          0
cpu0_ITLB WRITEBACK ACCESS:          0  HIT:          0  MISS:          0
cpu0_L1I TOTAL     ACCESS:      64913  HIT:      64423  MISS:        490
cpu0_L1I LOAD      ACCESS:      64913  HIT:      64423  MISS:        490
cpu0_L1I RFO       ACCESS:          0  HIT:          0  MISS:          0
cpu0_L1I PREFETCH  ACCESS:          0  HIT:          0  MISS:          0
cpu0_L1I WRITEBACK ACCESS:          0  HIT:          0  MISS:          0
cpu0_STLB TOTAL     ACCESS:      54679  HIT:      35739  MISS:      18940
cpu0_STLB LOAD      ACCESS:      51435  HIT:      33052  MISS:      18383
cpu0_STLB RFO       ACCESS:       3244  HIT:       2687  MISS:        557
cpu0_STLB PREFETCH  ACCESS:          0  HIT:          0  MISS:          0
cpu0_STLB WRITEBACK ACCESS:          0  HIT:          0  MISS:          0
cpu0_L1D TOTAL     ACCESS:    5950536  HIT:    5223224  MISS:     727312
cpu0_L1D LOAD      ACCESS:    5055528  HIT:    4374645  MISS:     680883
cpu0_L1D RFO       ACCESS:     876699  HIT:     830768  MISS:      45931
cpu0_L1D PREFETCH  ACCESS:          0  HIT:          0  MISS:          0
cpu0_L1D WRITEBACK ACCESS:          0  HIT:          0  MISS:          0
cpu0_L2C TOTAL     ACCESS:     792888  HIT:     180070  MISS:     612818
cpu0_L2C LOAD      ACCESS:     681373  HIT:     110330  MISS:     571043
cpu0_L2C RFO       ACCESS:      45928  HIT:       4343  MISS:      41585
cpu0_L2C PREFETCH  ACCESS:          0  HIT:          0  MISS:          0
cpu0_L2C WRITEBACK ACCESS:      65089  HIT:      64975  MISS:        114
LLC TOTAL     ACCESS:     664246  HIT:     268194  MISS:     396052
LLC LOAD      ACCESS:     571041  HIT:     201011  MISS:     370030
LLC RFO       ACCESS:      41585  HIT:      15588  MISS:      25997
LLC PREFETCH  ACCESS:          0  HIT:          0  MISS:          0
LLC WRITEBACK ACCESS:      51544  HIT:      51536  MISS:          8
Heartbeat CPU 0 instructions: 102000003 cycles: 64952088 heartbeat IPC: 1.16184 cumulative IPC: 1.00022 (Simulation time: 0 hr 53 min 44 sec) 

Region of Interest Statistics
cpu0_DTLB TOTAL     ACCESS:    9126506  HIT:    9071182  MISS:      55324
cpu0_DTLB LOAD      ACCESS:    8534377  HIT:    8482361  MISS:      52016
cpu0_DTLB RFO       ACCESS:     592129  HIT:     588821  MISS:       3308
cpu0_DTLB PREFETCH  ACCESS:          0  HIT:          0  MISS:          0
cpu0_DTLB WRITEBACK ACCESS:          0  HIT:          0  MISS:          0
cpu0_ITLB TOTAL     ACCESS:    4492926  HIT:    4492898  MISS:         28
cpu0_ITLB LOAD      ACCESS:    4492926  HIT:    4492898  MISS:         28
cpu0_ITLB RFO       ACCESS:          0  HIT:          0  MISS:          0
cpu0_ITLB PREFETCH  ACCESS:          0  HIT:          0  MISS:          0
cpu0_ITLB WRITEBACK ACCESS:          0  HIT:          0  MISS:          0
cpu0_L1I TOTAL     ACCESS:      67404  HIT:      66843  MISS:        561
cpu0_L1I LOAD      ACCESS:      67404  HIT:      66843  MISS:        561
cpu0_L1I RFO       ACCESS:          0  HIT:          0  MISS:          0
cpu0_L1I PREFETCH  ACCESS:          0  HIT:          0  MISS:          0
cpu0_L1I WRITEBACK ACCESS:          0  HIT:          0  MISS:          0
cpu0_STLB TOTAL     ACCESS:      55352  HIT:      36047  MISS:      19305
cpu0_STLB LOAD      ACCESS:      52044  HIT:      33328  MISS:      18716
cpu0_STLB RFO       ACCESS:       3308  HIT:       2719  MISS:        589
cpu0_STLB PREFETCH  ACCESS:          0  HIT:          0  MISS:          0
cpu0_STLB WRITEBACK ACCESS:          0  HIT:          0  MISS:          0
cpu0_L1D TOTAL     ACCESS:    6164493  HIT:    5410435  MISS:     754058
cpu0_L1D LOAD      ACCESS:    5247666  HIT:    4543207  MISS:     704459
cpu0_L1D RFO       ACCESS:     898167  HIT:     849078  MISS:      49089
cpu0_L1D PREFETCH  ACCESS:          0  HIT:          0  MISS:          0
cpu0_L1D WRITEBACK ACCESS:          0  HIT:          0  MISS:          0
cpu0_L2C TOTAL     ACCESS:     823223  HIT:     186036  MISS:     637187
cpu0_L2C LOAD      ACCESS:     705020  HIT:     112597  MISS:     592423
cpu0_L2C RFO       ACCESS:      49086  HIT:       4519  MISS:      44567
cpu0_L2C PREFETCH  ACCESS:          0  HIT:          0  MISS:          0
cpu0_L2C WRITEBACK ACCESS:      68607  HIT:      68489  MISS:        118
LLC TOTAL     ACCESS:     698858  HIT:     285289  MISS:     413569
LLC LOAD      ACCESS:     592421  HIT:     206736  MISS:     385685
LLC RFO       ACCESS:      44567  HIT:      16708  MISS:      27859
LLC PREFETCH  ACCESS:          0  HIT:          0  MISS:          0
LLC WRITEBACK ACCESS:      61791  HIT:      61783  MISS:          8
Heartbeat CPU 0 instructions: 104000003 cycles: 67082915 heartbeat IPC: 0.938603 cumulative IPC: 0.997791 (Simulation time: 0 hr 54 min 57 sec) 

Region of Interest Statistics
cpu0_DTLB TOTAL     ACCESS:    9478311  HIT:    9420609  MISS:      57702
cpu0_DTLB LOAD      ACCESS:    8867486  HIT:    8813144  MISS:      54342
cpu0_DTLB RFO       ACCESS:     610825  HIT:     607465  MISS:       3360
cpu0_DTLB PREFETCH  ACCESS:          0  HIT:          0  MISS:          0
cpu0_DTLB WRITEBACK ACCESS:          0  HIT:          0  MISS:          0
cpu0_ITLB TOTAL     ACCESS:    4663172  HIT:    4663144  MISS:         28
cpu0_ITLB LOAD      ACCESS:    4663172  HIT:    4663144  MISS:         28
cpu0_ITLB RFO       ACCESS:          0  HIT:          0  MISS:          0
cpu0_ITLB PREFETCH  ACCESS:          0  HIT:          0  MISS:          0
cpu0_ITLB WRITEBACK ACCESS:          0  HIT:          0  MISS:          0
cpu0_L1I TOTAL     ACCESS:      67404  HIT:      66843  MISS:        561
cpu0_L1I LOAD      ACCESS:      67404  HIT:      66843  MISS:        561
cpu0_L1I RFO       ACCESS:          0  HIT:          0  MISS:          0
cpu0_L1I PREFETCH  ACCESS:          0  HIT:          0  MISS:          0
cpu0_L1I WRITEBACK ACCESS:          0  HIT:          0  MISS:          0
cpu0_STLB TOTAL     ACCESS:      57730  HIT:      37481  MISS:      20249
cpu0_STLB LOAD      ACCESS:      54370  HIT:      34718  MISS:      19652
cpu0_STLB RFO       ACCESS:       3360  HIT:       2763  MISS:        597
cpu0_STLB PREFETCH  ACCESS:          0  HIT:          0  MISS:          0
cpu0_STLB WRITEBACK ACCESS:          0  HIT:          0  MISS:          0
cpu0_L1D TOTAL     ACCESS:    6394963  HIT:    5612876  MISS:     782087
cpu0_L1D LOAD      ACCESS:    5450237  HIT:    4718448  MISS:     731789
cpu0_L1D RFO       ACCESS:     925166  HIT:     875391  MISS:      49775
cpu0_L1D PREFETCH  ACCESS:          0  HIT:          0  MISS:          0
cpu0_L1D WRITEBACK ACCESS:          0  HIT:          0  MISS:          0
cpu0_L2C TOTAL     ACCESS:     851959  HIT:     190208  MISS:     661751
cpu0_L2C LOAD      ACCESS:     732350  HIT:     116054  MISS:     616296
cpu0_L2C RFO       ACCESS:      49772  HIT:       4519  MISS:      45253
cpu0_L2C PREFETCH  ACCESS:          0  HIT:          0  MISS:          0
cpu0_L2C WRITEBACK ACCESS:      69314  HIT:      69195  MISS:        119
LLC TOTAL     ACCESS:     723988  HIT:     293816  MISS:     430172
LLC LOAD      ACCESS:     616294  HIT:     214275  MISS:     402019
LLC RFO       ACCESS:      45253  HIT:      17125  MISS:      28128
LLC PREFETCH  ACCESS:          0  HIT:          0  MISS:          0
LLC WRITEBACK ACCESS:      62358  HIT:      62350  MISS:          8
Heartbeat CPU 0 instructions: 106000000 cycles: 68360686 heartbeat IPC: 1.56522 cumulative IPC: 1.01088 (Simulation time: 0 hr 55 min 50 sec) 

Region of Interest Statistics
cpu0_DTLB TOTAL     ACCESS:    9819182  HIT:    9760065  MISS:      59117
cpu0_DTLB LOAD      ACCESS:    9189970  HIT:    9134331  MISS:      55639
cpu0_DTLB RFO       ACCESS:     629212  HIT:     625734  MISS:       3478
cpu0_DTLB PREFETCH  ACCESS:          0  HIT:          0  MISS:          0
cpu0_DTLB WRITEBACK ACCESS:          0  HIT:          0  MISS:          0
cpu0_ITLB TOTAL     ACCESS:    4844913  HIT:    4844884  MISS:         29
cpu0_ITLB LOAD      ACCESS:    4844913  HIT:    4844884  MISS:         29
cpu0_ITLB RFO       ACCESS:          0  HIT:          0  MISS:          0
cpu0_ITLB PREFETCH  ACCESS:          0  HIT:          0  MISS:          0
cpu0_ITLB WRITEBACK ACCESS:          0  HIT:          0  MISS:          0
cpu0_L1I TOTAL     ACCESS:      68735  HIT:      68133  MISS:        602
cpu0_L1I LOAD      ACCESS:      68735  HIT:      68133  MISS:        602
cpu0_L1I RFO       ACCESS:          0  HIT:          0  MISS:          0
cpu0_L1I PREFETCH  ACCESS:          0  HIT:          0  MISS:          0
cpu0_L1I WRITEBACK ACCESS:          0  HIT:          0  MISS:          0
cpu0_STLB TOTAL     ACCESS:      59146  HIT:      38309  MISS:      20837
cpu0_STLB LOAD      ACCESS:      55668  HIT:      35461  MISS:      20207
cpu0_STLB RFO       ACCESS:       3478  HIT:       2848  MISS:        630
cpu0_STLB PREFETCH  ACCESS:          0  HIT:          0  MISS:          0
cpu0_STLB WRITEBACK ACCESS:          0  HIT:          0  MISS:          0
cpu0_L1D TOTAL     ACCESS:    6624809  HIT:    5814863  MISS:     809946
cpu0_L1D LOAD      ACCESS:    5658257  HIT:    4901757  MISS:     756500
cpu0_L1D RFO       ACCESS:     946428  HIT:     893518  MISS:      52910
cpu0_L1D PREFETCH  ACCESS:          0  HIT:          0  MISS:          0
cpu0_L1D WRITEBACK ACCESS:          0  HIT:          0  MISS:          0
cpu0_L2C TOTAL     ACCESS:     883414  HIT:     197786  MISS:     685628
cpu0_L2C LOAD      ACCESS:     757102  HIT:     119899  MISS:     637203
cpu0_L2C RFO       ACCESS:      52907  HIT:       4700  MISS:      48207
cpu0_L2C PREFETCH  ACCESS:          0  HIT:          0  MISS:          0
cpu0_L2C WRITEBACK ACCESS:      72869  HIT:      72739  MISS:        130
[...]
cpu0_DTLB LOAD      ACCESS:  246638367  HIT:  245038401  MISS:    1599966
cpu0_DTLB RFO       ACCESS:   16031184  HIT:   15937479  MISS:      93705
cpu0_DTLB PREFETCH  ACCESS:          0  HIT:          0  MISS:          0
cpu0_DTLB WRITEBACK ACCESS:          0  HIT:          0  MISS:          0
cpu0_ITLB TOTAL     ACCESS:  130674676  HIT:  130674639  MISS:         37
cpu0_ITLB LOAD      ACCESS:  130674676  HIT:  130674639  MISS:         37
cpu0_ITLB RFO       ACCESS:          0  HIT:          0  MISS:          0
cpu0_ITLB PREFETCH  ACCESS:          0  HIT:          0  MISS:          0
cpu0_ITLB WRITEBACK ACCESS:          0  HIT:          0  MISS:          0
cpu0_L1I TOTAL     ACCESS:    1488916  HIT:    1487002  MISS:       1914
cpu0_L1I LOAD      ACCESS:    1488916  HIT:    1487002  MISS:       1914
cpu0_L1I RFO       ACCESS:          0  HIT:          0  MISS:          0
cpu0_L1I PREFETCH  ACCESS:          0  HIT:          0  MISS:          0
cpu0_L1I WRITEBACK ACCESS:          0  HIT:          0  MISS:          0
cpu0_STLB TOTAL     ACCESS:    1693708  HIT:    1125994  MISS:     567714
cpu0_STLB LOAD      ACCESS:    1600003  HIT:    1045211  MISS:     554792
cpu0_STLB RFO       ACCESS:      93705  HIT:      80783  MISS:      12922
cpu0_STLB PREFETCH  ACCESS:          0  HIT:          0  MISS:          0
cpu0_STLB WRITEBACK ACCESS:          0  HIT:          0  MISS:          0
cpu0_L1D TOTAL     ACCESS:  178257228  HIT:  156441598  MISS:   21815630
cpu0_L1D LOAD      ACCESS:  153158350  HIT:  132515872  MISS:   20642478
cpu0_L1D RFO       ACCESS:   24551100  HIT:   23392208  MISS:    1158892
cpu0_L1D PREFETCH  ACCESS:          0  HIT:          0  MISS:          0
cpu0_L1D WRITEBACK ACCESS:          0  HIT:          0  MISS:          0
cpu0_L2C TOTAL     ACCESS:   23516539  HIT:    5132137  MISS:   18384402
cpu0_L2C LOAD      ACCESS:   20644302  HIT:    3311500  MISS:   17332802
cpu0_L2C RFO       ACCESS:    1158743  HIT:     113002  MISS:    1045741
cpu0_L2C PREFETCH  ACCESS:          0  HIT:          0  MISS:          0
cpu0_L2C WRITEBACK ACCESS:    1699234  HIT:    1695695  MISS:       3539
LLC TOTAL     ACCESS:   19839516  HIT:    9359522  MISS:   10479994
LLC LOAD      ACCESS:   17332780  HIT:    7300334  MISS:   10032446
LLC RFO       ACCESS:    1045741  HIT:     600512  MISS:     445229
LLC PREFETCH  ACCESS:          0  HIT:          0  MISS:          0
LLC WRITEBACK ACCESS:    1458675  HIT:    1456983  MISS:       1692
Heartbeat CPU 0 instructions: 1550000003 cycles: 1452692661 heartbeat IPC: 1.50108 cumulative IPC: 1.04186 (Simulation time: 13 hr 5 min 1 sec) 

Region of Interest Statistics
cpu0_DTLB TOTAL     ACCESS:  262994809  HIT:  261300350  MISS:    1694459
cpu0_DTLB LOAD      ACCESS:  246947131  HIT:  245346465  MISS:    1600666
cpu0_DTLB RFO       ACCESS:   16047678  HIT:   15953885  MISS:      93793
cpu0_DTLB PREFETCH  ACCESS:          0  HIT:          0  MISS:          0
cpu0_DTLB WRITEBACK ACCESS:          0  HIT:          0  MISS:          0
cpu0_ITLB TOTAL     ACCESS:  130861981  HIT:  130861944  MISS:         37
cpu0_ITLB LOAD      ACCESS:  130861981  HIT:  130861944  MISS:         37
cpu0_ITLB RFO       ACCESS:          0  HIT:          0  MISS:          0
cpu0_ITLB PREFETCH  ACCESS:          0  HIT:          0  MISS:          0
cpu0_ITLB WRITEBACK ACCESS:          0  HIT:          0  MISS:          0
cpu0_L1I TOTAL     ACCESS:    1489669  HIT:    1487755  MISS:       1914
cpu0_L1I LOAD      ACCESS:    1489669  HIT:    1487755  MISS:       1914
cpu0_L1I RFO       ACCESS:          0  HIT:          0  MISS:          0
cpu0_L1I PREFETCH  ACCESS:          0  HIT:          0  MISS:          0
cpu0_L1I WRITEBACK ACCESS:          0  HIT:          0  MISS:          0
cpu0_STLB TOTAL     ACCESS:    1694496  HIT:    1126394  MISS:     568102
cpu0_STLB LOAD      ACCESS:    1600703  HIT:    1045554  MISS:     555149
cpu0_STLB RFO       ACCESS:      93793  HIT:      80840  MISS:      12953
cpu0_STLB PREFETCH  ACCESS:          0  HIT:          0  MISS:          0
cpu0_STLB WRITEBACK ACCESS:          0  HIT:          0  MISS:          0
cpu0_L1D TOTAL     ACCESS:  178473597  HIT:  156629991  MISS:   21843606
cpu0_L1D LOAD      ACCESS:  153358619  HIT:  132691475  MISS:   20667144
cpu0_L1D RFO       ACCESS:   24566826  HIT:   23404629  MISS:    1162197
cpu0_L1D PREFETCH  ACCESS:          0  HIT:          0  MISS:          0
cpu0_L1D WRITEBACK ACCESS:          0  HIT:          0  MISS:          0
cpu0_L2C TOTAL     ACCESS:   23547929  HIT:    5138289  MISS:   18409640
cpu0_L2C LOAD      ACCESS:   20668968  HIT:    3313977  MISS:   17354991
cpu0_L2C RFO       ACCESS:    1162048  HIT:     113258  MISS:    1048790
cpu0_L2C PREFETCH  ACCESS:          0  HIT:          0  MISS:          0
cpu0_L2C WRITEBACK ACCESS:    1702648  HIT:    1699109  MISS:       3539
LLC TOTAL     ACCESS:   19869112  HIT:    9378592  MISS:   10490520
LLC LOAD      ACCESS:   17354969  HIT:    7313067  MISS:   10041902
LLC RFO       ACCESS:    1048790  HIT:     602491  MISS:     446299
LLC PREFETCH  ACCESS:          0  HIT:          0  MISS:          0
LLC WRITEBACK ACCESS:    1463033  HIT:    1461341  MISS:       1692
Finished CPU 0 instructions: 1500000004 cycles: 1439729307 cumulative IPC: 1.04186 (Simulation time: 13 hr 5 min 1 sec) 

ChampSim completed all CPUs

Region of Interest Statistics

CPU 0 cumulative IPC: 1.04186 instructions: 1500000004 cycles: 1439729307
cpu0_DTLB TOTAL     ACCESS:  262994811  HIT:  261300352  MISS:    1694459
cpu0_DTLB LOAD      ACCESS:  246947133  HIT:  245346467  MISS:    1600666
cpu0_DTLB RFO       ACCESS:   16047678  HIT:   15953885  MISS:      93793
cpu0_DTLB PREFETCH  ACCESS:          0  HIT:          0  MISS:          0
cpu0_DTLB WRITEBACK ACCESS:          0  HIT:          0  MISS:          0
cpu0_DTLB TRANSLATION ACCESS:          0  HIT:          0  MISS:          0
cpu0_DTLB PREFETCH  REQUESTED:          0  ISSUED:          0  USEFUL:          0  USELESS:          0
cpu0_DTLB AVERAGE MISS LATENCY: 12.065 cycles
cpu0_ITLB TOTAL     ACCESS:  130861981  HIT:  130861944  MISS:         37
cpu0_ITLB LOAD      ACCESS:  130861981  HIT:  130861944  MISS:         37
cpu0_ITLB RFO       ACCESS:          0  HIT:          0  MISS:          0
cpu0_ITLB PREFETCH  ACCESS:          0  HIT:          0  MISS:          0
cpu0_ITLB WRITEBACK ACCESS:          0  HIT:          0  MISS:          0
cpu0_ITLB TRANSLATION ACCESS:          0  HIT:          0  MISS:          0
cpu0_ITLB PREFETCH  REQUESTED:          0  ISSUED:          0  USEFUL:          0  USELESS:          0
cpu0_ITLB AVERAGE MISS LATENCY: 143.405 cycles
cpu0_L1I TOTAL     ACCESS:    1489669  HIT:    1487755  MISS:       1914
cpu0_L1I LOAD      ACCESS:    1489669  HIT:    1487755  MISS:       1914
cpu0_L1I RFO       ACCESS:          0  HIT:          0  MISS:          0
cpu0_L1I PREFETCH  ACCESS:          0  HIT:          0  MISS:          0
cpu0_L1I WRITEBACK ACCESS:          0  HIT:          0  MISS:          0
cpu0_L1I TRANSLATION ACCESS:          0  HIT:          0  MISS:          0
cpu0_L1I PREFETCH  REQUESTED:          0  ISSUED:          0  USEFUL:          0  USELESS:          0
cpu0_L1I AVERAGE MISS LATENCY: 186.516 cycles
cpu0_STLB TOTAL     ACCESS:    1694496  HIT:    1126394  MISS:     568102
cpu0_STLB LOAD      ACCESS:    1600703  HIT:    1045554  MISS:     555149
cpu0_STLB RFO       ACCESS:      93793  HIT:      80840  MISS:      12953
cpu0_STLB PREFETCH  ACCESS:          0  HIT:          0  MISS:          0
cpu0_STLB WRITEBACK ACCESS:          0  HIT:          0  MISS:          0
cpu0_STLB TRANSLATION ACCESS:          0  HIT:          0  MISS:          0
cpu0_STLB PREFETCH  REQUESTED:          0  ISSUED:          0  USEFUL:          0  USELESS:          0
cpu0_STLB AVERAGE MISS LATENCY: 9.06039 cycles
cpu0_L1D TOTAL     ACCESS:  178473597  HIT:  156629991  MISS:   21843606
cpu0_L1D LOAD      ACCESS:  153358619  HIT:  132691475  MISS:   20667144
cpu0_L1D RFO       ACCESS:   24566826  HIT:   23404629  MISS:    1162197
cpu0_L1D PREFETCH  ACCESS:          0  HIT:          0  MISS:          0
cpu0_L1D WRITEBACK ACCESS:          0  HIT:          0  MISS:          0
cpu0_L1D TRANSLATION ACCESS:     548152  HIT:     533887  MISS:      14265
cpu0_L1D PREFETCH  REQUESTED:          0  ISSUED:          0  USEFUL:          0  USELESS:          0
cpu0_L1D AVERAGE MISS LATENCY: 123.153 cycles
cpu0_L2C TOTAL     ACCESS:   23547929  HIT:    5138289  MISS:   18409640
cpu0_L2C LOAD      ACCESS:   20668968  HIT:    3313977  MISS:   17354991
cpu0_L2C RFO       ACCESS:    1162048  HIT:     113258  MISS:    1048790
cpu0_L2C PREFETCH  ACCESS:          0  HIT:          0  MISS:          0
cpu0_L2C WRITEBACK ACCESS:    1702648  HIT:    1699109  MISS:       3539
cpu0_L2C TRANSLATION ACCESS:      14265  HIT:      11945  MISS:       2320
cpu0_L2C PREFETCH  REQUESTED:          0  ISSUED:          0  USEFUL:          0  USELESS:          0
cpu0_L2C AVERAGE MISS LATENCY: 133.049 cycles
LLC TOTAL     ACCESS:   19869112  HIT:    9378592  MISS:   10490520
LLC LOAD      ACCESS:   17354969  HIT:    7313067  MISS:   10041902
LLC RFO       ACCESS:    1048790  HIT:     602491  MISS:     446299
LLC PREFETCH  ACCESS:          0  HIT:          0  MISS:          0
LLC WRITEBACK ACCESS:    1463033  HIT:    1461341  MISS:       1692
LLC TRANSLATION ACCESS:       2320  HIT:       1693  MISS:        627
LLC PREFETCH  REQUESTED:          0  ISSUED:          0  USEFUL:          0  USELESS:          0
LLC AVERAGE MISS LATENCY: 196.638 cycles
~~~~~~~~~~Reuse Distance Profiler output~~~~~~~~~~
0	0	0
1	0	0
2	0	0
3	0	0
4	0	0
5	0	0
6	0	0
7	0	0
8	0	0
9	0	0
10	0	0
11	0	0
12	0	0
13	0	0
14	0	0
15	0	0
16	0	0
17	0	0
18	0	0
19	0	0
20	0	0
21	0	0
22	0	0
23	0	0
24	0	0
25	0	0
26	0	0
27	0	0
28	0	0
29	0	0
30	0	0
31	0	0
32	0	0
33	0	0
34	0	0
35	0	0
36	0	0
37	0	0
38	0	0
39	0	0
40	0	0
41	0	0
42	0	0
43	0	0
44	0	0
45	0	0
46	0	0
47	0	0
48	0	0
49	0	0
50	0	0
51	0	0
52	0	0
53	0	0
54	0	0
55	0	0
56	0	0
57	0	0
58	0	0
59	0	0
60	0	0
61	0	0
62	0	0
63	0	0
64	0	0
66	0	0
68	0	0
70	0	0
72	0	0
74	0	0
76	0	0
78	0	0
80	0	0
82	0	0
84	0	0
86	0	0
88	0	0
90	0	0
92	0	0
94	0	0
96	0	0
98	0	0
100	0	0
102	0	0
104	0	0
106	0	0
108	0	0
110	0	0
112	0	0
114	0	0
116	0	0
118	0	0
120	0	0
122	0	0
124	0	0
126	0	0
128	0	0
132	0	0
136	0	0
140	0	0
144	0	0
148	0	0
152	0	0
156	0	0
160	0	0
164	0	0
168	0	0
172	0	0
176	0	0
180	0	0
184	0	0
188	0	0
192	0	0
196	0	0
200	0	0
204	0	0
208	0	0
212	0	0
216	0	0
220	0	0
224	0	0
228	0	0
232	0	0
236	0	0
240	0	0
244	0	0
248	0	0
252	0	0
256	0	0
264	0	0
272	0	0
280	0	0
288	0	0
296	0	0
304	0	0
312	0	0
320	0	0
328	0	0
336	0	0
344	0	0
352	0	0
360	0	0
368	0	0
376	0	0
384	0	0
392	0	0
400	0	0
408	0	0
416	0	0
424	0	0
432	0	0
440	0	0
448	0	0
456	0	0
464	0	0
472	0	0
480	0	0
488	0	0
496	0	0
504	0	0
512	0	0
528	0	0
544	0	0
560	0	0
576	0	0
592	0	0
608	0	0
624	0	0
640	0	0
656	0	0
672	0	0
688	0	0
704	0	0
720	0	0
736	0	0
752	0	0
768	0	0
784	0	0
800	0	0
816	0	0
832	0	0
848	0	0
864	0	0
880	0	0
896	0	0
912	0	0
928	0	0
944	0	0
960	0	0
976	0	0
992	0	0
1008	0	0
1024	0	0
1056	0	0
1088	0	0
1120	0	0
1152	0	0
1184	0	0
1216	0	0
1248	0	0
1280	0	0
1312	0	0
1344	0	0
1376	0	0
1408	0	0
1440	0	0
1472	0	0
1504	0	0
1536	0	0
1568	0	0
1600	0	0
1632	0	0
1664	0	0
1696	0	0
1728	0	0
1760	0	0
1792	0	0
1824	0	0
1856	0	0
1888	0	0
1920	0	0
1952	0	0
1984	0	0
2016	0	0
2048	0	0
2112	0	0
2176	0	0
2240	0	0
2304	0	0
2368	0	0
2432	0	0
2496	0	0
2560	0	0
2624	0	0
2688	0	0
2752	0	0
2816	0	0
2880	0	0
2944	0	0
3008	0	0
3072	0	0
3136	0	0
3200	0	0
3264	0	0
3328	0	0
3392	0	0
3456	0	0
3520	0	0
3584	0	0
3648	0	0
3712	0	0
3776	0	0
3840	0	0
3904	0	0
3968	0	0
4032	0	0
4096	0	0
4224	0	0
4352	0	0
4480	0	0
4608	0	0
4736	0	0
4864	0	0
4992	0	0
5120	0	0
5248	0	0
5376	0	0
5504	0	0
5632	0	0
5760	0	0
5888	0	0
6016	0	0
6144	0	0
6272	0	0
6400	0	0
6528	0	0
6656	0	0
6784	0	0
6912	0	0
7040	0	0
7168	0	0
7296	0	0
7424	0	0
7552	0	0
7680	0	0
7808	0	0
7936	0	0
8064	0	0
8192	0	0
8448	0	0
8704	0	0
8960	0	0
9216	0	0
9472	0	0
9728	0	0
9984	0	0
10240	0	0
10496	0	0
10752	0	0
11008	0	0
11264	0	0
11520	0	0
11776	0	0
12032	0	0
12288	0	0
12544	0	0
12800	0	0
13056	0	0
13312	0	0
13568	0	0
13824	0	0
14080	0	0
14336	0	0
14592	0	0
14848	0	0
15104	0	0
15360	0	0
15616	0	0
15872	0	0
16128	0	0
16384	0	0
16896	0	0
17408	0	0
17920	0	0
18432	0	0
18944	0	0
19456	0	0
19968	0	0
20480	0	0
20992	0	0
21504	0	0
22016	0	0
22528	0	0
23040	0	0
23552	0	0
24064	0	0
24576	0	0
25088	0	0
25600	0	0
26112	0	0
26624	0	0
27136	0	0
27648	0	0
28160	0	0
28672	0	0
29184	0	0
29696	0	0
30208	0	0
30720	0	0
31232	0	0
31744	0	0
32256	0	0
32768	0	0
33792	0	0
34816	0	0
35840	0	0
36864	0	0
37888	0	0
38912	0	0
39936	0	0
40960	0	0
41984	0	0
43008	0	0
44032	0	0
45056	0	0
46080	0	0
47104	0	0
48128	0	0
49152	0	0
50176	0	0
51200	0	0
52224	0	0
53248	0	0
54272	0	0
55296	0	0
56320	0	0
57344	0	0
58368	0	0
59392	0	0
60416	0	0
61440	0	0
62464	0	0
63488	0	0
64512	0	0
65536	0	0
67584	0	0
69632	0	0
71680	0	0
73728	0	0
75776	0	0
77824	0	0
79872	0	0
81920	0	0
83968	0	0
86016	0	0
88064	0	0
90112	0	0
92160	0	0
94208	0	0
96256	0	0
98304	0	0
100352	0	0
102400	0	0
104448	0	0
106496	0	0
108544	0	0
110592	0	0
112640	0	0
114688	0	0
116736	0	0
118784	0	0
120832	0	0
122880	0	0
124928	0	0
126976	0	0
129024	0	0
131072	0	0
135168	0	0
139264	0	0
143360	0	0
147456	0	0
151552	0	0
155648	0	0
159744	0	0
163840	0	0
167936	0	0
172032	0	0
176128	0	0
180224	0	0
184320	0	0
188416	0	0
192512	0	0
196608	0	0
200704	0	0
204800	0	0
208896	0	0
212992	0	0
217088	0	0
221184	0	0
225280	0	0
229376	0	0
233472	0	0
237568	0	0
241664	0	0
245760	0	0
249856	0	0
253952	0	0
258048	0	0
262144	0	0
270336	0	0
278528	0	0
286720	0	0
294912	0	0
303104	0	0
311296	0	0
319488	0	0
327680	0	0
335872	0	0
344064	0	0
352256	0	0
360448	0	0
368640	0	0
376832	0	0
385024	0	0
393216	0	0
401408	0	0
409600	0	0
417792	0	0
425984	0	0
434176	0	0
442368	0	0
450560	0	0
458752	0	0
466944	0	0
475136	0	0
483328	0	0
491520	0	0
499712	0	0
507904	0	0
516096	0	0
524288	0	0
540672	0	0
557056	0	0
573440	0	0
589824	0	0
606208	0	0
622592	0	0
638976	0	0
655360	0	0
671744	0	0
688128	0	0
704512	0	0
720896	0	0
737280	0	0
753664	0	0
770048	0	0
786432	0	0
802816	0	0
819200	0	0
835584	0	0
851968	0	0
868352	0	0
884736	0	0
901120	0	0
917504	0	0
933888	0	0
950272	0	0
966656	0	0
983040	0	0
999424	0	0
1015808	0	0
1032192	0	0
1048576	0	0
1081344	0	0
1114112	0	0
1146880	0	0
1179648	0	0
1212416	0	0
1245184	0	0
1277952	0	0
1310720	0	0
1343488	0	0
1376256	0	0
1409024	0	0
1441792	0	0
1474560	0	0
1507328	0	0
1540096	0	0
1572864	0	0
1605632	0	0
1638400	0	0
1671168	0	0
1703936	0	0
1736704	0	0
1769472	0	0
1802240	0	0
1835008	0	0
1867776	0	0
1900544	0	0
1933312	0	0
1966080	0	0
1998848	0	0
2031616	0	0
2064384	0	0
2097152	0	0
2162688	0	0
2228224	0	0
2293760	0	0
2359296	0	0
2424832	0	0
2490368	0	0
2555904	0	0
2621440	0	0
2686976	0	0
2752512	0	0
2818048	0	0
2883584	0	0
2949120	0	0
3014656	0	0
3080192	0	0
3145728	0	0
3211264	0	0
3276800	0	0
3342336	0	0
3407872	0	0
3473408	0	0
3538944	0	0
3604480	0	0
3670016	0	0
3735552	0	0
3801088	0	0
3866624	0	0
3932160	0	0
3997696	0	0
4063232	0	0
4128768	0	0
4194304	0	0
4325376	0	0
4456448	0	0
4587520	0	0
4718592	0	0
4849664	0	0
4980736	0	0
5111808	0	0
5242880	0	0
5373952	0	0
5505024	0	0
5636096	0	0
5767168	0	0
5898240	0	0
6029312	0	0
6160384	0	0
6291456	0	0
6422528	0	0
6553600	0	0
6684672	0	0
6815744	0	0
6946816	0	0
7077888	0	0
7208960	0	0
7340032	0	0
7471104	0	0
7602176	0	0
7733248	0	0
7864320	0	0
7995392	0	0
8126464	0	0
8257536	0	0
8388608	0	0
8650752	0	0
8912896	0	0
9175040	0	0
9437184	0	0
9699328	0	0
9961472	0	0
10223616	0	0
10485760	0	0
10747904	0	0
11010048	0	0
11272192	0	0
11534336	0	0
11796480	0	0
12058624	0	0
12320768	0	0
12582912	0	0
12845056	0	0
13107200	0	0
13369344	0	0
13631488	0	0
13893632	0	0
14155776	0	0
14417920	0	0
14680064	0	0
14942208	0	0
15204352	0	0
15466496	0	0
15728640	0	0
15990784	0	0
16252928	0	0
16515072	0	0
16777216	0	0
17301504	0	0
17825792	0	0
18350080	0	0
18874368	0	0
19398656	0	0
19922944	0	0
20447232	0	0
20971520	0	0
21495808	0	0
22020096	0	0
22544384	0	0
23068672	0	0
23592960	0	0
24117248	0	0
24641536	0	0
25165824	0	0
25690112	0	0
26214400	0	0
26738688	0	0
27262976	0	0
27787264	0	0
28311552	0	0
28835840	0	0
29360128	0	0
29884416	0	0
30408704	0	0
30932992	0	0
31457280	0	0
31981568	0	0
32505856	0	0
33030144	0	0
33554432	0	0
34603008	0	0
35651584	0	0
36700160	0	0
37748736	0	0
38797312	0	0
39845888	0	0
40894464	0	0
41943040	0	0
42991616	0	0
44040192	0	0
45088768	0	0
46137344	0	0
47185920	0	0
48234496	0	0
49283072	0	0
50331648	0	0
51380224	0	0
52428800	0	0
53477376	0	0
54525952	0	0
55574528	0	0
56623104	0	0
57671680	0	0
58720256	0	0
59768832	0	0
60817408	0	0
61865984	0	0
62914560	0	0
63963136	0	0
65011712	0	0
66060288	0	0
67108864	0	0
69206016	0	0
71303168	0	0
73400320	0	0
75497472	0	0
77594624	0	0
79691776	0	0
81788928	0	0
83886080	0	0
85983232	0	0
88080384	0	0
90177536	0	0
92274688	0	0
94371840	0	0
96468992	0	0
98566144	0	0
100663296	0	0
102760448	0	0
104857600	0	0
106954752	0	0
109051904	0	0
111149056	0	0
113246208	0	0
115343360	0	0
117440512	0	0
119537664	0	0
121634816	0	0
123731968	0	0
125829120	0	0
127926272	0	0
130023424	0	0
132120576	0	0
134217728	0	0
138412032	0	0
142606336	0	0
146800640	0	0
150994944	0	0
155189248	0	0
159383552	0	0
163577856	0	0
167772160	0	0
171966464	0	0
176160768	0	0
180355072	0	0
184549376	0	0
188743680	0	0
192937984	0	0
197132288	0	0
201326592	0	0
205520896	0	0
209715200	0	0
213909504	0	0
218103808	0	0
222298112	0	0
226492416	0	0
230686720	0	0
234881024	0	0
239075328	0	0
243269632	0	0
247463936	0	0
251658240	0	0
255852544	0	0
260046848	0	0
264241152	0	0
268435456	0	0
276824064	0	0
285212672	0	0
293601280	0	0
301989888	0	0
310378496	0	0
318767104	0	0
327155712	0	0
335544320	0	0
343932928	0	0
352321536	0	0
360710144	0	0
369098752	0	0
377487360	0	0
385875968	0	0
394264576	0	0
402653184	0	0
411041792	0	0
419430400	0	0
427819008	0	0
436207616	0	0
444596224	0	0
452984832	0	0
461373440	0	0
469762048	0	0
478150656	0	0
486539264	0	0
494927872	0	0
503316480	0	0
511705088	0	0
520093696	0	0
528482304	0	0
536870912	0	0
553648128	0	0
570425344	0	0
587202560	0	0
603979776	0	0
620756992	0	0
637534208	0	0
654311424	0	0
671088640	0	0
687865856	0	0
704643072	0	0
721420288	0	0
738197504	0	0
754974720	0	0
771751936	0	0
788529152	0	0
805306368	0	0
822083584	0	0
838860800	0	0
855638016	0	0
872415232	0	0
889192448	0	0
905969664	0	0
922746880	0	0
939524096	0	0
956301312	0	0
973078528	0	0
989855744	0	0
1006632960	0	0
1023410176	0	0
1040187392	0	0
1056964608	0	0
1073741824	0	0
1107296256	0	0
1140850688	0	0
1174405120	0	0
1207959552	0	0
1241513984	0	0
1275068416	0	0
1308622848	0	0
1342177280	0	0
1375731712	0	0
1409286144	0	0
1442840576	0	0
1476395008	0	0
1509949440	0	0
1543503872	0	0
1577058304	0	0
1610612736	0	0
1644167168	0	0
1677721600	0	0
1711276032	0	0
1744830464	0	0
1778384896	0	0
1811939328	0	0
1845493760	0	0
1879048192	0	0
1912602624	0	0
1946157056	0	0
1979711488	0	0
2013265920	0	0
2046820352	0	0
2080374784	0	0
2113929216	0	0
2147483648	0	0
2214592512	0	0
2281701376	0	0
2348810240	0	0
2415919104	0	0
2483027968	0	0
2550136832	0	0
2617245696	0	0
2684354560	0	0
2751463424	0	0
2818572288	0	0
2885681152	0	0
2952790016	0	0
3019898880	0	0
3087007744	0	0
3154116608	0	0
3221225472	0	0
3288334336	0	0
3355443200	0	0
3422552064	0	0
3489660928	0	0
3556769792	0	0
3623878656	0	0
3690987520	0	0
3758096384	0	0
3825205248	0	0
3892314112	0	0
3959422976	0	0
4026531840	0	0
4093640704	0	0
4160749568	0	0
4227858432	0	0
~~~~~~~~~~Reuse Distance Profiler output end~~~~~~~~~~


DRAM Statistics
 CHANNEL 0
 RQ ROW_BUFFER_HIT:    1695704  ROW_BUFFER_MISS:    8788733
 DBUS AVG_CONGESTED_CYCLE:    3.87238
 WQ ROW_BUFFER_HIT:     298931  ROW_BUFFER_MISS:     388019  FULL:          0


CPU 0 Branch Prediction Accuracy: 93.0427% MPKI: 6.39137 Average ROB Occupancy at Mispredict: 190.21
Branch type MPKI
BRANCH_DIRECT_JUMP: 5e-05
BRANCH_INDIRECT: 0.000114667
BRANCH_CONDITIONAL: 6.39098
BRANCH_DIRECT_CALL: 8.26667e-05
BRANCH_INDIRECT_CALL: 6.06667e-05
BRANCH_RETURN: 7.93333e-05

