
*** ChampSim Multicore Out-of-Order Simulator ***

Warmup Instructions: 50000000
Simulation Instructions: 1500000000
Number of CPUs: 1
Off-chip DRAM Size: 4 GiB Channels: 1 Width: 64-bit Data Rate: 3200 MT/s

VirtualMemory physical capacity: 8588881920 num_ppages: 2096895
VirtualMemory page size: 4096 log2_page_size: 12

CPU 0 runs traces/482.sphinx3-1395B.champsimtrace.xz
CPU 0 Bimodal branch predictor
Basic BTB sets: 1024 ways: 8 indirect buffer size: 4096 RAS size: 64
Initializing LRU.
Initializing LRU.
Initializing LRU.
Initializing LRU.
Initializing rdLRU.
Initializing LRU.
Initializing LRU.
Heartbeat CPU 0 instructions: 2000000 cycles: 529370 heartbeat IPC: 3.77808 cumulative IPC: 3.77808 (Simulation time: 0 hr 0 min 50 sec) 
Heartbeat CPU 0 instructions: 4000000 cycles: 1035132 heartbeat IPC: 3.95443 cumulative IPC: 3.86424 (Simulation time: 0 hr 1 min 34 sec) 
Heartbeat CPU 0 instructions: 6000002 cycles: 1556399 heartbeat IPC: 3.83681 cumulative IPC: 3.85505 (Simulation time: 0 hr 2 min 18 sec) 
Heartbeat CPU 0 instructions: 8000001 cycles: 2083519 heartbeat IPC: 3.7942 cumulative IPC: 3.83966 (Simulation time: 0 hr 3 min 6 sec) 
Heartbeat CPU 0 instructions: 10000002 cycles: 2591730 heartbeat IPC: 3.93538 cumulative IPC: 3.85843 (Simulation time: 0 hr 3 min 51 sec) 
Heartbeat CPU 0 instructions: 12000002 cycles: 3113112 heartbeat IPC: 3.83596 cumulative IPC: 3.85466 (Simulation time: 0 hr 4 min 36 sec) 
Heartbeat CPU 0 instructions: 14000002 cycles: 3648744 heartbeat IPC: 3.73391 cumulative IPC: 3.83694 (Simulation time: 0 hr 5 min 25 sec) 
Heartbeat CPU 0 instructions: 16000001 cycles: 4181221 heartbeat IPC: 3.75603 cumulative IPC: 3.82663 (Simulation time: 0 hr 6 min 11 sec) 
Heartbeat CPU 0 instructions: 18000000 cycles: 4690448 heartbeat IPC: 3.92752 cumulative IPC: 3.83759 (Simulation time: 0 hr 6 min 56 sec) 
Heartbeat CPU 0 instructions: 20000002 cycles: 5211940 heartbeat IPC: 3.83515 cumulative IPC: 3.83734 (Simulation time: 0 hr 7 min 40 sec) 
Heartbeat CPU 0 instructions: 22000001 cycles: 5742514 heartbeat IPC: 3.7695 cumulative IPC: 3.83107 (Simulation time: 0 hr 8 min 26 sec) 
Heartbeat CPU 0 instructions: 24000004 cycles: 6243424 heartbeat IPC: 3.99274 cumulative IPC: 3.84405 (Simulation time: 0 hr 9 min 8 sec) 
Heartbeat CPU 0 instructions: 26000001 cycles: 6773252 heartbeat IPC: 3.7748 cumulative IPC: 3.83863 (Simulation time: 0 hr 10 min 0 sec) 
Heartbeat CPU 0 instructions: 28000000 cycles: 7280841 heartbeat IPC: 3.94019 cumulative IPC: 3.84571 (Simulation time: 0 hr 10 min 46 sec) 
Heartbeat CPU 0 instructions: 30000000 cycles: 7806656 heartbeat IPC: 3.80362 cumulative IPC: 3.84287 (Simulation time: 0 hr 11 min 35 sec) 
Heartbeat CPU 0 instructions: 32000002 cycles: 8319557 heartbeat IPC: 3.89939 cumulative IPC: 3.84636 (Simulation time: 0 hr 12 min 27 sec) 
Heartbeat CPU 0 instructions: 34000002 cycles: 8841372 heartbeat IPC: 3.83278 cumulative IPC: 3.84556 (Simulation time: 0 hr 13 min 15 sec) 
Heartbeat CPU 0 instructions: 36000000 cycles: 9370342 heartbeat IPC: 3.78093 cumulative IPC: 3.84191 (Simulation time: 0 hr 14 min 5 sec) 
Heartbeat CPU 0 instructions: 38000002 cycles: 9875696 heartbeat IPC: 3.95763 cumulative IPC: 3.84783 (Simulation time: 0 hr 14 min 50 sec) 
Heartbeat CPU 0 instructions: 40000003 cycles: 10408739 heartbeat IPC: 3.75204 cumulative IPC: 3.84293 (Simulation time: 0 hr 15 min 43 sec) 
Heartbeat CPU 0 instructions: 42000000 cycles: 10910106 heartbeat IPC: 3.98909 cumulative IPC: 3.84964 (Simulation time: 0 hr 16 min 26 sec) 
Heartbeat CPU 0 instructions: 44000002 cycles: 11439449 heartbeat IPC: 3.77827 cumulative IPC: 3.84634 (Simulation time: 0 hr 17 min 14 sec) 
Heartbeat CPU 0 instructions: 46000002 cycles: 11946045 heartbeat IPC: 3.94792 cumulative IPC: 3.85065 (Simulation time: 0 hr 18 min 3 sec) 
Heartbeat CPU 0 instructions: 48000002 cycles: 12472336 heartbeat IPC: 3.80018 cumulative IPC: 3.84852 (Simulation time: 0 hr 18 min 51 sec) 
Heartbeat CPU 0 instructions: 50000002 cycles: 12983842 heartbeat IPC: 3.91002 cumulative IPC: 3.85094 (Simulation time: 0 hr 19 min 40 sec) 

Warmup complete CPU 0 instructions: 50000002 cycles: 12983842 (Simulation time: 0 hr 19 min 40 sec) 

Heartbeat CPU 0 instructions: 52000001 cycles: 13900634 heartbeat IPC: 2.18152 cumulative IPC: 2.18152 (Simulation time: 0 hr 20 min 38 sec) 

Region of Interest Statistics
cpu0_DTLB TOTAL     ACCESS:     322273  HIT:     321478  MISS:        795
cpu0_DTLB LOAD      ACCESS:     306949  HIT:     306231  MISS:        718
cpu0_DTLB RFO       ACCESS:      15324  HIT:      15247  MISS:         77
cpu0_DTLB PREFETCH  ACCESS:          0  HIT:          0  MISS:          0
cpu0_DTLB WRITEBACK ACCESS:          0  HIT:          0  MISS:          0
cpu0_ITLB TOTAL     ACCESS:     191141  HIT:     191141  MISS:          0
cpu0_ITLB LOAD      ACCESS:     191141  HIT:     191141  MISS:          0
cpu0_ITLB RFO       ACCESS:          0  HIT:          0  MISS:          0
cpu0_ITLB PREFETCH  ACCESS:          0  HIT:          0  MISS:          0
cpu0_ITLB WRITEBACK ACCESS:          0  HIT:          0  MISS:          0
cpu0_L1I TOTAL     ACCESS:        290  HIT:        290  MISS:          0
cpu0_L1I LOAD      ACCESS:        290  HIT:        290  MISS:          0
cpu0_L1I RFO       ACCESS:          0  HIT:          0  MISS:          0
cpu0_L1I PREFETCH  ACCESS:          0  HIT:          0  MISS:          0
cpu0_L1I WRITEBACK ACCESS:          0  HIT:          0  MISS:          0
cpu0_STLB TOTAL     ACCESS:        795  HIT:        427  MISS:        368
cpu0_STLB LOAD      ACCESS:        718  HIT:        382  MISS:        336
cpu0_STLB RFO       ACCESS:         77  HIT:         45  MISS:         32
cpu0_STLB PREFETCH  ACCESS:          0  HIT:          0  MISS:          0
cpu0_STLB WRITEBACK ACCESS:          0  HIT:          0  MISS:          0
cpu0_L1D TOTAL     ACCESS:     222504  HIT:     194686  MISS:      27818
cpu0_L1D LOAD      ACCESS:     207086  HIT:     182567  MISS:      24519
cpu0_L1D RFO       ACCESS:      15063  HIT:      11775  MISS:       3288
cpu0_L1D PREFETCH  ACCESS:          0  HIT:          0  MISS:          0
cpu0_L1D WRITEBACK ACCESS:          0  HIT:          0  MISS:          0
cpu0_L2C TOTAL     ACCESS:      31188  HIT:       6044  MISS:      25144
cpu0_L2C LOAD      ACCESS:      24519  HIT:       2421  MISS:      22098
cpu0_L2C RFO       ACCESS:       3288  HIT:        243  MISS:       3045
cpu0_L2C PREFETCH  ACCESS:          0  HIT:          0  MISS:          0
cpu0_L2C WRITEBACK ACCESS:       3370  HIT:       3370  MISS:          0
LLC TOTAL     ACCESS:      29112  HIT:      26139  MISS:       2973
LLC LOAD      ACCESS:      22098  HIT:      19454  MISS:       2644
LLC RFO       ACCESS:       3045  HIT:       2716  MISS:        329
LLC PREFETCH  ACCESS:          0  HIT:          0  MISS:          0
LLC WRITEBACK ACCESS:       3968  HIT:       3968  MISS:          0
Heartbeat CPU 0 instructions: 54000000 cycles: 15101349 heartbeat IPC: 1.66567 cumulative IPC: 1.88901 (Simulation time: 0 hr 21 min 42 sec) 

Region of Interest Statistics
cpu0_DTLB TOTAL     ACCESS:     671671  HIT:     666385  MISS:       5286
cpu0_DTLB LOAD      ACCESS:     625724  HIT:     620719  MISS:       5005
cpu0_DTLB RFO       ACCESS:      45947  HIT:      45666  MISS:        281
cpu0_DTLB PREFETCH  ACCESS:          0  HIT:          0  MISS:          0
cpu0_DTLB WRITEBACK ACCESS:          0  HIT:          0  MISS:          0
cpu0_ITLB TOTAL     ACCESS:     372589  HIT:     372589  MISS:          0
cpu0_ITLB LOAD      ACCESS:     372589  HIT:     372589  MISS:          0
cpu0_ITLB RFO       ACCESS:          0  HIT:          0  MISS:          0
cpu0_ITLB PREFETCH  ACCESS:          0  HIT:          0  MISS:          0
cpu0_ITLB WRITEBACK ACCESS:          0  HIT:          0  MISS:          0
cpu0_L1I TOTAL     ACCESS:        722  HIT:        722  MISS:          0
cpu0_L1I LOAD      ACCESS:        722  HIT:        722  MISS:          0
cpu0_L1I RFO       ACCESS:          0  HIT:          0  MISS:          0
cpu0_L1I PREFETCH  ACCESS:          0  HIT:          0  MISS:          0
cpu0_L1I WRITEBACK ACCESS:          0  HIT:          0  MISS:          0
cpu0_STLB TOTAL     ACCESS:       5286  HIT:       3431  MISS:       1855
cpu0_STLB LOAD      ACCESS:       5005  HIT:       3225  MISS:       1780
cpu0_STLB RFO       ACCESS:        281  HIT:        206  MISS:         75
cpu0_STLB PREFETCH  ACCESS:          0  HIT:          0  MISS:          0
cpu0_STLB WRITEBACK ACCESS:          0  HIT:          0  MISS:          0
cpu0_L1D TOTAL     ACCESS:     492505  HIT:     430630  MISS:      61875
cpu0_L1D LOAD      ACCESS:     431946  HIT:     376787  MISS:      55159
cpu0_L1D RFO       ACCESS:      58803  HIT:      52119  MISS:       6684
cpu0_L1D PREFETCH  ACCESS:          0  HIT:          0  MISS:          0
cpu0_L1D WRITEBACK ACCESS:          0  HIT:          0  MISS:          0
cpu0_L2C TOTAL     ACCESS:      69342  HIT:      17676  MISS:      51666
cpu0_L2C LOAD      ACCESS:      55158  HIT:       9804  MISS:      45354
cpu0_L2C RFO       ACCESS:       6684  HIT:        387  MISS:       6297
cpu0_L2C PREFETCH  ACCESS:          0  HIT:          0  MISS:          0
cpu0_L2C WRITEBACK ACCESS:       7468  HIT:       7463  MISS:          5
LLC TOTAL     ACCESS:      56810  HIT:      50517  MISS:       6293
LLC LOAD      ACCESS:      45354  HIT:      39788  MISS:       5566
LLC RFO       ACCESS:       6297  HIT:       5570  MISS:        727
LLC PREFETCH  ACCESS:          0  HIT:          0  MISS:          0
LLC WRITEBACK ACCESS:       5149  HIT:       5149  MISS:          0
Heartbeat CPU 0 instructions: 56000000 cycles: 16026003 heartbeat IPC: 2.16297 cumulative IPC: 1.97228 (Simulation time: 0 hr 22 min 37 sec) 

Region of Interest Statistics
cpu0_DTLB TOTAL     ACCESS:     991096  HIT:     985092  MISS:       6004
cpu0_DTLB LOAD      ACCESS:     934405  HIT:     928703  MISS:       5702
cpu0_DTLB RFO       ACCESS:      56691  HIT:      56389  MISS:        302
cpu0_DTLB PREFETCH  ACCESS:          0  HIT:          0  MISS:          0
cpu0_DTLB WRITEBACK ACCESS:          0  HIT:          0  MISS:          0
cpu0_ITLB TOTAL     ACCESS:     563282  HIT:     563282  MISS:          0
cpu0_ITLB LOAD      ACCESS:     563282  HIT:     563282  MISS:          0
cpu0_ITLB RFO       ACCESS:          0  HIT:          0  MISS:          0
cpu0_ITLB PREFETCH  ACCESS:          0  HIT:          0  MISS:          0
cpu0_ITLB WRITEBACK ACCESS:          0  HIT:          0  MISS:          0
cpu0_L1I TOTAL     ACCESS:        804  HIT:        804  MISS:          0
cpu0_L1I LOAD      ACCESS:        804  HIT:        804  MISS:          0
cpu0_L1I RFO       ACCESS:          0  HIT:          0  MISS:          0
cpu0_L1I PREFETCH  ACCESS:          0  HIT:          0  MISS:          0
cpu0_L1I WRITEBACK ACCESS:          0  HIT:          0  MISS:          0
cpu0_STLB TOTAL     ACCESS:       6004  HIT:       3730  MISS:       2274
cpu0_STLB LOAD      ACCESS:       5702  HIT:       3504  MISS:       2198
cpu0_STLB RFO       ACCESS:        302  HIT:        226  MISS:         76
cpu0_STLB PREFETCH  ACCESS:          0  HIT:          0  MISS:          0
cpu0_STLB WRITEBACK ACCESS:          0  HIT:          0  MISS:          0
cpu0_L1D TOTAL     ACCESS:     721808  HIT:     633338  MISS:      88470
cpu0_L1D LOAD      ACCESS:     646262  HIT:     565459  MISS:      80803
cpu0_L1D RFO       ACCESS:      73392  HIT:      65766  MISS:       7626
cpu0_L1D PREFETCH  ACCESS:          0  HIT:          0  MISS:          0
cpu0_L1D WRITEBACK ACCESS:          0  HIT:          0  MISS:          0
cpu0_L2C TOTAL     ACCESS:      96898  HIT:      19465  MISS:      77433
cpu0_L2C LOAD      ACCESS:      80802  HIT:      10520  MISS:      70282
cpu0_L2C RFO       ACCESS:       7626  HIT:        494  MISS:       7132
cpu0_L2C PREFETCH  ACCESS:          0  HIT:          0  MISS:          0
cpu0_L2C WRITEBACK ACCESS:       8429  HIT:       8423  MISS:          6
LLC TOTAL     ACCESS:      85893  HIT:      76819  MISS:       9074
LLC LOAD      ACCESS:      70282  HIT:      61973  MISS:       8309
LLC RFO       ACCESS:       7132  HIT:       6367  MISS:        765
LLC PREFETCH  ACCESS:          0  HIT:          0  MISS:          0
LLC WRITEBACK ACCESS:       8466  HIT:       8466  MISS:          0
Heartbeat CPU 0 instructions: 58000002 cycles: 17231133 heartbeat IPC: 1.65957 cumulative IPC: 1.88355 (Simulation time: 0 hr 23 min 46 sec) 

Region of Interest Statistics
cpu0_DTLB TOTAL     ACCESS:    1376906  HIT:    1367145  MISS:       9761
cpu0_DTLB LOAD      ACCESS:    1236458  HIT:    1227144  MISS:       9314
cpu0_DTLB RFO       ACCESS:     140448  HIT:     140001  MISS:        447
cpu0_DTLB PREFETCH  ACCESS:          0  HIT:          0  MISS:          0
cpu0_DTLB WRITEBACK ACCESS:          0  HIT:          0  MISS:          0
cpu0_ITLB TOTAL     ACCESS:     716582  HIT:     716582  MISS:          0
cpu0_ITLB LOAD      ACCESS:     716582  HIT:     716582  MISS:          0
cpu0_ITLB RFO       ACCESS:          0  HIT:          0  MISS:          0
cpu0_ITLB PREFETCH  ACCESS:          0  HIT:          0  MISS:          0
cpu0_ITLB WRITEBACK ACCESS:          0  HIT:          0  MISS:          0
cpu0_L1I TOTAL     ACCESS:      25000  HIT:      24958  MISS:         42
cpu0_L1I LOAD      ACCESS:      25000  HIT:      24958  MISS:         42
cpu0_L1I RFO       ACCESS:          0  HIT:          0  MISS:          0
cpu0_L1I PREFETCH  ACCESS:          0  HIT:          0  MISS:          0
cpu0_L1I WRITEBACK ACCESS:          0  HIT:          0  MISS:          0
cpu0_STLB TOTAL     ACCESS:       9761  HIT:       6269  MISS:       3492
cpu0_STLB LOAD      ACCESS:       9314  HIT:       5926  MISS:       3388
cpu0_STLB RFO       ACCESS:        447  HIT:        343  MISS:        104
cpu0_STLB PREFETCH  ACCESS:          0  HIT:          0  MISS:          0
cpu0_STLB WRITEBACK ACCESS:          0  HIT:          0  MISS:          0
cpu0_L1D TOTAL     ACCESS:    1150629  HIT:    1041655  MISS:     108974
cpu0_L1D LOAD      ACCESS:     899148  HIT:     799564  MISS:      99584
cpu0_L1D RFO       ACCESS:     248190  HIT:     238859  MISS:       9331
cpu0_L1D PREFETCH  ACCESS:          0  HIT:          0  MISS:          0
cpu0_L1D WRITEBACK ACCESS:          0  HIT:          0  MISS:          0
cpu0_L2C TOTAL     ACCESS:     119742  HIT:      28507  MISS:      91235
cpu0_L2C LOAD      ACCESS:      99625  HIT:      16883  MISS:      82742
cpu0_L2C RFO       ACCESS:       9331  HIT:        865  MISS:       8466
cpu0_L2C PREFETCH  ACCESS:          0  HIT:          0  MISS:          0
cpu0_L2C WRITEBACK ACCESS:      10727  HIT:      10718  MISS:          9
LLC TOTAL     ACCESS:     100031  HIT:      88912  MISS:      11119
LLC LOAD      ACCESS:      82742  HIT:      72750  MISS:       9992
LLC RFO       ACCESS:       8466  HIT:       7340  MISS:       1126
LLC PREFETCH  ACCESS:          0  HIT:          0  MISS:          0
LLC WRITEBACK ACCESS:       8805  HIT:       8805  MISS:          0
Heartbeat CPU 0 instructions: 60000004 cycles: 18138894 heartbeat IPC: 2.20323 cumulative IPC: 1.93985 (Simulation time: 0 hr 24 min 39 sec) 

Region of Interest Statistics
cpu0_DTLB TOTAL     ACCESS:    1696771  HIT:    1686331  MISS:      10440
cpu0_DTLB LOAD      ACCESS:    1541485  HIT:    1531557  MISS:       9928
cpu0_DTLB RFO       ACCESS:     155286  HIT:     154774  MISS:        512
cpu0_DTLB PREFETCH  ACCESS:          0  HIT:          0  MISS:          0
cpu0_DTLB WRITEBACK ACCESS:          0  HIT:          0  MISS:          0
cpu0_ITLB TOTAL     ACCESS:     904095  HIT:     904095  MISS:          0
cpu0_ITLB LOAD      ACCESS:     904095  HIT:     904095  MISS:          0
cpu0_ITLB RFO       ACCESS:          0  HIT:          0  MISS:          0
cpu0_ITLB PREFETCH  ACCESS:          0  HIT:          0  MISS:          0
cpu0_ITLB WRITEBACK ACCESS:          0  HIT:          0  MISS:          0
cpu0_L1I TOTAL     ACCESS:      25104  HIT:      25056  MISS:         48
cpu0_L1I LOAD      ACCESS:      25104  HIT:      25056  MISS:         48
cpu0_L1I RFO       ACCESS:          0  HIT:          0  MISS:          0
cpu0_L1I PREFETCH  ACCESS:          0  HIT:          0  MISS:          0
cpu0_L1I WRITEBACK ACCESS:          0  HIT:          0  MISS:          0
cpu0_STLB TOTAL     ACCESS:      10440  HIT:       6605  MISS:       3835
cpu0_STLB LOAD      ACCESS:       9928  HIT:       6229  MISS:       3699
cpu0_STLB RFO       ACCESS:        512  HIT:        376  MISS:        136
cpu0_STLB PREFETCH  ACCESS:          0  HIT:          0  MISS:          0
cpu0_STLB WRITEBACK ACCESS:          0  HIT:          0  MISS:          0
cpu0_L1D TOTAL     ACCESS:    1372039  HIT:    1235694  MISS:     136345
cpu0_L1D LOAD      ACCESS:    1105266  HIT:     981522  MISS:     123744
cpu0_L1D RFO       ACCESS:     263154  HIT:     250621  MISS:      12533
cpu0_L1D PREFETCH  ACCESS:          0  HIT:          0  MISS:          0
cpu0_L1D WRITEBACK ACCESS:          0  HIT:          0  MISS:          0
cpu0_L2C TOTAL     ACCESS:     150312  HIT:      34075  MISS:     116237
cpu0_L2C LOAD      ACCESS:     123791  HIT:      19053  MISS:     104738
cpu0_L2C RFO       ACCESS:      12533  HIT:       1062  MISS:      11471
cpu0_L2C PREFETCH  ACCESS:          0  HIT:          0  MISS:          0
cpu0_L2C WRITEBACK ACCESS:      13920  HIT:      13910  MISS:         10
LLC TOTAL     ACCESS:     129580  HIT:     115646  MISS:      13934
LLC LOAD      ACCESS:     104738  HIT:      92211  MISS:      12527
LLC RFO       ACCESS:      11471  HIT:      10065  MISS:       1406
LLC PREFETCH  ACCESS:          0  HIT:          0  MISS:          0
LLC WRITEBACK ACCESS:      13353  HIT:      13353  MISS:          0
Heartbeat CPU 0 instructions: 62000000 cycles: 19296317 heartbeat IPC: 1.72797 cumulative IPC: 1.901 (Simulation time: 0 hr 25 min 43 sec) 

Region of Interest Statistics
cpu0_DTLB TOTAL     ACCESS:    2043494  HIT:    2029054  MISS:      14440
cpu0_DTLB LOAD      ACCESS:    1859338  HIT:    1845615  MISS:      13723
cpu0_DTLB RFO       ACCESS:     184156  HIT:     183439  MISS:        717
cpu0_DTLB PREFETCH  ACCESS:          0  HIT:          0  MISS:          0
cpu0_DTLB WRITEBACK ACCESS:          0  HIT:          0  MISS:          0
cpu0_ITLB TOTAL     ACCESS:    1083748  HIT:    1083748  MISS:          0
cpu0_ITLB LOAD      ACCESS:    1083748  HIT:    1083748  MISS:          0
cpu0_ITLB RFO       ACCESS:          0  HIT:          0  MISS:          0
cpu0_ITLB PREFETCH  ACCESS:          0  HIT:          0  MISS:          0
cpu0_ITLB WRITEBACK ACCESS:          0  HIT:          0  MISS:          0
cpu0_L1I TOTAL     ACCESS:      26156  HIT:      26095  MISS:         61
cpu0_L1I LOAD      ACCESS:      26156  HIT:      26095  MISS:         61
cpu0_L1I RFO       ACCESS:          0  HIT:          0  MISS:          0
cpu0_L1I PREFETCH  ACCESS:          0  HIT:          0  MISS:          0
cpu0_L1I WRITEBACK ACCESS:          0  HIT:          0  MISS:          0
cpu0_STLB TOTAL     ACCESS:      14440  HIT:       9270  MISS:       5170
cpu0_STLB LOAD      ACCESS:      13723  HIT:       8738  MISS:       4985
cpu0_STLB RFO       ACCESS:        717  HIT:        532  MISS:        185
cpu0_STLB PREFETCH  ACCESS:          0  HIT:          0  MISS:          0
cpu0_STLB WRITEBACK ACCESS:          0  HIT:          0  MISS:          0
cpu0_L1D TOTAL     ACCESS:    1637724  HIT:    1468316  MISS:     169408
cpu0_L1D LOAD      ACCESS:    1329883  HIT:    1176569  MISS:     153314
cpu0_L1D RFO       ACCESS:     302966  HIT:     286961  MISS:      16005
cpu0_L1D PREFETCH  ACCESS:          0  HIT:          0  MISS:          0
cpu0_L1D WRITEBACK ACCESS:          0  HIT:          0  MISS:          0
cpu0_L2C TOTAL     ACCESS:     187628  HIT:      44630  MISS:     142998
cpu0_L2C LOAD      ACCESS:     153374  HIT:      25205  MISS:     128169
cpu0_L2C RFO       ACCESS:      16005  HIT:       1216  MISS:      14789
cpu0_L2C PREFETCH  ACCESS:          0  HIT:          0  MISS:          0
cpu0_L2C WRITEBACK ACCESS:      18160  HIT:      18146  MISS:         14
LLC TOTAL     ACCESS:     157481  HIT:     140295  MISS:      17186
LLC LOAD      ACCESS:     128169  HIT:     112755  MISS:      15414
LLC RFO       ACCESS:      14789  HIT:      13018  MISS:       1771
LLC PREFETCH  ACCESS:          0  HIT:          0  MISS:          0
LLC WRITEBACK ACCESS:      14497  HIT:      14497  MISS:          0
Heartbeat CPU 0 instructions: 64000002 cycles: 20194758 heartbeat IPC: 2.22608 cumulative IPC: 1.9415 (Simulation time: 0 hr 26 min 35 sec) 

Region of Interest Statistics
cpu0_DTLB TOTAL     ACCESS:    2362834  HIT:    2347802  MISS:      15032
cpu0_DTLB LOAD      ACCESS:    2168312  HIT:    2154019  MISS:      14293
cpu0_DTLB RFO       ACCESS:     194522  HIT:     193783  MISS:        739
cpu0_DTLB PREFETCH  ACCESS:          0  HIT:          0  MISS:          0
cpu0_DTLB WRITEBACK ACCESS:          0  HIT:          0  MISS:          0
cpu0_ITLB TOTAL     ACCESS:    1274844  HIT:    1274844  MISS:          0
cpu0_ITLB LOAD      ACCESS:    1274844  HIT:    1274844  MISS:          0
cpu0_ITLB RFO       ACCESS:          0  HIT:          0  MISS:          0
cpu0_ITLB PREFETCH  ACCESS:          0  HIT:          0  MISS:          0
cpu0_ITLB WRITEBACK ACCESS:          0  HIT:          0  MISS:          0
cpu0_L1I TOTAL     ACCESS:      26239  HIT:      26178  MISS:         61
cpu0_L1I LOAD      ACCESS:      26239  HIT:      26178  MISS:         61
cpu0_L1I RFO       ACCESS:          0  HIT:          0  MISS:          0
cpu0_L1I PREFETCH  ACCESS:          0  HIT:          0  MISS:          0
cpu0_L1I WRITEBACK ACCESS:          0  HIT:          0  MISS:          0
cpu0_STLB TOTAL     ACCESS:      15032  HIT:       9472  MISS:       5560
cpu0_STLB LOAD      ACCESS:      14293  HIT:       8919  MISS:       5374
cpu0_STLB RFO       ACCESS:        739  HIT:        553  MISS:        186
cpu0_STLB PREFETCH  ACCESS:          0  HIT:          0  MISS:          0
cpu0_STLB WRITEBACK ACCESS:          0  HIT:          0  MISS:          0
cpu0_L1D TOTAL     ACCESS:    1865884  HIT:    1670188  MISS:     195696
cpu0_L1D LOAD      ACCESS:    1543842  HIT:    1365188  MISS:     178654
cpu0_L1D RFO       ACCESS:     316797  HIT:     299853  MISS:      16944
cpu0_L1D PREFETCH  ACCESS:          0  HIT:          0  MISS:          0
cpu0_L1D WRITEBACK ACCESS:          0  HIT:          0  MISS:          0
cpu0_L2C TOTAL     ACCESS:     214843  HIT:      46478  MISS:     168365
cpu0_L2C LOAD      ACCESS:     178714  HIT:      26010  MISS:     152704
cpu0_L2C RFO       ACCESS:      16944  HIT:       1326  MISS:      15618
cpu0_L2C PREFETCH  ACCESS:          0  HIT:          0  MISS:          0
cpu0_L2C WRITEBACK ACCESS:      19087  HIT:      19073  MISS:         14
LLC TOTAL     ACCESS:     186371  HIT:     166686  MISS:      19685
LLC LOAD      ACCESS:     152703  HIT:     134829  MISS:      17874
LLC RFO       ACCESS:      15618  HIT:      13808  MISS:       1810
LLC PREFETCH  ACCESS:          0  HIT:          0  MISS:          0
LLC WRITEBACK ACCESS:      18021  HIT:      18021  MISS:          0
Heartbeat CPU 0 instructions: 66000002 cycles: 21475902 heartbeat IPC: 1.5611 cumulative IPC: 1.88411 (Simulation time: 0 hr 27 min 37 sec) 

Region of Interest Statistics
cpu0_DTLB TOTAL     ACCESS:    2712998  HIT:    2693115  MISS:      19883
cpu0_DTLB LOAD      ACCESS:    2488370  HIT:    2469487  MISS:      18883
cpu0_DTLB RFO       ACCESS:     224628  HIT:     223628  MISS:       1000
cpu0_DTLB PREFETCH  ACCESS:          0  HIT:          0  MISS:          0
cpu0_DTLB WRITEBACK ACCESS:          0  HIT:          0  MISS:          0
cpu0_ITLB TOTAL     ACCESS:    1459507  HIT:    1459507  MISS:          0
cpu0_ITLB LOAD      ACCESS:    1459507  HIT:    1459507  MISS:          0
cpu0_ITLB RFO       ACCESS:          0  HIT:          0  MISS:          0
cpu0_ITLB PREFETCH  ACCESS:          0  HIT:          0  MISS:          0
cpu0_ITLB WRITEBACK ACCESS:          0  HIT:          0  MISS:          0
cpu0_L1I TOTAL     ACCESS:      27908  HIT:      27845  MISS:         63
cpu0_L1I LOAD      ACCESS:      27908  HIT:      27845  MISS:         63
cpu0_L1I RFO       ACCESS:          0  HIT:          0  MISS:          0
cpu0_L1I PREFETCH  ACCESS:          0  HIT:          0  MISS:          0
cpu0_L1I WRITEBACK ACCESS:          0  HIT:          0  MISS:          0
cpu0_STLB TOTAL     ACCESS:      19883  HIT:      12880  MISS:       7003
cpu0_STLB LOAD      ACCESS:      18883  HIT:      12111  MISS:       6772
cpu0_STLB RFO       ACCESS:       1000  HIT:        769  MISS:        231
cpu0_STLB PREFETCH  ACCESS:          0  HIT:          0  MISS:          0
cpu0_STLB WRITEBACK ACCESS:          0  HIT:          0  MISS:          0
cpu0_L1D TOTAL     ACCESS:    2135124  HIT:    1904935  MISS:     230189
cpu0_L1D LOAD      ACCESS:    1768127  HIT:    1558477  MISS:     209650
cpu0_L1D RFO       ACCESS:     360396  HIT:     339978  MISS:      20418
cpu0_L1D PREFETCH  ACCESS:          0  HIT:          0  MISS:          0
cpu0_L1D WRITEBACK ACCESS:          0  HIT:          0  MISS:          0
cpu0_L2C TOTAL     ACCESS:     254031  HIT:      59501  MISS:     194530
cpu0_L2C LOAD      ACCESS:     209712  HIT:      34060  MISS:     175652
cpu0_L2C RFO       ACCESS:      20418  HIT:       1594  MISS:      18824
cpu0_L2C PREFETCH  ACCESS:          0  HIT:          0  MISS:          0
cpu0_L2C WRITEBACK ACCESS:      23780  HIT:      23761  MISS:         19
LLC TOTAL     ACCESS:     214754  HIT:     190907  MISS:      23847
LLC LOAD      ACCESS:     175651  HIT:     153976  MISS:      21675
LLC RFO       ACCESS:      18824  HIT:      16653  MISS:       2171
LLC PREFETCH  ACCESS:          0  HIT:          0  MISS:          0
LLC WRITEBACK ACCESS:      20244  HIT:      20244  MISS:          0
Heartbeat CPU 0 instructions: 68000001 cycles: 22598009 heartbeat IPC: 1.78236 cumulative IPC: 1.87224 (Simulation time: 0 hr 28 min 33 sec) 

Region of Interest Statistics
cpu0_DTLB TOTAL     ACCESS:    3042558  HIT:    3019674  MISS:      22884
cpu0_DTLB LOAD      ACCESS:    2799618  HIT:    2777799  MISS:      21819
cpu0_DTLB RFO       ACCESS:     242940  HIT:     241875  MISS:       1065
cpu0_DTLB PREFETCH  ACCESS:          0  HIT:          0  MISS:          0
cpu0_DTLB WRITEBACK ACCESS:          0  HIT:          0  MISS:          0
cpu0_ITLB TOTAL     ACCESS:    1644827  HIT:    1644827  MISS:          0
cpu0_ITLB LOAD      ACCESS:    1644827  HIT:    1644827  MISS:          0
cpu0_ITLB RFO       ACCESS:          0  HIT:          0  MISS:          0
cpu0_ITLB PREFETCH  ACCESS:          0  HIT:          0  MISS:          0
cpu0_ITLB WRITEBACK ACCESS:          0  HIT:          0  MISS:          0
cpu0_L1I TOTAL     ACCESS:      27964  HIT:      27901  MISS:         63
cpu0_L1I LOAD      ACCESS:      27964  HIT:      27901  MISS:         63
cpu0_L1I RFO       ACCESS:          0  HIT:          0  MISS:          0
cpu0_L1I PREFETCH  ACCESS:          0  HIT:          0  MISS:          0
cpu0_L1I WRITEBACK ACCESS:          0  HIT:          0  MISS:          0
cpu0_STLB TOTAL     ACCESS:      22884  HIT:      14897  MISS:       7987
cpu0_STLB LOAD      ACCESS:      21819  HIT:      14067  MISS:       7752
cpu0_STLB RFO       ACCESS:       1065  HIT:        830  MISS:        235
cpu0_STLB PREFETCH  ACCESS:          0  HIT:          0  MISS:          0
cpu0_STLB WRITEBACK ACCESS:          0  HIT:          0  MISS:          0
cpu0_L1D TOTAL     ACCESS:    2387331  HIT:    2126578  MISS:     260753
cpu0_L1D LOAD      ACCESS:    1990197  HIT:    1750937  MISS:     239260
cpu0_L1D RFO       ACCESS:     389603  HIT:     368240  MISS:      21363
cpu0_L1D PREFETCH  ACCESS:          0  HIT:          0  MISS:          0
cpu0_L1D WRITEBACK ACCESS:          0  HIT:          0  MISS:          0
cpu0_L2C TOTAL     ACCESS:     285559  HIT:      63611  MISS:     221948
cpu0_L2C LOAD      ACCESS:     239322  HIT:      37197  MISS:     202125
cpu0_L2C RFO       ACCESS:      21363  HIT:       1600  MISS:      19763
cpu0_L2C PREFETCH  ACCESS:          0  HIT:          0  MISS:          0
cpu0_L2C WRITEBACK ACCESS:      24744  HIT:      24724  MISS:         20
LLC TOTAL     ACCESS:     244801  HIT:     217423  MISS:      27378
LLC LOAD      ACCESS:     202124  HIT:     176994  MISS:      25130
LLC RFO       ACCESS:      19763  HIT:      17516  MISS:       2247
LLC PREFETCH  ACCESS:          0  HIT:          0  MISS:          0
LLC WRITEBACK ACCESS:      22874  HIT:      22874  MISS:          0
Heartbeat CPU 0 instructions: 70000000 cycles: 23648927 heartbeat IPC: 1.9031 cumulative IPC: 1.87528 (Simulation time: 0 hr 29 min 32 sec) 

Region of Interest Statistics
cpu0_DTLB TOTAL     ACCESS:    3382869  HIT:    3357609  MISS:      25260
cpu0_DTLB LOAD      ACCESS:    3118040  HIT:    3094051  MISS:      23989
cpu0_DTLB RFO       ACCESS:     264829  HIT:     263558  MISS:       1271
cpu0_DTLB PREFETCH  ACCESS:          0  HIT:          0  MISS:          0
cpu0_DTLB WRITEBACK ACCESS:          0  HIT:          0  MISS:          0
cpu0_ITLB TOTAL     ACCESS:    1831845  HIT:    1831845  MISS:          0
cpu0_ITLB LOAD      ACCESS:    1831845  HIT:    1831845  MISS:          0
cpu0_ITLB RFO       ACCESS:          0  HIT:          0  MISS:          0
cpu0_ITLB PREFETCH  ACCESS:          0  HIT:          0  MISS:          0
cpu0_ITLB WRITEBACK ACCESS:          0  HIT:          0  MISS:          0
cpu0_L1I TOTAL     ACCESS:      28851  HIT:      28788  MISS:         63
cpu0_L1I LOAD      ACCESS:      28851  HIT:      28788  MISS:         63
cpu0_L1I RFO       ACCESS:          0  HIT:          0  MISS:          0
cpu0_L1I PREFETCH  ACCESS:          0  HIT:          0  MISS:          0
cpu0_L1I WRITEBACK ACCESS:          0  HIT:          0  MISS:          0
cpu0_STLB TOTAL     ACCESS:      25260  HIT:      16411  MISS:       8849
cpu0_STLB LOAD      ACCESS:      23989  HIT:      15416  MISS:       8573
cpu0_STLB RFO       ACCESS:       1271  HIT:        995  MISS:        276
cpu0_STLB PREFETCH  ACCESS:          0  HIT:          0  MISS:          0
cpu0_STLB WRITEBACK ACCESS:          0  HIT:          0  MISS:          0
cpu0_L1D TOTAL     ACCESS:    2634065  HIT:    2342962  MISS:     291103
cpu0_L1D LOAD      ACCESS:    2208352  HIT:    1942147  MISS:     266205
cpu0_L1D RFO       ACCESS:     417364  HIT:     392617  MISS:      24747
cpu0_L1D PREFETCH  ACCESS:          0  HIT:          0  MISS:          0
cpu0_L1D WRITEBACK ACCESS:          0  HIT:          0  MISS:          0
cpu0_L2C TOTAL     ACCESS:     320407  HIT:      73417  MISS:     246990
cpu0_L2C LOAD      ACCESS:     266265  HIT:      42219  MISS:     224046
cpu0_L2C RFO       ACCESS:      24746  HIT:       1871  MISS:      22875
cpu0_L2C PREFETCH  ACCESS:          0  HIT:          0  MISS:          0
cpu0_L2C WRITEBACK ACCESS:      29245  HIT:      29220  MISS:         25
LLC TOTAL     ACCESS:     273804  HIT:     243585  MISS:      30219
LLC LOAD      ACCESS:     224045  HIT:     196438  MISS:      27607
LLC RFO       ACCESS:      22875  HIT:      20264  MISS:       2611
LLC PREFETCH  ACCESS:          0  HIT:          0  MISS:          0
LLC WRITEBACK ACCESS:      26840  HIT:      26840  MISS:          0
Heartbeat CPU 0 instructions: 72000001 cycles: 24854777 heartbeat IPC: 1.65858 cumulative IPC: 1.85327 (Simulation time: 0 hr 30 min 27 sec) 

Region of Interest Statistics
cpu0_DTLB TOTAL     ACCESS:    3728839  HIT:    3699580  MISS:      29259
cpu0_DTLB LOAD      ACCESS:    3440877  HIT:    3413002  MISS:      27875
cpu0_DTLB RFO       ACCESS:     287962  HIT:     286578  MISS:       1384
cpu0_DTLB PREFETCH  ACCESS:          0  HIT:          0  MISS:          0
cpu0_DTLB WRITEBACK ACCESS:          0  HIT:          0  MISS:          0
cpu0_ITLB TOTAL     ACCESS:    2018379  HIT:    2018379  MISS:          0
cpu0_ITLB LOAD      ACCESS:    2018379  HIT:    2018379  MISS:          0
cpu0_ITLB RFO       ACCESS:          0  HIT:          0  MISS:          0
cpu0_ITLB PREFETCH  ACCESS:          0  HIT:          0  MISS:          0
cpu0_ITLB WRITEBACK ACCESS:          0  HIT:          0  MISS:          0
cpu0_L1I TOTAL     ACCESS:      28884  HIT:      28821  MISS:         63
cpu0_L1I LOAD      ACCESS:      28884  HIT:      28821  MISS:         63
cpu0_L1I RFO       ACCESS:          0  HIT:          0  MISS:          0
cpu0_L1I PREFETCH  ACCESS:          0  HIT:          0  MISS:          0
cpu0_L1I WRITEBACK ACCESS:          0  HIT:          0  MISS:          0
cpu0_STLB TOTAL     ACCESS:      29259  HIT:      19092  MISS:      10167
cpu0_STLB LOAD      ACCESS:      27875  HIT:      17994  MISS:       9881
cpu0_STLB RFO       ACCESS:       1384  HIT:       1098  MISS:        286
cpu0_STLB PREFETCH  ACCESS:          0  HIT:          0  MISS:          0
cpu0_STLB WRITEBACK ACCESS:          0  HIT:          0  MISS:          0
cpu0_L1D TOTAL     ACCESS:    2902639  HIT:    2579574  MISS:     323065
cpu0_L1D LOAD      ACCESS:    2438699  HIT:    2141598  MISS:     297101
cpu0_L1D RFO       ACCESS:     454358  HIT:     428555  MISS:      25803
cpu0_L1D PREFETCH  ACCESS:          0  HIT:          0  MISS:          0
cpu0_L1D WRITEBACK ACCESS:          0  HIT:          0  MISS:          0
cpu0_L2C TOTAL     ACCESS:     353476  HIT:      79805  MISS:     273671
cpu0_L2C LOAD      ACCESS:     297161  HIT:      47492  MISS:     249669
cpu0_L2C RFO       ACCESS:      25802  HIT:       1878  MISS:      23924
cpu0_L2C PREFETCH  ACCESS:          0  HIT:          0  MISS:          0
cpu0_L2C WRITEBACK ACCESS:      30352  HIT:      30322  MISS:         30
LLC TOTAL     ACCESS:     301384  HIT:     267575  MISS:      33809
LLC LOAD      ACCESS:     249668  HIT:     218594  MISS:      31074
LLC RFO       ACCESS:      23924  HIT:      21190  MISS:       2734
LLC PREFETCH  ACCESS:          0  HIT:          0  MISS:          0
LLC WRITEBACK ACCESS:      27744  HIT:      27744  MISS:          0
Heartbeat CPU 0 instructions: 74000002 cycles: 25828336 heartbeat IPC: 2.05432 cumulative IPC: 1.8685 (Simulation time: 0 hr 31 min 17 sec) 

Region of Interest Statistics
cpu0_DTLB TOTAL     ACCESS:    4051812  HIT:    4021191  MISS:      30621
cpu0_DTLB LOAD      ACCESS:    3746733  HIT:    3717638  MISS:      29095
cpu0_DTLB RFO       ACCESS:     305079  HIT:     303553  MISS:       1526
cpu0_DTLB PREFETCH  ACCESS:          0  HIT:          0  MISS:          0
cpu0_DTLB WRITEBACK ACCESS:          0  HIT:          0  MISS:          0
cpu0_ITLB TOTAL     ACCESS:    2203995  HIT:    2203995  MISS:          0
cpu0_ITLB LOAD      ACCESS:    2203995  HIT:    2203995  MISS:          0
cpu0_ITLB RFO       ACCESS:          0  HIT:          0  MISS:          0
cpu0_ITLB PREFETCH  ACCESS:          0  HIT:          0  MISS:          0
cpu0_ITLB WRITEBACK ACCESS:          0  HIT:          0  MISS:          0
cpu0_L1I TOTAL     ACCESS:      29960  HIT:      29897  MISS:         63
cpu0_L1I LOAD      ACCESS:      29960  HIT:      29897  MISS:         63
cpu0_L1I RFO       ACCESS:          0  HIT:          0  MISS:          0
cpu0_L1I PREFETCH  ACCESS:          0  HIT:          0  MISS:          0
cpu0_L1I WRITEBACK ACCESS:          0  HIT:          0  MISS:          0
cpu0_STLB TOTAL     ACCESS:      30621  HIT:      19931  MISS:      10690
cpu0_STLB LOAD      ACCESS:      29095  HIT:      18729  MISS:      10366
cpu0_STLB RFO       ACCESS:       1526  HIT:       1202  MISS:        324
cpu0_STLB PREFETCH  ACCESS:          0  HIT:          0  MISS:          0
cpu0_STLB WRITEBACK ACCESS:          0  HIT:          0  MISS:          0
cpu0_L1D TOTAL     ACCESS:    3133116  HIT:    2781168  MISS:     351948
cpu0_L1D LOAD      ACCESS:    2648546  HIT:    2325824  MISS:     322722
cpu0_L1D RFO       ACCESS:     474477  HIT:     445427  MISS:      29050
cpu0_L1D PREFETCH  ACCESS:          0  HIT:          0  MISS:          0
cpu0_L1D WRITEBACK ACCESS:          0  HIT:          0  MISS:          0
cpu0_L2C TOTAL     ACCESS:     386604  HIT:      87193  MISS:     299411
cpu0_L2C LOAD      ACCESS:     322781  HIT:      50357  MISS:     272424
cpu0_L2C RFO       ACCESS:      29048  HIT:       2144  MISS:      26904
cpu0_L2C PREFETCH  ACCESS:          0  HIT:          0  MISS:          0
cpu0_L2C WRITEBACK ACCESS:      34599  HIT:      34569  MISS:         30
LLC TOTAL     ACCESS:     331206  HIT:     294472  MISS:      36734
LLC LOAD      ACCESS:     272423  HIT:     238755  MISS:      33668
LLC RFO       ACCESS:      26904  HIT:      23839  MISS:       3065
LLC PREFETCH  ACCESS:          0  HIT:          0  MISS:          0
LLC WRITEBACK ACCESS:      31826  HIT:      31826  MISS:          0
Heartbeat CPU 0 instructions: 76000003 cycles: 27007461 heartbeat IPC: 1.69617 cumulative IPC: 1.85402 (Simulation time: 0 hr 32 min 10 sec) 

Region of Interest Statistics
cpu0_DTLB TOTAL     ACCESS:    4395528  HIT:    4360753  MISS:      34775
cpu0_DTLB LOAD      ACCESS:    4067173  HIT:    4034080  MISS:      33093
cpu0_DTLB RFO       ACCESS:     328355  HIT:     326673  MISS:       1682
cpu0_DTLB PREFETCH  ACCESS:          0  HIT:          0  MISS:          0
cpu0_DTLB WRITEBACK ACCESS:          0  HIT:          0  MISS:          0
cpu0_ITLB TOTAL     ACCESS:    2381112  HIT:    2381112  MISS:          0
cpu0_ITLB LOAD      ACCESS:    2381112  HIT:    2381112  MISS:          0
cpu0_ITLB RFO       ACCESS:          0  HIT:          0  MISS:          0
cpu0_ITLB PREFETCH  ACCESS:          0  HIT:          0  MISS:          0
cpu0_ITLB WRITEBACK ACCESS:          0  HIT:          0  MISS:          0
cpu0_L1I TOTAL     ACCESS:      30836  HIT:      30773  MISS:         63
cpu0_L1I LOAD      ACCESS:      30836  HIT:      30773  MISS:         63
cpu0_L1I RFO       ACCESS:          0  HIT:          0  MISS:          0
cpu0_L1I PREFETCH  ACCESS:          0  HIT:          0  MISS:          0
cpu0_L1I WRITEBACK ACCESS:          0  HIT:          0  MISS:          0
cpu0_STLB TOTAL     ACCESS:      34775  HIT:      22696  MISS:      12079
cpu0_STLB LOAD      ACCESS:      33093  HIT:      21354  MISS:      11739
cpu0_STLB RFO       ACCESS:       1682  HIT:       1342  MISS:        340
cpu0_STLB PREFETCH  ACCESS:          0  HIT:          0  MISS:          0
cpu0_STLB WRITEBACK ACCESS:          0  HIT:          0  MISS:          0
cpu0_L1D TOTAL     ACCESS:    3403690  HIT:    3020158  MISS:     383532
cpu0_L1D LOAD      ACCESS:    2878897  HIT:    2525571  MISS:     353326
cpu0_L1D RFO       ACCESS:     513393  HIT:     483380  MISS:      30013
cpu0_L1D PREFETCH  ACCESS:          0  HIT:          0  MISS:          0
cpu0_L1D WRITEBACK ACCESS:          0  HIT:          0  MISS:          0
cpu0_L2C TOTAL     ACCESS:     419870  HIT:      93821  MISS:     326049
cpu0_L2C LOAD      ACCESS:     353385  HIT:      55275  MISS:     298110
cpu0_L2C RFO       ACCESS:      30011  HIT:       2167  MISS:      27844
cpu0_L2C PREFETCH  ACCESS:          0  HIT:          0  MISS:          0
cpu0_L2C WRITEBACK ACCESS:      36281  HIT:      36246  MISS:         35
LLC TOTAL     ACCESS:     358790  HIT:     319036  MISS:      39754
LLC LOAD      ACCESS:     298109  HIT:     261557  MISS:      36552
LLC RFO       ACCESS:      27844  HIT:      24643  MISS:       3201
LLC PREFETCH  ACCESS:          0  HIT:          0  MISS:          0
LLC WRITEBACK ACCESS:      32777  HIT:      32777  MISS:          0
Heartbeat CPU 0 instructions: 78000001 cycles: 27959788 heartbeat IPC: 2.10012 cumulative IPC: 1.86966 (Simulation time: 0 hr 32 min 59 sec) 

Region of Interest Statistics
cpu0_DTLB TOTAL     ACCESS:    4719943  HIT:    4684320  MISS:      35623
cpu0_DTLB LOAD      ACCESS:    4375884  HIT:    4342038  MISS:      33846
cpu0_DTLB RFO       ACCESS:     344059  HIT:     342282  MISS:       1777
cpu0_DTLB PREFETCH  ACCESS:          0  HIT:          0  MISS:          0
cpu0_DTLB WRITEBACK ACCESS:          0  HIT:          0  MISS:          0
cpu0_ITLB TOTAL     ACCESS:    2574885  HIT:    2574885  MISS:          0
cpu0_ITLB LOAD      ACCESS:    2574885  HIT:    2574885  MISS:          0
cpu0_ITLB RFO       ACCESS:          0  HIT:          0  MISS:          0
cpu0_ITLB PREFETCH  ACCESS:          0  HIT:          0  MISS:          0
cpu0_ITLB WRITEBACK ACCESS:          0  HIT:          0  MISS:          0
cpu0_L1I TOTAL     ACCESS:      31324  HIT:      31261  MISS:         63
cpu0_L1I LOAD      ACCESS:      31324  HIT:      31261  MISS:         63
cpu0_L1I RFO       ACCESS:          0  HIT:          0  MISS:          0
cpu0_L1I PREFETCH  ACCESS:          0  HIT:          0  MISS:          0
cpu0_L1I WRITEBACK ACCESS:          0  HIT:          0  MISS:          0
cpu0_STLB TOTAL     ACCESS:      35623  HIT:      23128  MISS:      12495
cpu0_STLB LOAD      ACCESS:      33846  HIT:      21725  MISS:      12121
cpu0_STLB RFO       ACCESS:       1777  HIT:       1403  MISS:        374
cpu0_STLB PREFETCH  ACCESS:          0  HIT:          0  MISS:          0
cpu0_STLB WRITEBACK ACCESS:          0  HIT:          0  MISS:          0
cpu0_L1D TOTAL     ACCESS:    3627019  HIT:    3214935  MISS:     412084
cpu0_L1D LOAD      ACCESS:    3086578  HIT:    2708101  MISS:     378477
cpu0_L1D RFO       ACCESS:     528641  HIT:     495238  MISS:      33403
cpu0_L1D PREFETCH  ACCESS:          0  HIT:          0  MISS:          0
cpu0_L1D WRITEBACK ACCESS:          0  HIT:          0  MISS:          0
cpu0_L2C TOTAL     ACCESS:     451997  HIT:     100021  MISS:     351976
cpu0_L2C LOAD      ACCESS:     378536  HIT:      57628  MISS:     320908
cpu0_L2C RFO       ACCESS:      33401  HIT:       2430  MISS:      30971
cpu0_L2C PREFETCH  ACCESS:          0  HIT:          0  MISS:          0
cpu0_L2C WRITEBACK ACCESS:      39856  HIT:      39821  MISS:         35
LLC TOTAL     ACCESS:     388580  HIT:     345731  MISS:      42849
LLC LOAD      ACCESS:     320907  HIT:     281595  MISS:      39312
LLC RFO       ACCESS:      30971  HIT:      27435  MISS:       3536
LLC PREFETCH  ACCESS:          0  HIT:          0  MISS:          0
LLC WRITEBACK ACCESS:      36640  HIT:      36640  MISS:          0
Heartbeat CPU 0 instructions: 80000002 cycles: 29429522 heartbeat IPC: 1.36079 cumulative IPC: 1.82419 (Simulation time: 0 hr 34 min 1 sec) 

Region of Interest Statistics
cpu0_DTLB TOTAL     ACCESS:    5073629  HIT:    5032557  MISS:      41072
cpu0_DTLB LOAD      ACCESS:    4696625  HIT:    4657605  MISS:      39020
cpu0_DTLB RFO       ACCESS:     377004  HIT:     374952  MISS:       2052
cpu0_DTLB PREFETCH  ACCESS:          0  HIT:          0  MISS:          0
cpu0_DTLB WRITEBACK ACCESS:          0  HIT:          0  MISS:          0
cpu0_ITLB TOTAL     ACCESS:    2753717  HIT:    2753717  MISS:          0
cpu0_ITLB LOAD      ACCESS:    2753717  HIT:    2753717  MISS:          0
cpu0_ITLB RFO       ACCESS:          0  HIT:          0  MISS:          0
cpu0_ITLB PREFETCH  ACCESS:          0  HIT:          0  MISS:          0
cpu0_ITLB WRITEBACK ACCESS:          0  HIT:          0  MISS:          0
cpu0_L1I TOTAL     ACCESS:      32202  HIT:      32139  MISS:         63
cpu0_L1I LOAD      ACCESS:      32202  HIT:      32139  MISS:         63
cpu0_L1I RFO       ACCESS:          0  HIT:          0  MISS:          0
cpu0_L1I PREFETCH  ACCESS:          0  HIT:          0  MISS:          0
cpu0_L1I WRITEBACK ACCESS:          0  HIT:          0  MISS:          0
cpu0_STLB TOTAL     ACCESS:      41072  HIT:      26831  MISS:      14241
cpu0_STLB LOAD      ACCESS:      39020  HIT:      25202  MISS:      13818
cpu0_STLB RFO       ACCESS:       2052  HIT:       1629  MISS:        423
cpu0_STLB PREFETCH  ACCESS:          0  HIT:          0  MISS:          0
cpu0_STLB WRITEBACK ACCESS:          0  HIT:          0  MISS:          0
cpu0_L1D TOTAL     ACCESS:    3904453  HIT:    3456120  MISS:     448333
cpu0_L1D LOAD      ACCESS:    3313485  HIT:    2902242  MISS:     411243
cpu0_L1D RFO       ACCESS:     577521  HIT:     540659  MISS:      36862
cpu0_L1D PREFETCH  ACCESS:          0  HIT:          0  MISS:          0
cpu0_L1D WRITEBACK ACCESS:          0  HIT:          0  MISS:          0
cpu0_L2C TOTAL     ACCESS:     492824  HIT:     113032  MISS:     379792
cpu0_L2C LOAD      ACCESS:     411302  HIT:      65827  MISS:     345475
cpu0_L2C RFO       ACCESS:      36860  HIT:       2654  MISS:      34206
cpu0_L2C PREFETCH  ACCESS:          0  HIT:          0  MISS:          0
cpu0_L2C WRITEBACK ACCESS:      44434  HIT:      44393  MISS:         41
LLC TOTAL     ACCESS:     417794  HIT:     369182  MISS:      48612
LLC LOAD      ACCESS:     345474  HIT:     300896  MISS:      44578
LLC RFO       ACCESS:      34206  HIT:      30173  MISS:       4033
LLC PREFETCH  ACCESS:          0  HIT:          0  MISS:          0
LLC WRITEBACK ACCESS:      38044  HIT:      38044  MISS:          0
Heartbeat CPU 0 instructions: 82000000 cycles: 30395901 heartbeat IPC: 2.06958 cumulative IPC: 1.83781 (Simulation time: 0 hr 34 min 53 sec) 

Region of Interest Statistics
cpu0_DTLB TOTAL     ACCESS:    5392750  HIT:    5351127  MISS:      41623
cpu0_DTLB LOAD      ACCESS:    5005689  HIT:    4966138  MISS:      39551
cpu0_DTLB RFO       ACCESS:     387061  HIT:     384989  MISS:       2072
cpu0_DTLB PREFETCH  ACCESS:          0  HIT:          0  MISS:          0
cpu0_DTLB WRITEBACK ACCESS:          0  HIT:          0  MISS:          0
cpu0_ITLB TOTAL     ACCESS:    2946330  HIT:    2946330  MISS:          0
cpu0_ITLB LOAD      ACCESS:    2946330  HIT:    2946330  MISS:          0
cpu0_ITLB RFO       ACCESS:          0  HIT:          0  MISS:          0
cpu0_ITLB PREFETCH  ACCESS:          0  HIT:          0  MISS:          0
cpu0_ITLB WRITEBACK ACCESS:          0  HIT:          0  MISS:          0
cpu0_L1I TOTAL     ACCESS:      32284  HIT:      32221  MISS:         63
cpu0_L1I LOAD      ACCESS:      32284  HIT:      32221  MISS:         63
cpu0_L1I RFO       ACCESS:          0  HIT:          0  MISS:          0
cpu0_L1I PREFETCH  ACCESS:          0  HIT:          0  MISS:          0
cpu0_L1I WRITEBACK ACCESS:          0  HIT:          0  MISS:          0
cpu0_STLB TOTAL     ACCESS:      41623  HIT:      26987  MISS:      14636
cpu0_STLB LOAD      ACCESS:      39551  HIT:      25338  MISS:      14213
cpu0_STLB RFO       ACCESS:       2072  HIT:       1649  MISS:        423
cpu0_STLB PREFETCH  ACCESS:          0  HIT:          0  MISS:          0
cpu0_STLB WRITEBACK ACCESS:          0  HIT:          0  MISS:          0
cpu0_L1D TOTAL     ACCESS:    4130982  HIT:    3656478  MISS:     474504
cpu0_L1D LOAD      ACCESS:    3526410  HIT:    3089921  MISS:     436489
cpu0_L1D RFO       ACCESS:     590746  HIT:     552969  MISS:      37777
cpu0_L1D PREFETCH  ACCESS:          0  HIT:          0  MISS:          0
cpu0_L1D WRITEBACK ACCESS:          0  HIT:          0  MISS:          0
cpu0_L2C TOTAL     ACCESS:     519920  HIT:     114977  MISS:     404943
cpu0_L2C LOAD      ACCESS:     436548  HIT:      66733  MISS:     369815
cpu0_L2C RFO       ACCESS:      37775  HIT:       2761  MISS:      35014
cpu0_L2C PREFETCH  ACCESS:          0  HIT:          0  MISS:          0
cpu0_L2C WRITEBACK ACCESS:      45359  HIT:      45318  MISS:         41
LLC TOTAL     ACCESS:     446349  HIT:     394165  MISS:      52184
LLC LOAD      ACCESS:     369814  HIT:     321706  MISS:      48108
LLC RFO       ACCESS:      35014  HIT:      30939  MISS:       4075
LLC PREFETCH  ACCESS:          0  HIT:          0  MISS:          0
LLC WRITEBACK ACCESS:      41448  HIT:      41448  MISS:          0
Heartbeat CPU 0 instructions: 84000002 cycles: 31588767 heartbeat IPC: 1.67664 cumulative IPC: 1.82747 (Simulation time: 0 hr 35 min 51 sec) 

Region of Interest Statistics
cpu0_DTLB TOTAL     ACCESS:    5741954  HIT:    5695881  MISS:      46073
cpu0_DTLB LOAD      ACCESS:    5326222  HIT:    5282448  MISS:      43774
cpu0_DTLB RFO       ACCESS:     415732  HIT:     413433  MISS:       2299
cpu0_DTLB PREFETCH  ACCESS:          0  HIT:          0  MISS:          0
cpu0_DTLB WRITEBACK ACCESS:          0  HIT:          0  MISS:          0
cpu0_ITLB TOTAL     ACCESS:    3125586  HIT:    3125586  MISS:          0
cpu0_ITLB LOAD      ACCESS:    3125586  HIT:    3125586  MISS:          0
cpu0_ITLB RFO       ACCESS:          0  HIT:          0  MISS:          0
cpu0_ITLB PREFETCH  ACCESS:          0  HIT:          0  MISS:          0
cpu0_ITLB WRITEBACK ACCESS:          0  HIT:          0  MISS:          0
cpu0_L1I TOTAL     ACCESS:      33234  HIT:      33171  MISS:         63
cpu0_L1I LOAD      ACCESS:      33234  HIT:      33171  MISS:         63
cpu0_L1I RFO       ACCESS:          0  HIT:          0  MISS:          0
cpu0_L1I PREFETCH  ACCESS:          0  HIT:          0  MISS:          0
cpu0_L1I WRITEBACK ACCESS:          0  HIT:          0  MISS:          0
cpu0_STLB TOTAL     ACCESS:      46073  HIT:      29980  MISS:      16093
cpu0_STLB LOAD      ACCESS:      43774  HIT:      28146  MISS:      15628
cpu0_STLB RFO       ACCESS:       2299  HIT:       1834  MISS:        465
cpu0_STLB PREFETCH  ACCESS:          0  HIT:          0  MISS:          0
cpu0_STLB WRITEBACK ACCESS:          0  HIT:          0  MISS:          0
cpu0_L1D TOTAL     ACCESS:    4395330  HIT:    3887527  MISS:     507803
cpu0_L1D LOAD      ACCESS:    3748943  HIT:    3282510  MISS:     466433
cpu0_L1D RFO       ACCESS:     631209  HIT:     590099  MISS:      41110
cpu0_L1D PREFETCH  ACCESS:          0  HIT:          0  MISS:          0
cpu0_L1D WRITEBACK ACCESS:          0  HIT:          0  MISS:          0
cpu0_L2C TOTAL     ACCESS:     557326  HIT:     126573  MISS:     430753
cpu0_L2C LOAD      ACCESS:     466492  HIT:      74067  MISS:     392425
cpu0_L2C RFO       ACCESS:      41108  HIT:       2903  MISS:      38205
cpu0_L2C PREFETCH  ACCESS:          0  HIT:          0  MISS:          0
cpu0_L2C WRITEBACK ACCESS:      49466  HIT:      49419  MISS:         47
LLC TOTAL     ACCESS:     473995  HIT:     418593  MISS:      55402
LLC LOAD      ACCESS:     392423  HIT:     341512  MISS:      50911
LLC RFO       ACCESS:      38205  HIT:      33715  MISS:       4490
LLC PREFETCH  ACCESS:          0  HIT:          0  MISS:          0
LLC WRITEBACK ACCESS:      43291  HIT:      43291  MISS:          0
Heartbeat CPU 0 instructions: 86000000 cycles: 32540036 heartbeat IPC: 2.10245 cumulative IPC: 1.84085 (Simulation time: 0 hr 36 min 44 sec) 

Region of Interest Statistics
cpu0_DTLB TOTAL     ACCESS:    6079570  HIT:    6031941  MISS:      47629
cpu0_DTLB LOAD      ACCESS:    5647303  HIT:    5602032  MISS:      45271
cpu0_DTLB RFO       ACCESS:     432267  HIT:     429909  MISS:       2358
cpu0_DTLB PREFETCH  ACCESS:          0  HIT:          0  MISS:          0
cpu0_DTLB WRITEBACK ACCESS:          0  HIT:          0  MISS:          0
cpu0_ITLB TOTAL     ACCESS:    3304517  HIT:    3304517  MISS:          0
cpu0_ITLB LOAD      ACCESS:    3304517  HIT:    3304517  MISS:          0
cpu0_ITLB RFO       ACCESS:          0  HIT:          0  MISS:          0
cpu0_ITLB PREFETCH  ACCESS:          0  HIT:          0  MISS:          0
cpu0_ITLB WRITEBACK ACCESS:          0  HIT:          0  MISS:          0
cpu0_L1I TOTAL     ACCESS:      33282  HIT:      33219  MISS:         63
cpu0_L1I LOAD      ACCESS:      33282  HIT:      33219  MISS:         63
cpu0_L1I RFO       ACCESS:          0  HIT:          0  MISS:          0
cpu0_L1I PREFETCH  ACCESS:          0  HIT:          0  MISS:          0
cpu0_L1I WRITEBACK ACCESS:          0  HIT:          0  MISS:          0
cpu0_STLB TOTAL     ACCESS:      47629  HIT:      31158  MISS:      16471
cpu0_STLB LOAD      ACCESS:      45271  HIT:      29269  MISS:      16002
cpu0_STLB RFO       ACCESS:       2358  HIT:       1889  MISS:        469
cpu0_STLB PREFETCH  ACCESS:          0  HIT:          0  MISS:          0
cpu0_STLB WRITEBACK ACCESS:          0  HIT:          0  MISS:          0
cpu0_L1D TOTAL     ACCESS:    4645330  HIT:    4110970  MISS:     534360
cpu0_L1D LOAD      ACCESS:    3976897  HIT:    3485034  MISS:     491863
cpu0_L1D RFO       ACCESS:     652893  HIT:     610667  MISS:      42226
cpu0_L1D PREFETCH  ACCESS:          0  HIT:          0  MISS:          0
cpu0_L1D WRITEBACK ACCESS:          0  HIT:          0  MISS:          0
cpu0_L2C TOTAL     ACCESS:     585013  HIT:     129130  MISS:     455883
cpu0_L2C LOAD      ACCESS:     491922  HIT:      75485  MISS:     416437
cpu0_L2C RFO       ACCESS:      42224  HIT:       2906  MISS:      39318
cpu0_L2C PREFETCH  ACCESS:          0  HIT:          0  MISS:          0
cpu0_L2C WRITEBACK ACCESS:      50596  HIT:      50548  MISS:         48
LLC TOTAL     ACCESS:     501797  HIT:     443829  MISS:      57968
LLC LOAD      ACCESS:     416435  HIT:     363057  MISS:      53378
LLC RFO       ACCESS:      39318  HIT:      34729  MISS:       4589
LLC PREFETCH  ACCESS:          0  HIT:          0  MISS:          0
LLC WRITEBACK ACCESS:      45964  HIT:      45964  MISS:          0
Heartbeat CPU 0 instructions: 88000001 cycles: 33375554 heartbeat IPC: 2.39373 cumulative IPC: 1.8635 (Simulation time: 0 hr 37 min 33 sec) 

Region of Interest Statistics
cpu0_DTLB TOTAL     ACCESS:    6398909  HIT:    6350515  MISS:      48394
cpu0_DTLB LOAD      ACCESS:    5951486  HIT:    5905529  MISS:      45957
cpu0_DTLB RFO       ACCESS:     447423  HIT:     444986  MISS:       2437
cpu0_DTLB PREFETCH  ACCESS:          0  HIT:          0  MISS:          0
cpu0_DTLB WRITEBACK ACCESS:          0  HIT:          0  MISS:          0
cpu0_ITLB TOTAL     ACCESS:    3478201  HIT:    3478201  MISS:          0
cpu0_ITLB LOAD      ACCESS:    3478201  HIT:    3478201  MISS:          0
cpu0_ITLB RFO       ACCESS:          0  HIT:          0  MISS:          0
cpu0_ITLB PREFETCH  ACCESS:          0  HIT:          0  MISS:          0
cpu0_ITLB WRITEBACK ACCESS:          0  HIT:          0  MISS:          0
cpu0_L1I TOTAL     ACCESS:      33810  HIT:      33747  MISS:         63
cpu0_L1I LOAD      ACCESS:      33810  HIT:      33747  MISS:         63
cpu0_L1I RFO       ACCESS:          0  HIT:          0  MISS:          0
cpu0_L1I PREFETCH  ACCESS:          0  HIT:          0  MISS:          0
cpu0_L1I WRITEBACK ACCESS:          0  HIT:          0  MISS:          0
cpu0_STLB TOTAL     ACCESS:      48394  HIT:      31914  MISS:      16480
cpu0_STLB LOAD      ACCESS:      45957  HIT:      29947  MISS:      16010
cpu0_STLB RFO       ACCESS:       2437  HIT:       1967  MISS:        470
cpu0_STLB PREFETCH  ACCESS:          0  HIT:          0  MISS:          0
cpu0_STLB WRITEBACK ACCESS:          0  HIT:          0  MISS:          0
cpu0_L1D TOTAL     ACCESS:    4868957  HIT:    4307489  MISS:     561468
cpu0_L1D LOAD      ACCESS:    4183902  HIT:    3667966  MISS:     515936
cpu0_L1D RFO       ACCESS:     669506  HIT:     624253  MISS:      45253
cpu0_L1D PREFETCH  ACCESS:          0  HIT:          0  MISS:          0
cpu0_L1D WRITEBACK ACCESS:          0  HIT:          0  MISS:          0
cpu0_L2C TOTAL     ACCESS:     615423  HIT:     134734  MISS:     480689
cpu0_L2C LOAD      ACCESS:     515995  HIT:      77697  MISS:     438298
cpu0_L2C RFO       ACCESS:      45251  HIT:       2990  MISS:      42261
cpu0_L2C PREFETCH  ACCESS:          0  HIT:          0  MISS:          0
cpu0_L2C WRITEBACK ACCESS:      53898  HIT:      53850  MISS:         48
LLC TOTAL     ACCESS:     530166  HIT:     471060  MISS:      59106
LLC LOAD      ACCESS:     438296  HIT:     383930  MISS:      54366
LLC RFO       ACCESS:      42261  HIT:      37522  MISS:       4739
LLC PREFETCH  ACCESS:          0  HIT:          0  MISS:          0
LLC WRITEBACK ACCESS:      49527  HIT:      49527  MISS:          0
Heartbeat CPU 0 instructions: 90000001 cycles: 34229478 heartbeat IPC: 2.34213 cumulative IPC: 1.88274 (Simulation time: 0 hr 38 min 24 sec) 

Region of Interest Statistics
cpu0_DTLB TOTAL     ACCESS:    6739111  HIT:    6689148  MISS:      49963
cpu0_DTLB LOAD      ACCESS:    6269863  HIT:    6222447  MISS:      47416
cpu0_DTLB RFO       ACCESS:     469248  HIT:     466701  MISS:       2547
cpu0_DTLB PREFETCH  ACCESS:          0  HIT:          0  MISS:          0
cpu0_DTLB WRITEBACK ACCESS:          0  HIT:          0  MISS:          0
cpu0_ITLB TOTAL     ACCESS:    3643938  HIT:    3643938  MISS:          0
cpu0_ITLB LOAD      ACCESS:    3643938  HIT:    3643938  MISS:          0
cpu0_ITLB RFO       ACCESS:          0  HIT:          0  MISS:          0
cpu0_ITLB PREFETCH  ACCESS:          0  HIT:          0  MISS:          0
cpu0_ITLB WRITEBACK ACCESS:          0  HIT:          0  MISS:          0
cpu0_L1I TOTAL     ACCESS:      34082  HIT:      34019  MISS:         63
cpu0_L1I LOAD      ACCESS:      34082  HIT:      34019  MISS:         63
cpu0_L1I RFO       ACCESS:          0  HIT:          0  MISS:          0
cpu0_L1I PREFETCH  ACCESS:          0  HIT:          0  MISS:          0
cpu0_L1I WRITEBACK ACCESS:          0  HIT:          0  MISS:          0
cpu0_STLB TOTAL     ACCESS:      49963  HIT:      33460  MISS:      16503
cpu0_STLB LOAD      ACCESS:      47416  HIT:      31384  MISS:      16032
cpu0_STLB RFO       ACCESS:       2547  HIT:       2076  MISS:        471
cpu0_STLB PREFETCH  ACCESS:          0  HIT:          0  MISS:          0
cpu0_STLB WRITEBACK ACCESS:          0  HIT:          0  MISS:          0
cpu0_L1D TOTAL     ACCESS:    5112474  HIT:    4524012  MISS:     588462
cpu0_L1D LOAD      ACCESS:    4402777  HIT:    3863197  MISS:     539580
cpu0_L1D RFO       ACCESS:     694125  HIT:     645535  MISS:      48590
cpu0_L1D PREFETCH  ACCESS:          0  HIT:          0  MISS:          0
cpu0_L1D WRITEBACK ACCESS:          0  HIT:          0  MISS:          0
cpu0_L2C TOTAL     ACCESS:     645975  HIT:     141721  MISS:     504254
cpu0_L2C LOAD      ACCESS:     539639  HIT:      81029  MISS:     458610
cpu0_L2C RFO       ACCESS:      48588  HIT:       3079  MISS:      45509
cpu0_L2C PREFETCH  ACCESS:          0  HIT:          0  MISS:          0
cpu0_L2C WRITEBACK ACCESS:      57456  HIT:      57407  MISS:         49
LLC TOTAL     ACCESS:     554799  HIT:     494597  MISS:      60202
LLC LOAD      ACCESS:     458608  HIT:     403316  MISS:      55292
LLC RFO       ACCESS:      45509  HIT:      40600  MISS:       4909
LLC PREFETCH  ACCESS:          0  HIT:          0  MISS:          0
LLC WRITEBACK ACCESS:      50596  HIT:      50596  MISS:          0
Heartbeat CPU 0 instructions: 92000000 cycles: 35061820 heartbeat IPC: 2.40286 cumulative IPC: 1.90235 (Simulation time: 0 hr 39 min 7 sec) 

Region of Interest Statistics
cpu0_DTLB TOTAL     ACCESS:    7067090  HIT:    7016182  MISS:      50908
cpu0_DTLB LOAD      ACCESS:    6583765  HIT:    6535428  MISS:      48337
cpu0_DTLB RFO       ACCESS:     483325  HIT:     480754  MISS:       2571
cpu0_DTLB PREFETCH  ACCESS:          0  HIT:          0  MISS:          0
cpu0_DTLB WRITEBACK ACCESS:          0  HIT:          0  MISS:          0
cpu0_ITLB TOTAL     ACCESS:    3820463  HIT:    3820463  MISS:          0
cpu0_ITLB LOAD      ACCESS:    3820463  HIT:    3820463  MISS:          0
cpu0_ITLB RFO       ACCESS:          0  HIT:          0  MISS:          0
cpu0_ITLB PREFETCH  ACCESS:          0  HIT:          0  MISS:          0
cpu0_ITLB WRITEBACK ACCESS:          0  HIT:          0  MISS:          0
cpu0_L1I TOTAL     ACCESS:      34130  HIT:      34067  MISS:         63
cpu0_L1I LOAD      ACCESS:      34130  HIT:      34067  MISS:         63
cpu0_L1I RFO       ACCESS:          0  HIT:          0  MISS:          0
cpu0_L1I PREFETCH  ACCESS:          0  HIT:          0  MISS:          0
cpu0_L1I WRITEBACK ACCESS:          0  HIT:          0  MISS:          0
cpu0_STLB TOTAL     ACCESS:      50908  HIT:      34400  MISS:      16508
cpu0_STLB LOAD      ACCESS:      48337  HIT:      32301  MISS:      16036
cpu0_STLB RFO       ACCESS:       2571  HIT:       2099  MISS:        472
cpu0_STLB PREFETCH  ACCESS:          0  HIT:          0  MISS:          0
cpu0_STLB WRITEBACK ACCESS:          0  HIT:          0  MISS:          0
cpu0_L1D TOTAL     ACCESS:    5355407  HIT:    4740932  MISS:     614475
cpu0_L1D LOAD      ACCESS:    4627404  HIT:    4062893  MISS:     564511
cpu0_L1D RFO       ACCESS:     712426  HIT:     662759  MISS:      49667
cpu0_L1D PREFETCH  ACCESS:          0  HIT:          0  MISS:          0
cpu0_L1D WRITEBACK ACCESS:          0  HIT:          0  MISS:          0
cpu0_L2C TOTAL     ACCESS:     672989  HIT:     143040  MISS:     529949
cpu0_L2C LOAD      ACCESS:     564570  HIT:      81347  MISS:     483223
cpu0_L2C RFO       ACCESS:      49665  HIT:       3079  MISS:      46586
cpu0_L2C PREFETCH  ACCESS:          0  HIT:          0  MISS:          0
cpu0_L2C WRITEBACK ACCESS:      58457  HIT:      58407  MISS:         50
LLC TOTAL     ACCESS:     583678  HIT:     522153  MISS:      61525
LLC LOAD      ACCESS:     483221  HIT:     426649  MISS:      56572
LLC RFO       ACCESS:      46586  HIT:      41634  MISS:       4952
LLC PREFETCH  ACCESS:          0  HIT:          0  MISS:          0
LLC WRITEBACK ACCESS:      53781  HIT:      53781  MISS:          0
Heartbeat CPU 0 instructions: 94000001 cycles: 35896650 heartbeat IPC: 2.3957 cumulative IPC: 1.92032 (Simulation time: 0 hr 39 min 58 sec) 

Region of Interest Statistics
cpu0_DTLB TOTAL     ACCESS:    7395885  HIT:    7343984  MISS:      51901
cpu0_DTLB LOAD      ACCESS:    6895997  HIT:    6846762  MISS:      49235
cpu0_DTLB RFO       ACCESS:     499888  HIT:     497222  MISS:       2666
cpu0_DTLB PREFETCH  ACCESS:          0  HIT:          0  MISS:          0
cpu0_DTLB WRITEBACK ACCESS:          0  HIT:          0  MISS:          0
cpu0_ITLB TOTAL     ACCESS:    3999718  HIT:    3999718  MISS:          0
cpu0_ITLB LOAD      ACCESS:    3999718  HIT:    3999718  MISS:          0
cpu0_ITLB RFO       ACCESS:          0  HIT:          0  MISS:          0
cpu0_ITLB PREFETCH  ACCESS:          0  HIT:          0  MISS:          0
cpu0_ITLB WRITEBACK ACCESS:          0  HIT:          0  MISS:          0
cpu0_L1I TOTAL     ACCESS:      34479  HIT:      34416  MISS:         63
cpu0_L1I LOAD      ACCESS:      34479  HIT:      34416  MISS:         63
cpu0_L1I RFO       ACCESS:          0  HIT:          0  MISS:          0
cpu0_L1I PREFETCH  ACCESS:          0  HIT:          0  MISS:          0
cpu0_L1I WRITEBACK ACCESS:          0  HIT:          0  MISS:          0
cpu0_STLB TOTAL     ACCESS:      51901  HIT:      35385  MISS:      16516
cpu0_STLB LOAD      ACCESS:      49235  HIT:      33191  MISS:      16044
cpu0_STLB RFO       ACCESS:       2666  HIT:       2194  MISS:        472
cpu0_STLB PREFETCH  ACCESS:          0  HIT:          0  MISS:          0
cpu0_STLB WRITEBACK ACCESS:          0  HIT:          0  MISS:          0
cpu0_L1D TOTAL     ACCESS:    5585890  HIT:    4944415  MISS:     641475
cpu0_L1D LOAD      ACCESS:    4839425  HIT:    4250998  MISS:     588427
cpu0_L1D RFO       ACCESS:     730880  HIT:     678137  MISS:      52743
cpu0_L1D PREFETCH  ACCESS:          0  HIT:          0  MISS:          0
cpu0_L1D WRITEBACK ACCESS:          0  HIT:          0  MISS:          0
cpu0_L2C TOTAL     ACCESS:     703361  HIT:     149484  MISS:     553877
cpu0_L2C LOAD      ACCESS:     588486  HIT:      84326  MISS:     504160
cpu0_L2C RFO       ACCESS:      52741  HIT:       3166  MISS:      49575
cpu0_L2C PREFETCH  ACCESS:          0  HIT:          0  MISS:          0
cpu0_L2C WRITEBACK ACCESS:      61829  HIT:      61779  MISS:         50
LLC TOTAL     ACCESS:     611057  HIT:     548760  MISS:      62297
LLC LOAD      ACCESS:     504158  HIT:     446936  MISS:      57222
LLC RFO       ACCESS:      49575  HIT:      44501  MISS:       5074
LLC PREFETCH  ACCESS:          0  HIT:          0  MISS:          0
LLC WRITEBACK ACCESS:      57232  HIT:      57232  MISS:          0
Heartbeat CPU 0 instructions: 96000002 cycles: 36770058 heartbeat IPC: 2.28988 cumulative IPC: 1.93389 (Simulation time: 0 hr 40 min 46 sec) 

Region of Interest Statistics
cpu0_DTLB TOTAL     ACCESS:    7734166  HIT:    7680771  MISS:      53395
cpu0_DTLB LOAD      ACCESS:    7212499  HIT:    7161872  MISS:      50627
cpu0_DTLB RFO       ACCESS:     521667  HIT:     518899  MISS:       2768
cpu0_DTLB PREFETCH  ACCESS:          0  HIT:          0  MISS:          0
cpu0_DTLB WRITEBACK ACCESS:          0  HIT:          0  MISS:          0
cpu0_ITLB TOTAL     ACCESS:    4165368  HIT:    4165368  MISS:          0
cpu0_ITLB LOAD      ACCESS:    4165368  HIT:    4165368  MISS:          0
cpu0_ITLB RFO       ACCESS:          0  HIT:          0  MISS:          0
cpu0_ITLB PREFETCH  ACCESS:          0  HIT:          0  MISS:          0
cpu0_ITLB WRITEBACK ACCESS:          0  HIT:          0  MISS:          0
cpu0_L1I TOTAL     ACCESS:      34764  HIT:      34701  MISS:         63
cpu0_L1I LOAD      ACCESS:      34764  HIT:      34701  MISS:         63
cpu0_L1I RFO       ACCESS:          0  HIT:          0  MISS:          0
cpu0_L1I PREFETCH  ACCESS:          0  HIT:          0  MISS:          0
cpu0_L1I WRITEBACK ACCESS:          0  HIT:          0  MISS:          0
cpu0_STLB TOTAL     ACCESS:      53395  HIT:      36867  MISS:      16528
cpu0_STLB LOAD      ACCESS:      50627  HIT:      34572  MISS:      16055
cpu0_STLB RFO       ACCESS:       2768  HIT:       2295  MISS:        473
cpu0_STLB PREFETCH  ACCESS:          0  HIT:          0  MISS:          0
cpu0_STLB WRITEBACK ACCESS:          0  HIT:          0  MISS:          0
cpu0_L1D TOTAL     ACCESS:    5832023  HIT:    5163383  MISS:     668640
cpu0_L1D LOAD      ACCESS:    5060848  HIT:    4448600  MISS:     612248
cpu0_L1D RFO       ACCESS:     755578  HIT:     699500  MISS:      56078
cpu0_L1D PREFETCH  ACCESS:          0  HIT:          0  MISS:          0
cpu0_L1D WRITEBACK ACCESS:          0  HIT:          0  MISS:          0
cpu0_L2C TOTAL     ACCESS:     734075  HIT:     155566  MISS:     578509
cpu0_L2C LOAD      ACCESS:     612307  HIT:      86803  MISS:     525504
cpu0_L2C RFO       ACCESS:      56076  HIT:       3218  MISS:      52858
cpu0_L2C PREFETCH  ACCESS:          0  HIT:          0  MISS:          0
cpu0_L2C WRITEBACK ACCESS:      65378  HIT:      65327  MISS:         51
LLC TOTAL     ACCESS:     636772  HIT:     573106  MISS:      63666
LLC LOAD      ACCESS:     525502  HIT:     467091  MISS:      58411
LLC RFO       ACCESS:      52858  HIT:      47604  MISS:       5254
LLC PREFETCH  ACCESS:          0  HIT:          0  MISS:          0
LLC WRITEBACK ACCESS:      58316  HIT:      58316  MISS:          0
Heartbeat CPU 0 instructions: 98000002 cycles: 37579521 heartbeat IPC: 2.47077 cumulative IPC: 1.95156 (Simulation time: 0 hr 41 min 30 sec) 

Region of Interest Statistics
cpu0_DTLB TOTAL     ACCESS:    8054480  HIT:    8000624  MISS:      53856
cpu0_DTLB LOAD      ACCESS:    7523018  HIT:    7471947  MISS:      51071
cpu0_DTLB RFO       ACCESS:     531462  HIT:     528677  MISS:       2785
cpu0_DTLB PREFETCH  ACCESS:          0  HIT:          0  MISS:          0
cpu0_DTLB WRITEBACK ACCESS:          0  HIT:          0  MISS:          0
cpu0_ITLB TOTAL     ACCESS:    4351331  HIT:    4351331  MISS:          0
cpu0_ITLB LOAD      ACCESS:    4351331  HIT:    4351331  MISS:          0
cpu0_ITLB RFO       ACCESS:          0  HIT:          0  MISS:          0
cpu0_ITLB PREFETCH  ACCESS:          0  HIT:          0  MISS:          0
cpu0_ITLB WRITEBACK ACCESS:          0  HIT:          0  MISS:          0
cpu0_L1I TOTAL     ACCESS:      34846  HIT:      34783  MISS:         63
cpu0_L1I LOAD      ACCESS:      34846  HIT:      34783  MISS:         63
cpu0_L1I RFO       ACCESS:          0  HIT:          0  MISS:          0
cpu0_L1I PREFETCH  ACCESS:          0  HIT:          0  MISS:          0
cpu0_L1I WRITEBACK ACCESS:          0  HIT:          0  MISS:          0
cpu0_STLB TOTAL     ACCESS:      53856  HIT:      37325  MISS:      16531
cpu0_STLB LOAD      ACCESS:      51071  HIT:      35013  MISS:      16058
cpu0_STLB RFO       ACCESS:       2785  HIT:       2312  MISS:        473
cpu0_STLB PREFETCH  ACCESS:          0  HIT:          0  MISS:          0
cpu0_STLB WRITEBACK ACCESS:          0  HIT:          0  MISS:          0
cpu0_L1D TOTAL     ACCESS:    6059106  HIT:    5364749  MISS:     694357
cpu0_L1D LOAD      ACCESS:    5275004  HIT:    4637911  MISS:     637093
cpu0_L1D RFO       ACCESS:     768502  HIT:     711555  MISS:      56947
cpu0_L1D PREFETCH  ACCESS:          0  HIT:          0  MISS:          0
cpu0_L1D WRITEBACK ACCESS:          0  HIT:          0  MISS:          0
cpu0_L2C TOTAL     ACCESS:     760597  HIT:     157198  MISS:     603399
cpu0_L2C LOAD      ACCESS:     637152  HIT:      87594  MISS:     549558
cpu0_L2C RFO       ACCESS:      56945  HIT:       3253  MISS:      53692
cpu0_L2C PREFETCH  ACCESS:          0  HIT:          0  MISS:          0
cpu0_L2C WRITEBACK ACCESS:      66183  HIT:      66132  MISS:         51
LLC TOTAL     ACCESS:     664841  HIT:     599963  MISS:      64878
LLC LOAD      ACCESS:     549556  HIT:     489977  MISS:      59579
LLC RFO       ACCESS:      53692  HIT:      48394  MISS:       5298
LLC PREFETCH  ACCESS:          0  HIT:          0  MISS:          0
LLC WRITEBACK ACCESS:      61495  HIT:      61495  MISS:          0
Heartbeat CPU 0 instructions: 100000003 cycles: 38425452 heartbeat IPC: 2.36426 cumulative IPC: 1.96528 (Simulation time: 0 hr 42 min 15 sec) 

Region of Interest Statistics
cpu0_DTLB TOTAL     ACCESS:    8391595  HIT:    8336296  MISS:      55299
cpu0_DTLB LOAD      ACCESS:    7839739  HIT:    7787324  MISS:      52415
cpu0_DTLB RFO       ACCESS:     551856  HIT:     548972  MISS:       2884
cpu0_DTLB PREFETCH  ACCESS:          0  HIT:          0  MISS:          0
cpu0_DTLB WRITEBACK ACCESS:          0  HIT:          0  MISS:          0
cpu0_ITLB TOTAL     ACCESS:    4521542  HIT:    4521542  MISS:          0
cpu0_ITLB LOAD      ACCESS:    4521542  HIT:    4521542  MISS:          0
cpu0_ITLB RFO       ACCESS:          0  HIT:          0  MISS:          0
cpu0_ITLB PREFETCH  ACCESS:          0  HIT:          0  MISS:          0
cpu0_ITLB WRITEBACK ACCESS:          0  HIT:          0  MISS:          0
cpu0_L1I TOTAL     ACCESS:      35179  HIT:      35116  MISS:         63
cpu0_L1I LOAD      ACCESS:      35179  HIT:      35116  MISS:         63
cpu0_L1I RFO       ACCESS:          0  HIT:          0  MISS:          0
cpu0_L1I PREFETCH  ACCESS:          0  HIT:          0  MISS:          0
cpu0_L1I WRITEBACK ACCESS:          0  HIT:          0  MISS:          0
cpu0_STLB TOTAL     ACCESS:      55299  HIT:      38757  MISS:      16542
cpu0_STLB LOAD      ACCESS:      52415  HIT:      36347  MISS:      16068
cpu0_STLB RFO       ACCESS:       2884  HIT:       2410  MISS:        474
cpu0_STLB PREFETCH  ACCESS:          0  HIT:          0  MISS:          0
cpu0_STLB WRITEBACK ACCESS:          0  HIT:          0  MISS:          0
cpu0_L1D TOTAL     ACCESS:    6301356  HIT:    5580125  MISS:     721231
cpu0_L1D LOAD      ACCESS:    5494230  HIT:    4833552  MISS:     660678
cpu0_L1D RFO       ACCESS:     791515  HIT:     731288  MISS:      60227
cpu0_L1D PREFETCH  ACCESS:          0  HIT:          0  MISS:          0
cpu0_L1D WRITEBACK ACCESS:          0  HIT:          0  MISS:          0
cpu0_L2C TOTAL     ACCESS:     790985  HIT:     163996  MISS:     626989
cpu0_L2C LOAD      ACCESS:     660737  HIT:      90791  MISS:     569946
cpu0_L2C RFO       ACCESS:      60225  HIT:       3336  MISS:      56889
cpu0_L2C PREFETCH  ACCESS:          0  HIT:          0  MISS:          0
cpu0_L2C WRITEBACK ACCESS:      69697  HIT:      69645  MISS:         52
LLC TOTAL     ACCESS:     691743  HIT:     625953  MISS:      65790
LLC LOAD      ACCESS:     569944  HIT:     509580  MISS:      60364
LLC RFO       ACCESS:      56889  HIT:      51464  MISS:       5425
LLC PREFETCH  ACCESS:          0  HIT:          0  MISS:          0
LLC WRITEBACK ACCESS:      64808  HIT:      64808  MISS:          0
Heartbeat CPU 0 instructions: 102000002 cycles: 39338663 heartbeat IPC: 2.19007 cumulative IPC: 1.97307 (Simulation time: 0 hr 42 min 59 sec) 

Region of Interest Statistics
cpu0_DTLB TOTAL     ACCESS:    8750078  HIT:    8693526  MISS:      56552
cpu0_DTLB LOAD      ACCESS:    8150667  HIT:    8097061  MISS:      53606
cpu0_DTLB RFO       ACCESS:     599411  HIT:     596465  MISS:       2946
cpu0_DTLB PREFETCH  ACCESS:          0  HIT:          0  MISS:          0
cpu0_DTLB WRITEBACK ACCESS:          0  HIT:          0  MISS:          0
cpu0_ITLB TOTAL     ACCESS:    4683203  HIT:    4683203  MISS:          0
cpu0_ITLB LOAD      ACCESS:    4683203  HIT:    4683203  MISS:          0
cpu0_ITLB RFO       ACCESS:          0  HIT:          0  MISS:          0
cpu0_ITLB PREFETCH  ACCESS:          0  HIT:          0  MISS:          0
cpu0_ITLB WRITEBACK ACCESS:          0  HIT:          0  MISS:          0
cpu0_L1I TOTAL     ACCESS:      47201  HIT:      47118  MISS:         83
cpu0_L1I LOAD      ACCESS:      47201  HIT:      47118  MISS:         83
cpu0_L1I RFO       ACCESS:          0  HIT:          0  MISS:          0
cpu0_L1I PREFETCH  ACCESS:          0  HIT:          0  MISS:          0
cpu0_L1I WRITEBACK ACCESS:          0  HIT:          0  MISS:          0
cpu0_STLB TOTAL     ACCESS:      56552  HIT:      39949  MISS:      16603
cpu0_STLB LOAD      ACCESS:      53606  HIT:      37490  MISS:      16116
cpu0_STLB RFO       ACCESS:       2946  HIT:       2459  MISS:        487
cpu0_STLB PREFETCH  ACCESS:          0  HIT:          0  MISS:          0
cpu0_STLB WRITEBACK ACCESS:          0  HIT:          0  MISS:          0
cpu0_L1D TOTAL     ACCESS:    6630085  HIT:    5888077  MISS:     742008
cpu0_L1D LOAD      ACCESS:    5732099  HIT:    5052447  MISS:     679652
cpu0_L1D RFO       ACCESS:     882317  HIT:     820300  MISS:      62017
cpu0_L1D PREFETCH  ACCESS:          0  HIT:          0  MISS:          0
cpu0_L1D WRITEBACK ACCESS:          0  HIT:          0  MISS:          0
cpu0_L2C TOTAL     ACCESS:     813566  HIT:     167341  MISS:     646225
cpu0_L2C LOAD      ACCESS:     679731  HIT:      92176  MISS:     587555
cpu0_L2C RFO       ACCESS:      62015  HIT:       3506  MISS:      58509
cpu0_L2C PREFETCH  ACCESS:          0  HIT:          0  MISS:          0
cpu0_L2C WRITEBACK ACCESS:      71481  HIT:      71428  MISS:         53
LLC TOTAL     ACCESS:     711613  HIT:     644439  MISS:      67174
LLC LOAD      ACCESS:     587553  HIT:     526055  MISS:      61498
LLC RFO       ACCESS:      58509  HIT:      52835  MISS:       5674
LLC PREFETCH  ACCESS:          0  HIT:          0  MISS:          0
LLC WRITEBACK ACCESS:      65443  HIT:      65443  MISS:          0
Heartbeat CPU 0 instructions: 104000000 cycles: 40207745 heartbeat IPC: 2.30128 cumulative IPC: 1.98355 (Simulation time: 0 hr 43 min 48 sec) 

Region of Interest Statistics
cpu0_DTLB TOTAL     ACCESS:    9085339  HIT:    9028153  MISS:      57186
cpu0_DTLB LOAD      ACCESS:    8447296  HIT:    8393125  MISS:      54171
cpu0_DTLB RFO       ACCESS:     638043  HIT:     635028  MISS:       3015
cpu0_DTLB PREFETCH  ACCESS:          0  HIT:          0  MISS:          0
cpu0_DTLB WRITEBACK ACCESS:          0  HIT:          0  MISS:          0
cpu0_ITLB TOTAL     ACCESS:    4856697  HIT:    4856697  MISS:          0
cpu0_ITLB LOAD      ACCESS:    4856697  HIT:    4856697  MISS:          0
cpu0_ITLB RFO       ACCESS:          0  HIT:          0  MISS:          0
cpu0_ITLB PREFETCH  ACCESS:          0  HIT:          0  MISS:          0
cpu0_ITLB WRITEBACK ACCESS:          0  HIT:          0  MISS:          0
cpu0_L1I TOTAL     ACCESS:      57406  HIT:      57303  MISS:        103
cpu0_L1I LOAD      ACCESS:      57406  HIT:      57303  MISS:        103
cpu0_L1I RFO       ACCESS:          0  HIT:          0  MISS:          0
cpu0_L1I PREFETCH  ACCESS:          0  HIT:          0  MISS:          0
cpu0_L1I WRITEBACK ACCESS:          0  HIT:          0  MISS:          0
cpu0_STLB TOTAL     ACCESS:      57186  HIT:      40561  MISS:      16625
cpu0_STLB LOAD      ACCESS:      54171  HIT:      38034  MISS:      16137
cpu0_STLB RFO       ACCESS:       3015  HIT:       2527  MISS:        488
cpu0_STLB PREFETCH  ACCESS:          0  HIT:          0  MISS:          0
cpu0_STLB WRITEBACK ACCESS:          0  HIT:          0  MISS:          0
cpu0_L1D TOTAL     ACCESS:    6919878  HIT:    6155687  MISS:     764191
cpu0_L1D LOAD      ACCESS:    5949076  HIT:    5250413  MISS:     698663
cpu0_L1D RFO       ACCESS:     955112  HIT:     889931  MISS:      65181
cpu0_L1D PREFETCH  ACCESS:          0  HIT:          0  MISS:          0
cpu0_L1D WRITEBACK ACCESS:          0  HIT:          0  MISS:          0
cpu0_L2C TOTAL     ACCESS:     839321  HIT:     173978  MISS:     665343
cpu0_L2C LOAD      ACCESS:     698762  HIT:      94902  MISS:     603860
cpu0_L2C RFO       ACCESS:      65179  HIT:       3859  MISS:      61320
cpu0_L2C PREFETCH  ACCESS:          0  HIT:          0  MISS:          0
cpu0_L2C WRITEBACK ACCESS:      75033  HIT:      74978  MISS:         55
LLC TOTAL     ACCESS:     734720  HIT:     666481  MISS:      68239
LLC LOAD      ACCESS:     603858  HIT:     541497  MISS:      62361
LLC RFO       ACCESS:      61320  HIT:      55444  MISS:       5876
LLC PREFETCH  ACCESS:          0  HIT:          0  MISS:          0
LLC WRITEBACK ACCESS:      69434  HIT:      69434  MISS:          0
Heartbeat CPU 0 instructions: 106000004 cycles: 41359446 heartbeat IPC: 1.73657 cumulative IPC: 1.97353 (Simulation time: 0 hr 44 min 34 sec) 

Region of Interest Statistics
cpu0_DTLB TOTAL     ACCESS:    9431716  HIT:    9370833  MISS:      60883
cpu0_DTLB LOAD      ACCESS:    8771055  HIT:    8713331  MISS:      57724
cpu0_DTLB RFO       ACCESS:     660661  HIT:     657502  MISS:       3159
cpu0_DTLB PREFETCH  ACCESS:          0  HIT:          0  MISS:          0
cpu0_DTLB WRITEBACK ACCESS:          0  HIT:          0  MISS:          0
cpu0_ITLB TOTAL     ACCESS:    5042469  HIT:    5042469  MISS:          0
cpu0_ITLB LOAD      ACCESS:    5042469  HIT:    5042469  MISS:          0
cpu0_ITLB RFO       ACCESS:          0  HIT:          0  MISS:          0
cpu0_ITLB PREFETCH  ACCESS:          0  HIT:          0  MISS:          0
cpu0_ITLB WRITEBACK ACCESS:          0  HIT:          0  MISS:          0
cpu0_L1I TOTAL     ACCESS:      57924  HIT:      57813  MISS:        111
cpu0_L1I LOAD      ACCESS:      57924  HIT:      57813  MISS:        111
cpu0_L1I RFO       ACCESS:          0  HIT:          0  MISS:          0
cpu0_L1I PREFETCH  ACCESS:          0  HIT:          0  MISS:          0
cpu0_L1I WRITEBACK ACCESS:          0  HIT:          0  MISS:          0
cpu0_STLB TOTAL     ACCESS:      60883  HIT:      43159  MISS:      17724
cpu0_STLB LOAD      ACCESS:      57724  HIT:      40502  MISS:      17222
cpu0_STLB RFO       ACCESS:       3159  HIT:       2657  MISS:        502
cpu0_STLB PREFETCH  ACCESS:          0  HIT:          0  MISS:          0
cpu0_STLB WRITEBACK ACCESS:          0  HIT:          0  MISS:          0
cpu0_L1D TOTAL     ACCESS:    7188807  HIT:    6393456  MISS:     795351
cpu0_L1D LOAD      ACCESS:    6180638  HIT:    5451927  MISS:     728711
cpu0_L1D RFO       ACCESS:     991453  HIT:     925176  MISS:      66277
cpu0_L1D PREFETCH  ACCESS:          0  HIT:          0  MISS:          0
cpu0_L1D WRITEBACK ACCESS:          0  HIT:          0  MISS:          0
cpu0_L2C TOTAL     ACCESS:     872116  HIT:     180116  MISS:     692000
cpu0_L2C LOAD      ACCESS:     728818  HIT:      99396  MISS:     629422
cpu0_L2C RFO       ACCESS:      66275  HIT:       3873  MISS:      62402
cpu0_L2C PREFETCH  ACCESS:          0  HIT:          0  MISS:          0
cpu0_L2C WRITEBACK ACCESS:      76660  HIT:      76602  MISS:         58
[...]
cpu0_DTLB LOAD      ACCESS:  235887048  HIT:  234004336  MISS:    1882712
cpu0_DTLB RFO       ACCESS:   17759611  HIT:   17653601  MISS:     106010
cpu0_DTLB PREFETCH  ACCESS:          0  HIT:          0  MISS:          0
cpu0_DTLB WRITEBACK ACCESS:          0  HIT:          0  MISS:          0
cpu0_ITLB TOTAL     ACCESS:  136382621  HIT:  136382585  MISS:         36
cpu0_ITLB LOAD      ACCESS:  136382621  HIT:  136382585  MISS:         36
cpu0_ITLB RFO       ACCESS:          0  HIT:          0  MISS:          0
cpu0_ITLB PREFETCH  ACCESS:          0  HIT:          0  MISS:          0
cpu0_ITLB WRITEBACK ACCESS:          0  HIT:          0  MISS:          0
cpu0_L1I TOTAL     ACCESS:    1415185  HIT:    1412254  MISS:       2931
cpu0_L1I LOAD      ACCESS:    1415185  HIT:    1412254  MISS:       2931
cpu0_L1I RFO       ACCESS:          0  HIT:          0  MISS:          0
cpu0_L1I PREFETCH  ACCESS:          0  HIT:          0  MISS:          0
cpu0_L1I WRITEBACK ACCESS:          0  HIT:          0  MISS:          0
cpu0_STLB TOTAL     ACCESS:    1988758  HIT:    1382844  MISS:     605914
cpu0_STLB LOAD      ACCESS:    1882748  HIT:    1292681  MISS:     590067
cpu0_STLB RFO       ACCESS:     106010  HIT:      90163  MISS:      15847
cpu0_STLB PREFETCH  ACCESS:          0  HIT:          0  MISS:          0
cpu0_STLB WRITEBACK ACCESS:          0  HIT:          0  MISS:          0
cpu0_L1D TOTAL     ACCESS:  192792108  HIT:  170206571  MISS:   22585537
cpu0_L1D LOAD      ACCESS:  165635394  HIT:  144812219  MISS:   20823175
cpu0_L1D RFO       ACCESS:   26581265  HIT:   24829503  MISS:    1751762
cpu0_L1D PREFETCH  ACCESS:          0  HIT:          0  MISS:          0
cpu0_L1D WRITEBACK ACCESS:          0  HIT:          0  MISS:          0
cpu0_L2C TOTAL     ACCESS:   24845095  HIT:    5693079  MISS:   19152016
cpu0_L2C LOAD      ACCESS:   20826032  HIT:    3305231  MISS:   17520801
cpu0_L2C RFO       ACCESS:    1751672  HIT:     126280  MISS:    1625392
cpu0_L2C PREFETCH  ACCESS:          0  HIT:          0  MISS:          0
cpu0_L2C WRITEBACK ACCESS:    2256791  HIT:    2253907  MISS:       2884
LLC TOTAL     ACCESS:   21154538  HIT:   18344500  MISS:    2810038
LLC LOAD      ACCESS:   17520759  HIT:   14944316  MISS:    2576443
LLC RFO       ACCESS:    1625392  HIT:    1392006  MISS:     233386
LLC PREFETCH  ACCESS:          0  HIT:          0  MISS:          0
LLC WRITEBACK ACCESS:    2005448  HIT:    2005441  MISS:          7
Heartbeat CPU 0 instructions: 1550000002 cycles: 862119555 heartbeat IPC: 1.8394 cumulative IPC: 1.7665 (Simulation time: 11 hr 34 min 58 sec) 

Region of Interest Statistics
cpu0_DTLB TOTAL     ACCESS:  253969307  HIT:  251979342  MISS:    1989965
cpu0_DTLB LOAD      ACCESS:  236196342  HIT:  234312409  MISS:    1883933
cpu0_DTLB RFO       ACCESS:   17772965  HIT:   17666933  MISS:     106032
cpu0_DTLB PREFETCH  ACCESS:          0  HIT:          0  MISS:          0
cpu0_DTLB WRITEBACK ACCESS:          0  HIT:          0  MISS:          0
cpu0_ITLB TOTAL     ACCESS:  136570144  HIT:  136570108  MISS:         36
cpu0_ITLB LOAD      ACCESS:  136570144  HIT:  136570108  MISS:         36
cpu0_ITLB RFO       ACCESS:          0  HIT:          0  MISS:          0
cpu0_ITLB PREFETCH  ACCESS:          0  HIT:          0  MISS:          0
cpu0_ITLB WRITEBACK ACCESS:          0  HIT:          0  MISS:          0
cpu0_L1I TOTAL     ACCESS:    1415233  HIT:    1412300  MISS:       2933
cpu0_L1I LOAD      ACCESS:    1415233  HIT:    1412300  MISS:       2933
cpu0_L1I RFO       ACCESS:          0  HIT:          0  MISS:          0
cpu0_L1I PREFETCH  ACCESS:          0  HIT:          0  MISS:          0
cpu0_L1I WRITEBACK ACCESS:          0  HIT:          0  MISS:          0
cpu0_STLB TOTAL     ACCESS:    1990001  HIT:    1383471  MISS:     606530
cpu0_STLB LOAD      ACCESS:    1883969  HIT:    1293288  MISS:     590681
cpu0_STLB RFO       ACCESS:     106032  HIT:      90183  MISS:      15849
cpu0_STLB PREFETCH  ACCESS:          0  HIT:          0  MISS:          0
cpu0_STLB WRITEBACK ACCESS:          0  HIT:          0  MISS:          0
cpu0_L1D TOTAL     ACCESS:  193029444  HIT:  170415246  MISS:   22614198
cpu0_L1D LOAD      ACCESS:  165852186  HIT:  145001195  MISS:   20850991
cpu0_L1D RFO       ACCESS:   26601215  HIT:   24848617  MISS:    1752598
cpu0_L1D PREFETCH  ACCESS:          0  HIT:          0  MISS:          0
cpu0_L1D WRITEBACK ACCESS:          0  HIT:          0  MISS:          0
cpu0_L2C TOTAL     ACCESS:   24874620  HIT:    5695397  MISS:   19179223
cpu0_L2C LOAD      ACCESS:   20853850  HIT:    3306682  MISS:   17547168
cpu0_L2C RFO       ACCESS:    1752508  HIT:     126281  MISS:    1626227
cpu0_L2C PREFETCH  ACCESS:          0  HIT:          0  MISS:          0
cpu0_L2C WRITEBACK ACCESS:    2257653  HIT:    2254768  MISS:       2885
LLC TOTAL     ACCESS:   21185030  HIT:   18370905  MISS:    2814125
LLC LOAD      ACCESS:   17547126  HIT:   14966659  MISS:    2580467
LLC RFO       ACCESS:    1626227  HIT:    1392778  MISS:     233449
LLC PREFETCH  ACCESS:          0  HIT:          0  MISS:          0
LLC WRITEBACK ACCESS:    2008734  HIT:    2008727  MISS:          7
Finished CPU 0 instructions: 1500000000 cycles: 849135713 cumulative IPC: 1.7665 (Simulation time: 11 hr 34 min 58 sec) 

ChampSim completed all CPUs

Region of Interest Statistics

CPU 0 cumulative IPC: 1.7665 instructions: 1500000000 cycles: 849135713
cpu0_DTLB TOTAL     ACCESS:  253969307  HIT:  251979342  MISS:    1989965
cpu0_DTLB LOAD      ACCESS:  236196342  HIT:  234312409  MISS:    1883933
cpu0_DTLB RFO       ACCESS:   17772965  HIT:   17666933  MISS:     106032
cpu0_DTLB PREFETCH  ACCESS:          0  HIT:          0  MISS:          0
cpu0_DTLB WRITEBACK ACCESS:          0  HIT:          0  MISS:          0
cpu0_DTLB TRANSLATION ACCESS:          0  HIT:          0  MISS:          0
cpu0_DTLB PREFETCH  REQUESTED:          0  ISSUED:          0  USEFUL:          0  USELESS:          0
cpu0_DTLB AVERAGE MISS LATENCY: 11.7068 cycles
cpu0_ITLB TOTAL     ACCESS:  136570144  HIT:  136570108  MISS:         36
cpu0_ITLB LOAD      ACCESS:  136570144  HIT:  136570108  MISS:         36
cpu0_ITLB RFO       ACCESS:          0  HIT:          0  MISS:          0
cpu0_ITLB PREFETCH  ACCESS:          0  HIT:          0  MISS:          0
cpu0_ITLB WRITEBACK ACCESS:          0  HIT:          0  MISS:          0
cpu0_ITLB TRANSLATION ACCESS:          0  HIT:          0  MISS:          0
cpu0_ITLB PREFETCH  REQUESTED:          0  ISSUED:          0  USEFUL:          0  USELESS:          0
cpu0_ITLB AVERAGE MISS LATENCY: 135.806 cycles
cpu0_L1I TOTAL     ACCESS:    1415233  HIT:    1412300  MISS:       2933
cpu0_L1I LOAD      ACCESS:    1415233  HIT:    1412300  MISS:       2933
cpu0_L1I RFO       ACCESS:          0  HIT:          0  MISS:          0
cpu0_L1I PREFETCH  ACCESS:          0  HIT:          0  MISS:          0
cpu0_L1I WRITEBACK ACCESS:          0  HIT:          0  MISS:          0
cpu0_L1I TRANSLATION ACCESS:          0  HIT:          0  MISS:          0
cpu0_L1I PREFETCH  REQUESTED:          0  ISSUED:          0  USEFUL:          0  USELESS:          0
cpu0_L1I AVERAGE MISS LATENCY: 152.106 cycles
cpu0_STLB TOTAL     ACCESS:    1990001  HIT:    1383471  MISS:     606530
cpu0_STLB LOAD      ACCESS:    1883969  HIT:    1293288  MISS:     590681
cpu0_STLB RFO       ACCESS:     106032  HIT:      90183  MISS:      15849
cpu0_STLB PREFETCH  ACCESS:          0  HIT:          0  MISS:          0
cpu0_STLB WRITEBACK ACCESS:          0  HIT:          0  MISS:          0
cpu0_STLB TRANSLATION ACCESS:          0  HIT:          0  MISS:          0
cpu0_STLB PREFETCH  REQUESTED:          0  ISSUED:          0  USEFUL:          0  USELESS:          0
cpu0_STLB AVERAGE MISS LATENCY: 8.75761 cycles
cpu0_L1D TOTAL     ACCESS:  193029444  HIT:  170415246  MISS:   22614198
cpu0_L1D LOAD      ACCESS:  165852186  HIT:  145001195  MISS:   20850991
cpu0_L1D RFO       ACCESS:   26601215  HIT:   24848617  MISS:    1752598
cpu0_L1D PREFETCH  ACCESS:          0  HIT:          0  MISS:          0
cpu0_L1D WRITEBACK ACCESS:          0  HIT:          0  MISS:          0
cpu0_L1D TRANSLATION ACCESS:     576043  HIT:     565434  MISS:      10609
cpu0_L1D PREFETCH  REQUESTED:          0  ISSUED:          0  USEFUL:          0  USELESS:          0
cpu0_L1D AVERAGE MISS LATENCY: 47.6258 cycles
cpu0_L2C TOTAL     ACCESS:   24874620  HIT:    5695397  MISS:   19179223
cpu0_L2C LOAD      ACCESS:   20853850  HIT:    3306682  MISS:   17547168
cpu0_L2C RFO       ACCESS:    1752508  HIT:     126281  MISS:    1626227
cpu0_L2C PREFETCH  ACCESS:          0  HIT:          0  MISS:          0
cpu0_L2C WRITEBACK ACCESS:    2257653  HIT:    2254768  MISS:       2885
cpu0_L2C TRANSLATION ACCESS:      10609  HIT:       7666  MISS:       2943
cpu0_L2C PREFETCH  REQUESTED:          0  ISSUED:          0  USEFUL:          0  USELESS:          0
cpu0_L2C AVERAGE MISS LATENCY: 43.1749 cycles
LLC TOTAL     ACCESS:   21185030  HIT:   18370905  MISS:    2814125
LLC LOAD      ACCESS:   17547126  HIT:   14966659  MISS:    2580467
LLC RFO       ACCESS:    1626227  HIT:    1392778  MISS:     233449
LLC PREFETCH  ACCESS:          0  HIT:          0  MISS:          0
LLC WRITEBACK ACCESS:    2008734  HIT:    2008727  MISS:          7
LLC TRANSLATION ACCESS:       2943  HIT:       2741  MISS:        202
LLC PREFETCH  REQUESTED:          0  ISSUED:          0  USEFUL:          0  USELESS:          0
LLC AVERAGE MISS LATENCY: 151.142 cycles
~~~~~~~~~~Reuse Distance Profiler output~~~~~~~~~~
0	0	0
1	0	0
2	0	0
3	0	0
4	0	0
5	0	0
6	0	0
7	0	0
8	0	0
9	0	0
10	0	0
11	0	0
12	0	0
13	0	0
14	0	0
15	0	0
16	0	0
17	0	0
18	0	0
19	0	0
20	0	0
21	0	0
22	0	0
23	0	0
24	0	0
25	0	0
26	0	0
27	0	0
28	0	0
29	0	0
30	0	0
31	0	0
32	0	0
33	0	0
34	0	0
35	0	0
36	0	0
37	0	0
38	0	0
39	0	0
40	0	0
41	0	0
42	0	0
43	0	0
44	0	0
45	0	0
46	0	0
47	0	0
48	0	0
49	0	0
50	0	0
51	0	0
52	0	0
53	0	0
54	0	0
55	0	0
56	0	0
57	0	0
58	0	0
59	0	0
60	0	0
61	0	0
62	0	0
63	0	0
64	0	0
66	0	0
68	0	0
70	0	0
72	0	0
74	0	0
76	0	0
78	0	0
80	0	0
82	0	0
84	0	0
86	0	0
88	0	0
90	0	0
92	0	0
94	0	0
96	0	0
98	0	0
100	0	0
102	0	0
104	0	0
106	0	0
108	0	0
110	0	0
112	0	0
114	0	0
116	0	0
118	0	0
120	0	0
122	0	0
124	0	0
126	0	0
128	0	0
132	0	0
136	0	0
140	0	0
144	0	0
148	0	0
152	0	0
156	0	0
160	0	0
164	0	0
168	0	0
172	0	0
176	0	0
180	0	0
184	0	0
188	0	0
192	0	0
196	0	0
200	0	0
204	0	0
208	0	0
212	0	0
216	0	0
220	0	0
224	0	0
228	0	0
232	0	0
236	0	0
240	0	0
244	0	0
248	0	0
252	0	0
256	0	0
264	0	0
272	0	0
280	0	0
288	0	0
296	0	0
304	0	0
312	0	0
320	0	0
328	0	0
336	0	0
344	0	0
352	0	0
360	0	0
368	0	0
376	0	0
384	0	0
392	0	0
400	0	0
408	0	0
416	0	0
424	0	0
432	0	0
440	0	0
448	0	0
456	0	0
464	0	0
472	0	0
480	0	0
488	0	0
496	0	0
504	0	0
512	0	0
528	0	0
544	0	0
560	0	0
576	0	0
592	0	0
608	0	0
624	0	0
640	0	0
656	0	0
672	0	0
688	0	0
704	0	0
720	0	0
736	0	0
752	0	0
768	0	0
784	0	0
800	0	0
816	0	0
832	0	0
848	0	0
864	0	0
880	0	0
896	0	0
912	0	0
928	0	0
944	0	0
960	0	0
976	0	0
992	0	0
1008	0	0
1024	0	0
1056	0	0
1088	0	0
1120	0	0
1152	0	0
1184	0	0
1216	0	0
1248	0	0
1280	0	0
1312	0	0
1344	0	0
1376	0	0
1408	0	0
1440	0	0
1472	0	0
1504	0	0
1536	0	0
1568	0	0
1600	0	0
1632	0	0
1664	0	0
1696	0	0
1728	0	0
1760	0	0
1792	0	0
1824	0	0
1856	0	0
1888	0	0
1920	0	0
1952	0	0
1984	0	0
2016	0	0
2048	0	0
2112	0	0
2176	0	0
2240	0	0
2304	0	0
2368	0	0
2432	0	0
2496	0	0
2560	0	0
2624	0	0
2688	0	0
2752	0	0
2816	0	0
2880	0	0
2944	0	0
3008	0	0
3072	0	0
3136	0	0
3200	0	0
3264	0	0
3328	0	0
3392	0	0
3456	0	0
3520	0	0
3584	0	0
3648	0	0
3712	0	0
3776	0	0
3840	0	0
3904	0	0
3968	0	0
4032	0	0
4096	0	0
4224	0	0
4352	0	0
4480	0	0
4608	0	0
4736	0	0
4864	0	0
4992	0	0
5120	0	0
5248	0	0
5376	0	0
5504	0	0
5632	0	0
5760	0	0
5888	0	0
6016	0	0
6144	0	0
6272	0	0
6400	0	0
6528	0	0
6656	0	0
6784	0	0
6912	0	0
7040	0	0
7168	0	0
7296	0	0
7424	0	0
7552	0	0
7680	0	0
7808	0	0
7936	0	0
8064	0	0
8192	0	0
8448	0	0
8704	0	0
8960	0	0
9216	0	0
9472	0	0
9728	0	0
9984	0	0
10240	0	0
10496	0	0
10752	0	0
11008	0	0
11264	0	0
11520	0	0
11776	0	0
12032	0	0
12288	0	0
12544	0	0
12800	0	0
13056	0	0
13312	0	0
13568	0	0
13824	0	0
14080	0	0
14336	0	0
14592	0	0
14848	0	0
15104	0	0
15360	0	0
15616	0	0
15872	0	0
16128	0	0
16384	0	0
16896	0	0
17408	0	0
17920	0	0
18432	0	0
18944	0	0
19456	0	0
19968	0	0
20480	0	0
20992	0	0
21504	0	0
22016	0	0
22528	0	0
23040	0	0
23552	0	0
24064	0	0
24576	0	0
25088	0	0
25600	0	0
26112	0	0
26624	0	0
27136	0	0
27648	0	0
28160	0	0
28672	0	0
29184	0	0
29696	0	0
30208	0	0
30720	0	0
31232	0	0
31744	0	0
32256	0	0
32768	0	0
33792	0	0
34816	0	0
35840	0	0
36864	0	0
37888	0	0
38912	0	0
39936	0	0
40960	0	0
41984	0	0
43008	0	0
44032	0	0
45056	0	0
46080	0	0
47104	0	0
48128	0	0
49152	0	0
50176	0	0
51200	0	0
52224	0	0
53248	0	0
54272	0	0
55296	0	0
56320	0	0
57344	0	0
58368	0	0
59392	0	0
60416	0	0
61440	0	0
62464	0	0
63488	0	0
64512	0	0
65536	0	0
67584	0	0
69632	0	0
71680	0	0
73728	0	0
75776	0	0
77824	0	0
79872	0	0
81920	0	0
83968	0	0
86016	0	0
88064	0	0
90112	0	0
92160	0	0
94208	0	0
96256	0	0
98304	0	0
100352	0	0
102400	0	0
104448	0	0
106496	0	0
108544	0	0
110592	0	0
112640	0	0
114688	0	0
116736	0	0
118784	0	0
120832	0	0
122880	0	0
124928	0	0
126976	0	0
129024	0	0
131072	0	0
135168	0	0
139264	0	0
143360	0	0
147456	0	0
151552	0	0
155648	0	0
159744	0	0
163840	0	0
167936	0	0
172032	0	0
176128	0	0
180224	0	0
184320	0	0
188416	0	0
192512	0	0
196608	0	0
200704	0	0
204800	0	0
208896	0	0
212992	0	0
217088	0	0
221184	0	0
225280	0	0
229376	0	0
233472	0	0
237568	0	0
241664	0	0
245760	0	0
249856	0	0
253952	0	0
258048	0	0
262144	0	0
270336	0	0
278528	0	0
286720	0	0
294912	0	0
303104	0	0
311296	0	0
319488	0	0
327680	0	0
335872	0	0
344064	0	0
352256	0	0
360448	0	0
368640	0	0
376832	0	0
385024	0	0
393216	0	0
401408	0	0
409600	0	0
417792	0	0
425984	0	0
434176	0	0
442368	0	0
450560	0	0
458752	0	0
466944	0	0
475136	0	0
483328	0	0
491520	0	0
499712	0	0
507904	0	0
516096	0	0
524288	0	0
540672	0	0
557056	0	0
573440	0	0
589824	0	0
606208	0	0
622592	0	0
638976	0	0
655360	0	0
671744	0	0
688128	0	0
704512	0	0
720896	0	0
737280	0	0
753664	0	0
770048	0	0
786432	0	0
802816	0	0
819200	0	0
835584	0	0
851968	0	0
868352	0	0
884736	0	0
901120	0	0
917504	0	0
933888	0	0
950272	0	0
966656	0	0
983040	0	0
999424	0	0
1015808	0	0
1032192	0	0
1048576	0	0
1081344	0	0
1114112	0	0
1146880	0	0
1179648	0	0
1212416	0	0
1245184	0	0
1277952	0	0
1310720	0	0
1343488	0	0
1376256	0	0
1409024	0	0
1441792	0	0
1474560	0	0
1507328	0	0
1540096	0	0
1572864	0	0
1605632	0	0
1638400	0	0
1671168	0	0
1703936	0	0
1736704	0	0
1769472	0	0
1802240	0	0
1835008	0	0
1867776	0	0
1900544	0	0
1933312	0	0
1966080	0	0
1998848	0	0
2031616	0	0
2064384	0	0
2097152	0	0
2162688	0	0
2228224	0	0
2293760	0	0
2359296	0	0
2424832	0	0
2490368	0	0
2555904	0	0
2621440	0	0
2686976	0	0
2752512	0	0
2818048	0	0
2883584	0	0
2949120	0	0
3014656	0	0
3080192	0	0
3145728	0	0
3211264	0	0
3276800	0	0
3342336	0	0
3407872	0	0
3473408	0	0
3538944	0	0
3604480	0	0
3670016	0	0
3735552	0	0
3801088	0	0
3866624	0	0
3932160	0	0
3997696	0	0
4063232	0	0
4128768	0	0
4194304	0	0
4325376	0	0
4456448	0	0
4587520	0	0
4718592	0	0
4849664	0	0
4980736	0	0
5111808	0	0
5242880	0	0
5373952	0	0
5505024	0	0
5636096	0	0
5767168	0	0
5898240	0	0
6029312	0	0
6160384	0	0
6291456	0	0
6422528	0	0
6553600	0	0
6684672	0	0
6815744	0	0
6946816	0	0
7077888	0	0
7208960	0	0
7340032	0	0
7471104	0	0
7602176	0	0
7733248	0	0
7864320	0	0
7995392	0	0
8126464	0	0
8257536	0	0
8388608	0	0
8650752	0	0
8912896	0	0
9175040	0	0
9437184	0	0
9699328	0	0
9961472	0	0
10223616	0	0
10485760	0	0
10747904	0	0
11010048	0	0
11272192	0	0
11534336	0	0
11796480	0	0
12058624	0	0
12320768	0	0
12582912	0	0
12845056	0	0
13107200	0	0
13369344	0	0
13631488	0	0
13893632	0	0
14155776	0	0
14417920	0	0
14680064	0	0
14942208	0	0
15204352	0	0
15466496	0	0
15728640	0	0
15990784	0	0
16252928	0	0
16515072	0	0
16777216	0	0
17301504	0	0
17825792	0	0
18350080	0	0
18874368	0	0
19398656	0	0
19922944	0	0
20447232	0	0
20971520	0	0
21495808	0	0
22020096	0	0
22544384	0	0
23068672	0	0
23592960	0	0
24117248	0	0
24641536	0	0
25165824	0	0
25690112	0	0
26214400	0	0
26738688	0	0
27262976	0	0
27787264	0	0
28311552	0	0
28835840	0	0
29360128	0	0
29884416	0	0
30408704	0	0
30932992	0	0
31457280	0	0
31981568	0	0
32505856	0	0
33030144	0	0
33554432	0	0
34603008	0	0
35651584	0	0
36700160	0	0
37748736	0	0
38797312	0	0
39845888	0	0
40894464	0	0
41943040	0	0
42991616	0	0
44040192	0	0
45088768	0	0
46137344	0	0
47185920	0	0
48234496	0	0
49283072	0	0
50331648	0	0
51380224	0	0
52428800	0	0
53477376	0	0
54525952	0	0
55574528	0	0
56623104	0	0
57671680	0	0
58720256	0	0
59768832	0	0
60817408	0	0
61865984	0	0
62914560	0	0
63963136	0	0
65011712	0	0
66060288	0	0
67108864	0	0
69206016	0	0
71303168	0	0
73400320	0	0
75497472	0	0
77594624	0	0
79691776	0	0
81788928	0	0
83886080	0	0
85983232	0	0
88080384	0	0
90177536	0	0
92274688	0	0
94371840	0	0
96468992	0	0
98566144	0	0
100663296	0	0
102760448	0	0
104857600	0	0
106954752	0	0
109051904	0	0
111149056	0	0
113246208	0	0
115343360	0	0
117440512	0	0
119537664	0	0
121634816	0	0
123731968	0	0
125829120	0	0
127926272	0	0
130023424	0	0
132120576	0	0
134217728	0	0
138412032	0	0
142606336	0	0
146800640	0	0
150994944	0	0
155189248	0	0
159383552	0	0
163577856	0	0
167772160	0	0
171966464	0	0
176160768	0	0
180355072	0	0
184549376	0	0
188743680	0	0
192937984	0	0
197132288	0	0
201326592	0	0
205520896	0	0
209715200	0	0
213909504	0	0
218103808	0	0
222298112	0	0
226492416	0	0
230686720	0	0
234881024	0	0
239075328	0	0
243269632	0	0
247463936	0	0
251658240	0	0
255852544	0	0
260046848	0	0
264241152	0	0
268435456	0	0
276824064	0	0
285212672	0	0
293601280	0	0
301989888	0	0
310378496	0	0
318767104	0	0
327155712	0	0
335544320	0	0
343932928	0	0
352321536	0	0
360710144	0	0
369098752	0	0
377487360	0	0
385875968	0	0
394264576	0	0
402653184	0	0
411041792	0	0
419430400	0	0
427819008	0	0
436207616	0	0
444596224	0	0
452984832	0	0
461373440	0	0
469762048	0	0
478150656	0	0
486539264	0	0
494927872	0	0
503316480	0	0
511705088	0	0
520093696	0	0
528482304	0	0
536870912	0	0
553648128	0	0
570425344	0	0
587202560	0	0
603979776	0	0
620756992	0	0
637534208	0	0
654311424	0	0
671088640	0	0
687865856	0	0
704643072	0	0
721420288	0	0
738197504	0	0
754974720	0	0
771751936	0	0
788529152	0	0
805306368	0	0
822083584	0	0
838860800	0	0
855638016	0	0
872415232	0	0
889192448	0	0
905969664	0	0
922746880	0	0
939524096	0	0
956301312	0	0
973078528	0	0
989855744	0	0
1006632960	0	0
1023410176	0	0
1040187392	0	0
1056964608	0	0
1073741824	0	0
1107296256	0	0
1140850688	0	0
1174405120	0	0
1207959552	0	0
1241513984	0	0
1275068416	0	0
1308622848	0	0
1342177280	0	0
1375731712	0	0
1409286144	0	0
1442840576	0	0
1476395008	0	0
1509949440	0	0
1543503872	0	0
1577058304	0	0
1610612736	0	0
1644167168	0	0
1677721600	0	0
1711276032	0	0
1744830464	0	0
1778384896	0	0
1811939328	0	0
1845493760	0	0
1879048192	0	0
1912602624	0	0
1946157056	0	0
1979711488	0	0
2013265920	0	0
2046820352	0	0
2080374784	0	0
2113929216	0	0
2147483648	0	0
2214592512	0	0
2281701376	0	0
2348810240	0	0
2415919104	0	0
2483027968	0	0
2550136832	0	0
2617245696	0	0
2684354560	0	0
2751463424	0	0
2818572288	0	0
2885681152	0	0
2952790016	0	0
3019898880	0	0
3087007744	0	0
3154116608	0	0
3221225472	0	0
3288334336	0	0
3355443200	0	0
3422552064	0	0
3489660928	0	0
3556769792	0	0
3623878656	0	0
3690987520	0	0
3758096384	0	0
3825205248	0	0
3892314112	0	0
3959422976	0	0
4026531840	0	0
4093640704	0	0
4160749568	0	0
4227858432	0	0
~~~~~~~~~~Reuse Distance Profiler output end~~~~~~~~~~


DRAM Statistics
 CHANNEL 0
 RQ ROW_BUFFER_HIT:     898494  ROW_BUFFER_MISS:    1912251
 DBUS AVG_CONGESTED_CYCLE:    3.78567
 WQ ROW_BUFFER_HIT:     102530  ROW_BUFFER_MISS:     192887  FULL:          0


CPU 0 Branch Prediction Accuracy: 92.7964% MPKI: 6.51672 Average ROB Occupancy at Mispredict: 172.691
Branch type MPKI
BRANCH_DIRECT_JUMP: 4.93333e-05
BRANCH_INDIRECT: 0.000106667
BRANCH_CONDITIONAL: 6.51637
BRANCH_DIRECT_CALL: 7.26667e-05
BRANCH_INDIRECT_CALL: 5.53333e-05
BRANCH_RETURN: 7.06667e-05

