
*** ChampSim Multicore Out-of-Order Simulator ***

Warmup Instructions: 50000000
Simulation Instructions: 1500000000
Number of CPUs: 1
Off-chip DRAM Size: 4 GiB Channels: 1 Width: 64-bit Data Rate: 3200 MT/s

VirtualMemory physical capacity: 8588881920 num_ppages: 2096895
VirtualMemory page size: 4096 log2_page_size: 12

CPU 0 runs traces/483.xalancbmk-127B.champsimtrace.xz
CPU 0 Bimodal branch predictor
Basic BTB sets: 1024 ways: 8 indirect buffer size: 4096 RAS size: 64
Initializing LRU.
Initializing LRU.
Initializing LRU.
Initializing LRU.
Initializing rdLRU.
Initializing LRU.
Initializing LRU.
Heartbeat CPU 0 instructions: 2000003 cycles: 572024 heartbeat IPC: 3.49636 cumulative IPC: 3.49636 (Simulation time: 0 hr 0 min 55 sec) 
Heartbeat CPU 0 instructions: 4000004 cycles: 1146093 heartbeat IPC: 3.4839 cumulative IPC: 3.49012 (Simulation time: 0 hr 1 min 56 sec) 
Heartbeat CPU 0 instructions: 6000003 cycles: 1720145 heartbeat IPC: 3.484 cumulative IPC: 3.48808 (Simulation time: 0 hr 2 min 59 sec) 
Heartbeat CPU 0 instructions: 8000002 cycles: 2291984 heartbeat IPC: 3.49749 cumulative IPC: 3.49043 (Simulation time: 0 hr 4 min 2 sec) 
Heartbeat CPU 0 instructions: 10000000 cycles: 2864262 heartbeat IPC: 3.4948 cumulative IPC: 3.4913 (Simulation time: 0 hr 5 min 0 sec) 
Heartbeat CPU 0 instructions: 12000004 cycles: 3439480 heartbeat IPC: 3.47695 cumulative IPC: 3.4889 (Simulation time: 0 hr 5 min 59 sec) 
Heartbeat CPU 0 instructions: 14000004 cycles: 4014685 heartbeat IPC: 3.47702 cumulative IPC: 3.4872 (Simulation time: 0 hr 6 min 51 sec) 
Heartbeat CPU 0 instructions: 16000004 cycles: 4579190 heartbeat IPC: 3.54293 cumulative IPC: 3.49407 (Simulation time: 0 hr 7 min 51 sec) 
Heartbeat CPU 0 instructions: 18000003 cycles: 5150342 heartbeat IPC: 3.50169 cumulative IPC: 3.49491 (Simulation time: 0 hr 8 min 55 sec) 
Heartbeat CPU 0 instructions: 20000000 cycles: 5724406 heartbeat IPC: 3.48393 cumulative IPC: 3.49381 (Simulation time: 0 hr 9 min 57 sec) 
Heartbeat CPU 0 instructions: 22000003 cycles: 6292414 heartbeat IPC: 3.52108 cumulative IPC: 3.49627 (Simulation time: 0 hr 11 min 0 sec) 
Heartbeat CPU 0 instructions: 24000001 cycles: 6863812 heartbeat IPC: 3.50018 cumulative IPC: 3.4966 (Simulation time: 0 hr 12 min 1 sec) 
Heartbeat CPU 0 instructions: 26000000 cycles: 7437877 heartbeat IPC: 3.48392 cumulative IPC: 3.49562 (Simulation time: 0 hr 13 min 3 sec) 
Heartbeat CPU 0 instructions: 28000001 cycles: 8008991 heartbeat IPC: 3.50193 cumulative IPC: 3.49607 (Simulation time: 0 hr 14 min 6 sec) 
Heartbeat CPU 0 instructions: 30000001 cycles: 8583047 heartbeat IPC: 3.48398 cumulative IPC: 3.49526 (Simulation time: 0 hr 15 min 10 sec) 
Heartbeat CPU 0 instructions: 32000002 cycles: 9154205 heartbeat IPC: 3.50166 cumulative IPC: 3.49566 (Simulation time: 0 hr 16 min 10 sec) 
Heartbeat CPU 0 instructions: 34000001 cycles: 9728278 heartbeat IPC: 3.48388 cumulative IPC: 3.49497 (Simulation time: 0 hr 17 min 10 sec) 
Heartbeat CPU 0 instructions: 36000002 cycles: 10302341 heartbeat IPC: 3.48394 cumulative IPC: 3.49435 (Simulation time: 0 hr 18 min 7 sec) 
Heartbeat CPU 0 instructions: 38000000 cycles: 10892548 heartbeat IPC: 3.38864 cumulative IPC: 3.48862 (Simulation time: 0 hr 19 min 8 sec) 
Heartbeat CPU 0 instructions: 40000002 cycles: 11464585 heartbeat IPC: 3.49628 cumulative IPC: 3.48901 (Simulation time: 0 hr 20 min 9 sec) 
Heartbeat CPU 0 instructions: 42000001 cycles: 12038660 heartbeat IPC: 3.48386 cumulative IPC: 3.48876 (Simulation time: 0 hr 21 min 8 sec) 
Heartbeat CPU 0 instructions: 44000002 cycles: 12609906 heartbeat IPC: 3.50112 cumulative IPC: 3.48932 (Simulation time: 0 hr 22 min 8 sec) 
Heartbeat CPU 0 instructions: 46000002 cycles: 13169078 heartbeat IPC: 3.57672 cumulative IPC: 3.49303 (Simulation time: 0 hr 23 min 7 sec) 
Heartbeat CPU 0 instructions: 48000002 cycles: 13746627 heartbeat IPC: 3.46291 cumulative IPC: 3.49177 (Simulation time: 0 hr 24 min 8 sec) 
Heartbeat CPU 0 instructions: 50000001 cycles: 14317798 heartbeat IPC: 3.50158 cumulative IPC: 3.49216 (Simulation time: 0 hr 25 min 6 sec) 

Warmup complete CPU 0 instructions: 50000001 cycles: 14317798 (Simulation time: 0 hr 25 min 6 sec) 

Heartbeat CPU 0 instructions: 52000001 cycles: 21526660 heartbeat IPC: 0.277436 cumulative IPC: 0.277436 (Simulation time: 0 hr 26 min 48 sec) 

Region of Interest Statistics
cpu0_DTLB TOTAL     ACCESS:     445097  HIT:     440564  MISS:       4533
cpu0_DTLB LOAD      ACCESS:     419132  HIT:     414599  MISS:       4533
cpu0_DTLB RFO       ACCESS:      25965  HIT:      25965  MISS:          0
cpu0_DTLB PREFETCH  ACCESS:          0  HIT:          0  MISS:          0
cpu0_DTLB WRITEBACK ACCESS:          0  HIT:          0  MISS:          0
cpu0_ITLB TOTAL     ACCESS:     279538  HIT:     279538  MISS:          0
cpu0_ITLB LOAD      ACCESS:     279538  HIT:     279538  MISS:          0
cpu0_ITLB RFO       ACCESS:          0  HIT:          0  MISS:          0
cpu0_ITLB PREFETCH  ACCESS:          0  HIT:          0  MISS:          0
cpu0_ITLB WRITEBACK ACCESS:          0  HIT:          0  MISS:          0
cpu0_L1I TOTAL     ACCESS:         10  HIT:         10  MISS:          0
cpu0_L1I LOAD      ACCESS:         10  HIT:         10  MISS:          0
cpu0_L1I RFO       ACCESS:          0  HIT:          0  MISS:          0
cpu0_L1I PREFETCH  ACCESS:          0  HIT:          0  MISS:          0
cpu0_L1I WRITEBACK ACCESS:          0  HIT:          0  MISS:          0
cpu0_STLB TOTAL     ACCESS:       4533  HIT:        103  MISS:       4430
cpu0_STLB LOAD      ACCESS:       4533  HIT:        103  MISS:       4430
cpu0_STLB RFO       ACCESS:          0  HIT:          0  MISS:          0
cpu0_STLB PREFETCH  ACCESS:          0  HIT:          0  MISS:          0
cpu0_STLB WRITEBACK ACCESS:          0  HIT:          0  MISS:          0
cpu0_L1D TOTAL     ACCESS:     372521  HIT:     315756  MISS:      56765
cpu0_L1D LOAD      ACCESS:     316272  HIT:     259608  MISS:      56664
cpu0_L1D RFO       ACCESS:      51938  HIT:      51938  MISS:          0
cpu0_L1D PREFETCH  ACCESS:          0  HIT:          0  MISS:          0
cpu0_L1D WRITEBACK ACCESS:          0  HIT:          0  MISS:          0
cpu0_L2C TOTAL     ACCESS:      56765  HIT:        101  MISS:      56664
cpu0_L2C LOAD      ACCESS:      56664  HIT:         10  MISS:      56654
cpu0_L2C RFO       ACCESS:          0  HIT:          0  MISS:          0
cpu0_L2C PREFETCH  ACCESS:          0  HIT:          0  MISS:          0
cpu0_L2C WRITEBACK ACCESS:          0  HIT:          0  MISS:          0
LLC TOTAL     ACCESS:      56664  HIT:          0  MISS:      56664
LLC LOAD      ACCESS:      56654  HIT:          0  MISS:      56654
LLC RFO       ACCESS:          0  HIT:          0  MISS:          0
LLC PREFETCH  ACCESS:          0  HIT:          0  MISS:          0
LLC WRITEBACK ACCESS:          0  HIT:          0  MISS:          0
Heartbeat CPU 0 instructions: 54000002 cycles: 28588509 heartbeat IPC: 0.283212 cumulative IPC: 0.280294 (Simulation time: 0 hr 28 min 36 sec) 

Region of Interest Statistics
cpu0_DTLB TOTAL     ACCESS:     891714  HIT:     879834  MISS:      11880
cpu0_DTLB LOAD      ACCESS:     828230  HIT:     816587  MISS:      11643
cpu0_DTLB RFO       ACCESS:      63484  HIT:      63247  MISS:        237
cpu0_DTLB PREFETCH  ACCESS:          0  HIT:          0  MISS:          0
cpu0_DTLB WRITEBACK ACCESS:          0  HIT:          0  MISS:          0
cpu0_ITLB TOTAL     ACCESS:     552442  HIT:     551566  MISS:        876
cpu0_ITLB LOAD      ACCESS:     552442  HIT:     551566  MISS:        876
cpu0_ITLB RFO       ACCESS:          0  HIT:          0  MISS:          0
cpu0_ITLB PREFETCH  ACCESS:          0  HIT:          0  MISS:          0
cpu0_ITLB WRITEBACK ACCESS:          0  HIT:          0  MISS:          0
cpu0_L1I TOTAL     ACCESS:      22414  HIT:      17920  MISS:       4494
cpu0_L1I LOAD      ACCESS:      22414  HIT:      17920  MISS:       4494
cpu0_L1I RFO       ACCESS:          0  HIT:          0  MISS:          0
cpu0_L1I PREFETCH  ACCESS:          0  HIT:          0  MISS:          0
cpu0_L1I WRITEBACK ACCESS:          0  HIT:          0  MISS:          0
cpu0_STLB TOTAL     ACCESS:      12756  HIT:       2292  MISS:      10464
cpu0_STLB LOAD      ACCESS:      12519  HIT:       2111  MISS:      10408
cpu0_STLB RFO       ACCESS:        237  HIT:        181  MISS:         56
cpu0_STLB PREFETCH  ACCESS:          0  HIT:          0  MISS:          0
cpu0_STLB WRITEBACK ACCESS:          0  HIT:          0  MISS:          0
cpu0_L1D TOTAL     ACCESS:     762657  HIT:     652153  MISS:     110504
cpu0_L1D LOAD      ACCESS:     625965  HIT:     516012  MISS:     109953
cpu0_L1D RFO       ACCESS:     127394  HIT:     127088  MISS:        306
cpu0_L1D PREFETCH  ACCESS:          0  HIT:          0  MISS:          0
cpu0_L1D WRITEBACK ACCESS:          0  HIT:          0  MISS:          0
cpu0_L2C TOTAL     ACCESS:     115762  HIT:       3792  MISS:     111970
cpu0_L2C LOAD      ACCESS:     114447  HIT:       2775  MISS:     111672
cpu0_L2C RFO       ACCESS:        306  HIT:         70  MISS:        236
cpu0_L2C PREFETCH  ACCESS:          0  HIT:          0  MISS:          0
cpu0_L2C WRITEBACK ACCESS:        764  HIT:        749  MISS:         15
LLC TOTAL     ACCESS:     112262  HIT:          0  MISS:     112262
LLC LOAD      ACCESS:     111672  HIT:          0  MISS:     111672
LLC RFO       ACCESS:        236  HIT:          0  MISS:        236
LLC PREFETCH  ACCESS:          0  HIT:          0  MISS:          0
LLC WRITEBACK ACCESS:        307  HIT:          0  MISS:        307
Heartbeat CPU 0 instructions: 56000002 cycles: 35747709 heartbeat IPC: 0.279361 cumulative IPC: 0.279983 (Simulation time: 0 hr 30 min 25 sec) 

Region of Interest Statistics
cpu0_DTLB TOTAL     ACCESS:    1339386  HIT:    1322912  MISS:      16474
cpu0_DTLB LOAD      ACCESS:    1250499  HIT:    1234262  MISS:      16237
cpu0_DTLB RFO       ACCESS:      88887  HIT:      88650  MISS:        237
cpu0_DTLB PREFETCH  ACCESS:          0  HIT:          0  MISS:          0
cpu0_DTLB WRITEBACK ACCESS:          0  HIT:          0  MISS:          0
cpu0_ITLB TOTAL     ACCESS:     837041  HIT:     836165  MISS:        876
cpu0_ITLB LOAD      ACCESS:     837041  HIT:     836165  MISS:        876
cpu0_ITLB RFO       ACCESS:          0  HIT:          0  MISS:          0
cpu0_ITLB PREFETCH  ACCESS:          0  HIT:          0  MISS:          0
cpu0_ITLB WRITEBACK ACCESS:          0  HIT:          0  MISS:          0
cpu0_L1I TOTAL     ACCESS:      22414  HIT:      17920  MISS:       4494
cpu0_L1I LOAD      ACCESS:      22414  HIT:      17920  MISS:       4494
cpu0_L1I RFO       ACCESS:          0  HIT:          0  MISS:          0
cpu0_L1I PREFETCH  ACCESS:          0  HIT:          0  MISS:          0
cpu0_L1I WRITEBACK ACCESS:          0  HIT:          0  MISS:          0
cpu0_STLB TOTAL     ACCESS:      17350  HIT:       2405  MISS:      14945
cpu0_STLB LOAD      ACCESS:      17113  HIT:       2224  MISS:      14889
cpu0_STLB RFO       ACCESS:        237  HIT:        181  MISS:         56
cpu0_STLB PREFETCH  ACCESS:          0  HIT:          0  MISS:          0
cpu0_STLB WRITEBACK ACCESS:          0  HIT:          0  MISS:          0
cpu0_L1D TOTAL     ACCESS:    1128029  HIT:     961990  MISS:     166039
cpu0_L1D LOAD      ACCESS:     936200  HIT:     770801  MISS:     165399
cpu0_L1D RFO       ACCESS:     178202  HIT:     177896  MISS:        306
cpu0_L1D PREFETCH  ACCESS:          0  HIT:          0  MISS:          0
cpu0_L1D WRITEBACK ACCESS:          0  HIT:          0  MISS:          0
cpu0_L2C TOTAL     ACCESS:     171312  HIT:       3894  MISS:     167418
cpu0_L2C LOAD      ACCESS:     169893  HIT:       2785  MISS:     167108
cpu0_L2C RFO       ACCESS:        306  HIT:         70  MISS:        236
cpu0_L2C PREFETCH  ACCESS:          0  HIT:          0  MISS:          0
cpu0_L2C WRITEBACK ACCESS:        779  HIT:        764  MISS:         15
LLC TOTAL     ACCESS:     168013  HIT:          0  MISS:     168013
LLC LOAD      ACCESS:     167108  HIT:          0  MISS:     167108
LLC RFO       ACCESS:        236  HIT:          0  MISS:        236
LLC PREFETCH  ACCESS:          0  HIT:          0  MISS:          0
LLC WRITEBACK ACCESS:        610  HIT:          0  MISS:        610
Heartbeat CPU 0 instructions: 58000003 cycles: 42778749 heartbeat IPC: 0.284453 cumulative IPC: 0.281087 (Simulation time: 0 hr 32 min 16 sec) 

Region of Interest Statistics
cpu0_DTLB TOTAL     ACCESS:    1786696  HIT:    1764395  MISS:      22301
cpu0_DTLB LOAD      ACCESS:    1666315  HIT:    1644365  MISS:      21950
cpu0_DTLB RFO       ACCESS:     120381  HIT:     120030  MISS:        351
cpu0_DTLB PREFETCH  ACCESS:          0  HIT:          0  MISS:          0
cpu0_DTLB WRITEBACK ACCESS:          0  HIT:          0  MISS:          0
cpu0_ITLB TOTAL     ACCESS:    1115783  HIT:    1114469  MISS:       1314
cpu0_ITLB LOAD      ACCESS:    1115783  HIT:    1114469  MISS:       1314
cpu0_ITLB RFO       ACCESS:          0  HIT:          0  MISS:          0
cpu0_ITLB PREFETCH  ACCESS:          0  HIT:          0  MISS:          0
cpu0_ITLB WRITEBACK ACCESS:          0  HIT:          0  MISS:          0
cpu0_L1I TOTAL     ACCESS:      33677  HIT:      26933  MISS:       6744
cpu0_L1I LOAD      ACCESS:      33677  HIT:      26933  MISS:       6744
cpu0_L1I RFO       ACCESS:          0  HIT:          0  MISS:          0
cpu0_L1I PREFETCH  ACCESS:          0  HIT:          0  MISS:          0
cpu0_L1I WRITEBACK ACCESS:          0  HIT:          0  MISS:          0
cpu0_STLB TOTAL     ACCESS:      23615  HIT:       3529  MISS:      20086
cpu0_STLB LOAD      ACCESS:      23264  HIT:       3261  MISS:      20003
cpu0_STLB RFO       ACCESS:        351  HIT:        268  MISS:         83
cpu0_STLB PREFETCH  ACCESS:          0  HIT:          0  MISS:          0
cpu0_STLB WRITEBACK ACCESS:          0  HIT:          0  MISS:          0
cpu0_L1D TOTAL     ACCESS:    1505443  HIT:    1284761  MISS:     220682
cpu0_L1D LOAD      ACCESS:    1245871  HIT:    1026103  MISS:     219768
cpu0_L1D RFO       ACCESS:     241359  HIT:     240904  MISS:        455
cpu0_L1D PREFETCH  ACCESS:          0  HIT:          0  MISS:          0
cpu0_L1D WRITEBACK ACCESS:          0  HIT:          0  MISS:          0
cpu0_L2C TOTAL     ACCESS:     228605  HIT:       5839  MISS:     222766
cpu0_L2C LOAD      ACCESS:     226512  HIT:       4199  MISS:     222313
cpu0_L2C RFO       ACCESS:        455  HIT:        106  MISS:        349
cpu0_L2C PREFETCH  ACCESS:          0  HIT:          0  MISS:          0
cpu0_L2C WRITEBACK ACCESS:       1179  HIT:       1157  MISS:         22
LLC TOTAL     ACCESS:     223380  HIT:          0  MISS:     223380
LLC LOAD      ACCESS:     222314  HIT:          0  MISS:     222314
LLC RFO       ACCESS:        349  HIT:          0  MISS:        349
LLC PREFETCH  ACCESS:          0  HIT:          0  MISS:          0
LLC WRITEBACK ACCESS:        635  HIT:          0  MISS:        635
Heartbeat CPU 0 instructions: 60000000 cycles: 49941806 heartbeat IPC: 0.27921 cumulative IPC: 0.28071 (Simulation time: 0 hr 33 min 40 sec) 

Region of Interest Statistics
cpu0_DTLB TOTAL     ACCESS:    2234697  HIT:    2207816  MISS:      26881
cpu0_DTLB LOAD      ACCESS:    2088894  HIT:    2062364  MISS:      26530
cpu0_DTLB RFO       ACCESS:     145803  HIT:     145452  MISS:        351
cpu0_DTLB PREFETCH  ACCESS:          0  HIT:          0  MISS:          0
cpu0_DTLB WRITEBACK ACCESS:          0  HIT:          0  MISS:          0
cpu0_ITLB TOTAL     ACCESS:    1400375  HIT:    1399061  MISS:       1314
cpu0_ITLB LOAD      ACCESS:    1400375  HIT:    1399061  MISS:       1314
cpu0_ITLB RFO       ACCESS:          0  HIT:          0  MISS:          0
cpu0_ITLB PREFETCH  ACCESS:          0  HIT:          0  MISS:          0
cpu0_ITLB WRITEBACK ACCESS:          0  HIT:          0  MISS:          0
cpu0_L1I TOTAL     ACCESS:      33677  HIT:      26933  MISS:       6744
cpu0_L1I LOAD      ACCESS:      33677  HIT:      26933  MISS:       6744
cpu0_L1I RFO       ACCESS:          0  HIT:          0  MISS:          0
cpu0_L1I PREFETCH  ACCESS:          0  HIT:          0  MISS:          0
cpu0_L1I WRITEBACK ACCESS:          0  HIT:          0  MISS:          0
cpu0_STLB TOTAL     ACCESS:      28195  HIT:       3652  MISS:      24543
cpu0_STLB LOAD      ACCESS:      27844  HIT:       3384  MISS:      24460
cpu0_STLB RFO       ACCESS:        351  HIT:        268  MISS:         83
cpu0_STLB PREFETCH  ACCESS:          0  HIT:          0  MISS:          0
cpu0_STLB WRITEBACK ACCESS:          0  HIT:          0  MISS:          0
cpu0_L1D TOTAL     ACCESS:    1870797  HIT:    1594540  MISS:     276257
cpu0_L1D LOAD      ACCESS:    1556073  HIT:    1280825  MISS:     275248
cpu0_L1D RFO       ACCESS:     292203  HIT:     291748  MISS:        455
cpu0_L1D PREFETCH  ACCESS:          0  HIT:          0  MISS:          0
cpu0_L1D WRITEBACK ACCESS:          0  HIT:          0  MISS:          0
cpu0_L2C TOTAL     ACCESS:     284180  HIT:       5929  MISS:     278251
cpu0_L2C LOAD      ACCESS:     281992  HIT:       4210  MISS:     277782
cpu0_L2C RFO       ACCESS:        455  HIT:        106  MISS:        349
cpu0_L2C PREFETCH  ACCESS:          0  HIT:          0  MISS:          0
cpu0_L2C WRITEBACK ACCESS:       1179  HIT:       1157  MISS:         22
LLC TOTAL     ACCESS:     279142  HIT:          0  MISS:     279142
LLC LOAD      ACCESS:     277782  HIT:          0  MISS:     277782
LLC RFO       ACCESS:        349  HIT:          0  MISS:        349
LLC PREFETCH  ACCESS:          0  HIT:          0  MISS:          0
LLC WRITEBACK ACCESS:        913  HIT:          0  MISS:        913
Heartbeat CPU 0 instructions: 62000002 cycles: 57562465 heartbeat IPC: 0.262445 cumulative IPC: 0.277491 (Simulation time: 0 hr 35 min 12 sec) 

Region of Interest Statistics
cpu0_DTLB TOTAL     ACCESS:    2675695  HIT:    2637949  MISS:      37746
cpu0_DTLB LOAD      ACCESS:    2486525  HIT:    2449470  MISS:      37055
cpu0_DTLB RFO       ACCESS:     189170  HIT:     188479  MISS:        691
cpu0_DTLB PREFETCH  ACCESS:          0  HIT:          0  MISS:          0
cpu0_DTLB WRITEBACK ACCESS:          0  HIT:          0  MISS:          0
cpu0_ITLB TOTAL     ACCESS:    1664463  HIT:    1661970  MISS:       2493
cpu0_ITLB LOAD      ACCESS:    1664463  HIT:    1661970  MISS:       2493
cpu0_ITLB RFO       ACCESS:          0  HIT:          0  MISS:          0
cpu0_ITLB PREFETCH  ACCESS:          0  HIT:          0  MISS:          0
cpu0_ITLB WRITEBACK ACCESS:          0  HIT:          0  MISS:          0
cpu0_L1I TOTAL     ACCESS:      64255  HIT:      51311  MISS:      12944
cpu0_L1I LOAD      ACCESS:      64255  HIT:      51311  MISS:      12944
cpu0_L1I RFO       ACCESS:          0  HIT:          0  MISS:          0
cpu0_L1I PREFETCH  ACCESS:          0  HIT:          0  MISS:          0
cpu0_L1I WRITEBACK ACCESS:          0  HIT:          0  MISS:          0
cpu0_STLB TOTAL     ACCESS:      40239  HIT:       6941  MISS:      33298
cpu0_STLB LOAD      ACCESS:      39548  HIT:       6402  MISS:      33146
cpu0_STLB RFO       ACCESS:        691  HIT:        539  MISS:        152
cpu0_STLB PREFETCH  ACCESS:          0  HIT:          0  MISS:          0
cpu0_STLB WRITEBACK ACCESS:          0  HIT:          0  MISS:          0
cpu0_L1D TOTAL     ACCESS:    2279713  HIT:    1946388  MISS:     333325
cpu0_L1D LOAD      ACCESS:    1870623  HIT:    1538903  MISS:     331720
cpu0_L1D RFO       ACCESS:     379398  HIT:     378505  MISS:        893
cpu0_L1D PREFETCH  ACCESS:          0  HIT:          0  MISS:          0
cpu0_L1D WRITEBACK ACCESS:          0  HIT:          0  MISS:          0
cpu0_L2C TOTAL     ACCESS:     348614  HIT:      11148  MISS:     337466
cpu0_L2C LOAD      ACCESS:     344664  HIT:       8076  MISS:     336588
cpu0_L2C RFO       ACCESS:        893  HIT:        206  MISS:        687
cpu0_L2C PREFETCH  ACCESS:          0  HIT:          0  MISS:          0
cpu0_L2C WRITEBACK ACCESS:       2345  HIT:       2303  MISS:         42
LLC TOTAL     ACCESS:     339230  HIT:          3  MISS:     339227
LLC LOAD      ACCESS:     336588  HIT:          3  MISS:     336585
LLC RFO       ACCESS:        687  HIT:          0  MISS:        687
LLC PREFETCH  ACCESS:          0  HIT:          0  MISS:          0
LLC WRITEBACK ACCESS:       1806  HIT:          0  MISS:       1806
Heartbeat CPU 0 instructions: 64000002 cycles: 66034292 heartbeat IPC: 0.236077 cumulative IPC: 0.270707 (Simulation time: 0 hr 37 min 4 sec) 

Region of Interest Statistics
cpu0_DTLB TOTAL     ACCESS:    3110754  HIT:    3055209  MISS:      55545
cpu0_DTLB LOAD      ACCESS:    2880536  HIT:    2826012  MISS:      54524
cpu0_DTLB RFO       ACCESS:     230218  HIT:     229197  MISS:       1021
cpu0_DTLB PREFETCH  ACCESS:          0  HIT:          0  MISS:          0
cpu0_DTLB WRITEBACK ACCESS:          0  HIT:          0  MISS:          0
cpu0_ITLB TOTAL     ACCESS:    1929661  HIT:    1926138  MISS:       3523
cpu0_ITLB LOAD      ACCESS:    1929661  HIT:    1926138  MISS:       3523
cpu0_ITLB RFO       ACCESS:          0  HIT:          0  MISS:          0
cpu0_ITLB PREFETCH  ACCESS:          0  HIT:          0  MISS:          0
cpu0_ITLB WRITEBACK ACCESS:          0  HIT:          0  MISS:          0
cpu0_L1I TOTAL     ACCESS:      92566  HIT:      74339  MISS:      18227
cpu0_L1I LOAD      ACCESS:      92566  HIT:      74339  MISS:      18227
cpu0_L1I RFO       ACCESS:          0  HIT:          0  MISS:          0
cpu0_L1I PREFETCH  ACCESS:          0  HIT:          0  MISS:          0
cpu0_L1I WRITEBACK ACCESS:          0  HIT:          0  MISS:          0
cpu0_STLB TOTAL     ACCESS:      59068  HIT:       9981  MISS:      49087
cpu0_STLB LOAD      ACCESS:      58047  HIT:       9164  MISS:      48883
cpu0_STLB RFO       ACCESS:       1021  HIT:        817  MISS:        204
cpu0_STLB PREFETCH  ACCESS:          0  HIT:          0  MISS:          0
cpu0_STLB WRITEBACK ACCESS:          0  HIT:          0  MISS:          0
cpu0_L1D TOTAL     ACCESS:    2690228  HIT:    2298962  MISS:     391266
cpu0_L1D LOAD      ACCESS:    2185151  HIT:    1795997  MISS:     389154
cpu0_L1D RFO       ACCESS:     461766  HIT:     460502  MISS:       1264
cpu0_L1D PREFETCH  ACCESS:          0  HIT:          0  MISS:          0
cpu0_L1D WRITEBACK ACCESS:          0  HIT:          0  MISS:          0
cpu0_L2C TOTAL     ACCESS:     412712  HIT:      15958  MISS:     396754
cpu0_L2C LOAD      ACCESS:     407381  HIT:      11833  MISS:     395548
cpu0_L2C RFO       ACCESS:       1264  HIT:        306  MISS:        958
cpu0_L2C PREFETCH  ACCESS:          0  HIT:          0  MISS:          0
cpu0_L2C WRITEBACK ACCESS:       3219  HIT:       3162  MISS:         57
LLC TOTAL     ACCESS:     399032  HIT:          3  MISS:     399029
LLC LOAD      ACCESS:     395548  HIT:          3  MISS:     395545
LLC RFO       ACCESS:        958  HIT:          0  MISS:        958
LLC PREFETCH  ACCESS:          0  HIT:          0  MISS:          0
LLC WRITEBACK ACCESS:       2335  HIT:          0  MISS:       2335
Heartbeat CPU 0 instructions: 66000000 cycles: 73163405 heartbeat IPC: 0.28054 cumulative IPC: 0.271898 (Simulation time: 0 hr 38 min 50 sec) 

Region of Interest Statistics
cpu0_DTLB TOTAL     ACCESS:    3550383  HIT:    3484436  MISS:      65947
cpu0_DTLB LOAD      ACCESS:    3290748  HIT:    3225970  MISS:      64778
cpu0_DTLB RFO       ACCESS:     259635  HIT:     258466  MISS:       1169
cpu0_DTLB PREFETCH  ACCESS:          0  HIT:          0  MISS:          0
cpu0_DTLB WRITEBACK ACCESS:          0  HIT:          0  MISS:          0
cpu0_ITLB TOTAL     ACCESS:    2207928  HIT:    2203901  MISS:       4027
cpu0_ITLB LOAD      ACCESS:    2207928  HIT:    2203901  MISS:       4027
cpu0_ITLB RFO       ACCESS:          0  HIT:          0  MISS:          0
cpu0_ITLB PREFETCH  ACCESS:          0  HIT:          0  MISS:          0
cpu0_ITLB WRITEBACK ACCESS:          0  HIT:          0  MISS:          0
cpu0_L1I TOTAL     ACCESS:     105434  HIT:      84714  MISS:      20720
cpu0_L1I LOAD      ACCESS:     105434  HIT:      84714  MISS:      20720
cpu0_L1I RFO       ACCESS:          0  HIT:          0  MISS:          0
cpu0_L1I PREFETCH  ACCESS:          0  HIT:          0  MISS:          0
cpu0_L1I WRITEBACK ACCESS:          0  HIT:          0  MISS:          0
cpu0_STLB TOTAL     ACCESS:      69974  HIT:      11456  MISS:      58518
cpu0_STLB LOAD      ACCESS:      68805  HIT:      10516  MISS:      58289
cpu0_STLB RFO       ACCESS:       1169  HIT:        940  MISS:        229
cpu0_STLB PREFETCH  ACCESS:          0  HIT:          0  MISS:          0
cpu0_STLB WRITEBACK ACCESS:          0  HIT:          0  MISS:          0
cpu0_L1D TOTAL     ACCESS:    3057974  HIT:    2615504  MISS:     442470
cpu0_L1D LOAD      ACCESS:    2485354  HIT:    2045291  MISS:     440063
cpu0_L1D RFO       ACCESS:     520974  HIT:     519515  MISS:       1459
cpu0_L1D PREFETCH  ACCESS:          0  HIT:          0  MISS:          0
cpu0_L1D WRITEBACK ACCESS:          0  HIT:          0  MISS:          0
cpu0_L2C TOTAL     ACCESS:     466873  HIT:      18347  MISS:     448526
cpu0_L2C LOAD      ACCESS:     460783  HIT:      13639  MISS:     447144
cpu0_L2C RFO       ACCESS:       1459  HIT:        362  MISS:       1097
cpu0_L2C PREFETCH  ACCESS:          0  HIT:          0  MISS:          0
cpu0_L2C WRITEBACK ACCESS:       3683  HIT:       3618  MISS:         65
LLC TOTAL     ACCESS:     451249  HIT:          3  MISS:     451246
LLC LOAD      ACCESS:     447144  HIT:          3  MISS:     447141
LLC RFO       ACCESS:       1097  HIT:          0  MISS:       1097
LLC PREFETCH  ACCESS:          0  HIT:          0  MISS:          0
LLC WRITEBACK ACCESS:       2788  HIT:          0  MISS:       2788
Heartbeat CPU 0 instructions: 68000001 cycles: 80284377 heartbeat IPC: 0.280861 cumulative IPC: 0.272865 (Simulation time: 0 hr 40 min 36 sec) 

Region of Interest Statistics
cpu0_DTLB TOTAL     ACCESS:    3998449  HIT:    3927948  MISS:      70501
cpu0_DTLB LOAD      ACCESS:    3713396  HIT:    3644064  MISS:      69332
cpu0_DTLB RFO       ACCESS:     285053  HIT:     283884  MISS:       1169
cpu0_DTLB PREFETCH  ACCESS:          0  HIT:          0  MISS:          0
cpu0_DTLB WRITEBACK ACCESS:          0  HIT:          0  MISS:          0
cpu0_ITLB TOTAL     ACCESS:    2492536  HIT:    2488509  MISS:       4027
cpu0_ITLB LOAD      ACCESS:    2492536  HIT:    2488509  MISS:       4027
cpu0_ITLB RFO       ACCESS:          0  HIT:          0  MISS:          0
cpu0_ITLB PREFETCH  ACCESS:          0  HIT:          0  MISS:          0
cpu0_ITLB WRITEBACK ACCESS:          0  HIT:          0  MISS:          0
cpu0_L1I TOTAL     ACCESS:     105434  HIT:      84714  MISS:      20720
cpu0_L1I LOAD      ACCESS:     105434  HIT:      84714  MISS:      20720
cpu0_L1I RFO       ACCESS:          0  HIT:          0  MISS:          0
cpu0_L1I PREFETCH  ACCESS:          0  HIT:          0  MISS:          0
cpu0_L1I WRITEBACK ACCESS:          0  HIT:          0  MISS:          0
cpu0_STLB TOTAL     ACCESS:      74528  HIT:      11549  MISS:      62979
cpu0_STLB LOAD      ACCESS:      73359  HIT:      10609  MISS:      62750
cpu0_STLB RFO       ACCESS:       1169  HIT:        940  MISS:        229
cpu0_STLB PREFETCH  ACCESS:          0  HIT:          0  MISS:          0
cpu0_STLB WRITEBACK ACCESS:          0  HIT:          0  MISS:          0
cpu0_L1D TOTAL     ACCESS:    3423838  HIT:    2925771  MISS:     498067
cpu0_L1D LOAD      ACCESS:    2796062  HIT:    2300498  MISS:     495564
cpu0_L1D RFO       ACCESS:     571809  HIT:     570350  MISS:       1459
cpu0_L1D PREFETCH  ACCESS:          0  HIT:          0  MISS:          0
cpu0_L1D WRITEBACK ACCESS:          0  HIT:          0  MISS:          0
cpu0_L2C TOTAL     ACCESS:     522470  HIT:      18441  MISS:     504029
cpu0_L2C LOAD      ACCESS:     516284  HIT:      13648  MISS:     502636
cpu0_L2C RFO       ACCESS:       1459  HIT:        362  MISS:       1097
cpu0_L2C PREFETCH  ACCESS:          0  HIT:          0  MISS:          0
cpu0_L2C WRITEBACK ACCESS:       3683  HIT:       3618  MISS:         65
LLC TOTAL     ACCESS:     506752  HIT:          3  MISS:     506749
LLC LOAD      ACCESS:     502636  HIT:          3  MISS:     502633
LLC RFO       ACCESS:       1097  HIT:          0  MISS:       1097
LLC PREFETCH  ACCESS:          0  HIT:          0  MISS:          0
LLC WRITEBACK ACCESS:       2788  HIT:          0  MISS:       2788
Heartbeat CPU 0 instructions: 70000000 cycles: 87349949 heartbeat IPC: 0.283063 cumulative IPC: 0.273852 (Simulation time: 0 hr 42 min 21 sec) 

Region of Interest Statistics
cpu0_DTLB TOTAL     ACCESS:    4446463  HIT:    4371547  MISS:      74916
cpu0_DTLB LOAD      ACCESS:    4135981  HIT:    4062236  MISS:      73745
cpu0_DTLB RFO       ACCESS:     310482  HIT:     309311  MISS:       1171
cpu0_DTLB PREFETCH  ACCESS:          0  HIT:          0  MISS:          0
cpu0_DTLB WRITEBACK ACCESS:          0  HIT:          0  MISS:          0
cpu0_ITLB TOTAL     ACCESS:    2777095  HIT:    2773068  MISS:       4027
cpu0_ITLB LOAD      ACCESS:    2777095  HIT:    2773068  MISS:       4027
cpu0_ITLB RFO       ACCESS:          0  HIT:          0  MISS:          0
cpu0_ITLB PREFETCH  ACCESS:          0  HIT:          0  MISS:          0
cpu0_ITLB WRITEBACK ACCESS:          0  HIT:          0  MISS:          0
cpu0_L1I TOTAL     ACCESS:     105434  HIT:      84714  MISS:      20720
cpu0_L1I LOAD      ACCESS:     105434  HIT:      84714  MISS:      20720
cpu0_L1I RFO       ACCESS:          0  HIT:          0  MISS:          0
cpu0_L1I PREFETCH  ACCESS:          0  HIT:          0  MISS:          0
cpu0_L1I WRITEBACK ACCESS:          0  HIT:          0  MISS:          0
cpu0_STLB TOTAL     ACCESS:      78943  HIT:      11674  MISS:      67269
cpu0_STLB LOAD      ACCESS:      77772  HIT:      10733  MISS:      67039
cpu0_STLB RFO       ACCESS:       1171  HIT:        941  MISS:        230
cpu0_STLB PREFETCH  ACCESS:          0  HIT:          0  MISS:          0
cpu0_STLB WRITEBACK ACCESS:          0  HIT:          0  MISS:          0
cpu0_L1D TOTAL     ACCESS:    3789698  HIT:    3236226  MISS:     553472
cpu0_L1D LOAD      ACCESS:    3106897  HIT:    2556015  MISS:     550882
cpu0_L1D RFO       ACCESS:     622668  HIT:     621209  MISS:       1459
cpu0_L1D PREFETCH  ACCESS:          0  HIT:          0  MISS:          0
cpu0_L1D WRITEBACK ACCESS:          0  HIT:          0  MISS:          0
cpu0_L2C TOTAL     ACCESS:     577875  HIT:      18529  MISS:     559346
cpu0_L2C LOAD      ACCESS:     571602  HIT:      13658  MISS:     557944
cpu0_L2C RFO       ACCESS:       1459  HIT:        362  MISS:       1097
cpu0_L2C PREFETCH  ACCESS:          0  HIT:          0  MISS:          0
cpu0_L2C WRITEBACK ACCESS:       3683  HIT:       3618  MISS:         65
LLC TOTAL     ACCESS:     562069  HIT:          3  MISS:     562066
LLC LOAD      ACCESS:     557944  HIT:          3  MISS:     557941
LLC RFO       ACCESS:       1097  HIT:          0  MISS:       1097
LLC PREFETCH  ACCESS:          0  HIT:          0  MISS:          0
LLC WRITEBACK ACCESS:       2788  HIT:          0  MISS:       2788
Heartbeat CPU 0 instructions: 72000001 cycles: 94542639 heartbeat IPC: 0.27806 cumulative IPC: 0.274229 (Simulation time: 0 hr 44 min 8 sec) 

Region of Interest Statistics
cpu0_DTLB TOTAL     ACCESS:    4892145  HIT:    4811193  MISS:      80952
cpu0_DTLB LOAD      ACCESS:    4549947  HIT:    4470293  MISS:      79654
cpu0_DTLB RFO       ACCESS:     342198  HIT:     340900  MISS:       1298
cpu0_DTLB PREFETCH  ACCESS:          0  HIT:          0  MISS:          0
cpu0_DTLB WRITEBACK ACCESS:          0  HIT:          0  MISS:          0
cpu0_ITLB TOTAL     ACCESS:    3051704  HIT:    3047244  MISS:       4460
cpu0_ITLB LOAD      ACCESS:    3051704  HIT:    3047244  MISS:       4460
cpu0_ITLB RFO       ACCESS:          0  HIT:          0  MISS:          0
cpu0_ITLB PREFETCH  ACCESS:          0  HIT:          0  MISS:          0
cpu0_ITLB WRITEBACK ACCESS:          0  HIT:          0  MISS:          0
cpu0_L1I TOTAL     ACCESS:     116503  HIT:      93567  MISS:      22936
cpu0_L1I LOAD      ACCESS:     116503  HIT:      93567  MISS:      22936
cpu0_L1I RFO       ACCESS:          0  HIT:          0  MISS:          0
cpu0_L1I PREFETCH  ACCESS:          0  HIT:          0  MISS:          0
cpu0_L1I WRITEBACK ACCESS:          0  HIT:          0  MISS:          0
cpu0_STLB TOTAL     ACCESS:      85412  HIT:      12877  MISS:      72535
cpu0_STLB LOAD      ACCESS:      84114  HIT:      11832  MISS:      72282
cpu0_STLB RFO       ACCESS:       1298  HIT:       1045  MISS:        253
cpu0_STLB PREFETCH  ACCESS:          0  HIT:          0  MISS:          0
cpu0_STLB WRITEBACK ACCESS:          0  HIT:          0  MISS:          0
cpu0_L1D TOTAL     ACCESS:    4171006  HIT:    3562258  MISS:     608748
cpu0_L1D LOAD      ACCESS:    3419821  HIT:    2813917  MISS:     605904
cpu0_L1D RFO       ACCESS:     686395  HIT:     684796  MISS:       1599
cpu0_L1D PREFETCH  ACCESS:          0  HIT:          0  MISS:          0
cpu0_L1D WRITEBACK ACCESS:          0  HIT:          0  MISS:          0
cpu0_L2C TOTAL     ACCESS:     635719  HIT:      20320  MISS:     615399
cpu0_L2C LOAD      ACCESS:     628840  HIT:      14988  MISS:     613852
cpu0_L2C RFO       ACCESS:       1599  HIT:        391  MISS:       1208
cpu0_L2C PREFETCH  ACCESS:          0  HIT:          0  MISS:          0
cpu0_L2C WRITEBACK ACCESS:       4035  HIT:       3962  MISS:         73
LLC TOTAL     ACCESS:     618410  HIT:          3  MISS:     618407
LLC LOAD      ACCESS:     613852  HIT:          3  MISS:     613849
LLC RFO       ACCESS:       1208  HIT:          0  MISS:       1208
LLC PREFETCH  ACCESS:          0  HIT:          0  MISS:          0
LLC WRITEBACK ACCESS:       3084  HIT:          0  MISS:       3084
Heartbeat CPU 0 instructions: 74000000 cycles: 101713069 heartbeat IPC: 0.278923 cumulative IPC: 0.274614 (Simulation time: 0 hr 45 min 50 sec) 

Region of Interest Statistics
cpu0_DTLB TOTAL     ACCESS:    5338130  HIT:    5252668  MISS:      85462
cpu0_DTLB LOAD      ACCESS:    4970137  HIT:    4885973  MISS:      84164
cpu0_DTLB RFO       ACCESS:     367993  HIT:     366695  MISS:       1298
cpu0_DTLB PREFETCH  ACCESS:          0  HIT:          0  MISS:          0
cpu0_DTLB WRITEBACK ACCESS:          0  HIT:          0  MISS:          0
cpu0_ITLB TOTAL     ACCESS:    3331346  HIT:    3326886  MISS:       4460
cpu0_ITLB LOAD      ACCESS:    3331346  HIT:    3326886  MISS:       4460
cpu0_ITLB RFO       ACCESS:          0  HIT:          0  MISS:          0
cpu0_ITLB PREFETCH  ACCESS:          0  HIT:          0  MISS:          0
cpu0_ITLB WRITEBACK ACCESS:          0  HIT:          0  MISS:          0
cpu0_L1I TOTAL     ACCESS:     116503  HIT:      93567  MISS:      22936
cpu0_L1I LOAD      ACCESS:     116503  HIT:      93567  MISS:      22936
cpu0_L1I RFO       ACCESS:          0  HIT:          0  MISS:          0
cpu0_L1I PREFETCH  ACCESS:          0  HIT:          0  MISS:          0
cpu0_L1I WRITEBACK ACCESS:          0  HIT:          0  MISS:          0
cpu0_STLB TOTAL     ACCESS:      89922  HIT:      12980  MISS:      76942
cpu0_STLB LOAD      ACCESS:      88624  HIT:      11935  MISS:      76689
cpu0_STLB RFO       ACCESS:       1298  HIT:       1045  MISS:        253
cpu0_STLB PREFETCH  ACCESS:          0  HIT:          0  MISS:          0
cpu0_STLB WRITEBACK ACCESS:          0  HIT:          0  MISS:          0
cpu0_L1D TOTAL     ACCESS:    4541038  HIT:    3875903  MISS:     665135
cpu0_L1D LOAD      ACCESS:    3733976  HIT:    3071786  MISS:     662190
cpu0_L1D RFO       ACCESS:     737986  HIT:     736387  MISS:       1599
cpu0_L1D PREFETCH  ACCESS:          0  HIT:          0  MISS:          0
cpu0_L1D WRITEBACK ACCESS:          0  HIT:          0  MISS:          0
cpu0_L2C TOTAL     ACCESS:     692106  HIT:      20421  MISS:     671685
cpu0_L2C LOAD      ACCESS:     685126  HIT:      14998  MISS:     670128
cpu0_L2C RFO       ACCESS:       1599  HIT:        391  MISS:       1208
cpu0_L2C PREFETCH  ACCESS:          0  HIT:          0  MISS:          0
cpu0_L2C WRITEBACK ACCESS:       4035  HIT:       3962  MISS:         73
LLC TOTAL     ACCESS:     674696  HIT:          3  MISS:     674693
LLC LOAD      ACCESS:     670128  HIT:          3  MISS:     670125
LLC RFO       ACCESS:       1208  HIT:          0  MISS:       1208
LLC PREFETCH  ACCESS:          0  HIT:          0  MISS:          0
LLC WRITEBACK ACCESS:       3084  HIT:          0  MISS:       3084
Heartbeat CPU 0 instructions: 76000002 cycles: 108800189 heartbeat IPC: 0.282202 cumulative IPC: 0.275184 (Simulation time: 0 hr 47 min 31 sec) 

Region of Interest Statistics
cpu0_DTLB TOTAL     ACCESS:    5784272  HIT:    5692900  MISS:      91372
cpu0_DTLB LOAD      ACCESS:    5384468  HIT:    5294532  MISS:      89936
cpu0_DTLB RFO       ACCESS:     399804  HIT:     398368  MISS:       1436
cpu0_DTLB PREFETCH  ACCESS:          0  HIT:          0  MISS:          0
cpu0_DTLB WRITEBACK ACCESS:          0  HIT:          0  MISS:          0
cpu0_ITLB TOTAL     ACCESS:    3607417  HIT:    3602518  MISS:       4899
cpu0_ITLB LOAD      ACCESS:    3607417  HIT:    3602518  MISS:       4899
cpu0_ITLB RFO       ACCESS:          0  HIT:          0  MISS:          0
cpu0_ITLB PREFETCH  ACCESS:          0  HIT:          0  MISS:          0
cpu0_ITLB WRITEBACK ACCESS:          0  HIT:          0  MISS:          0
cpu0_L1I TOTAL     ACCESS:     127787  HIT:     102569  MISS:      25218
cpu0_L1I LOAD      ACCESS:     127787  HIT:     102569  MISS:      25218
cpu0_L1I RFO       ACCESS:          0  HIT:          0  MISS:          0
cpu0_L1I PREFETCH  ACCESS:          0  HIT:          0  MISS:          0
cpu0_L1I WRITEBACK ACCESS:          0  HIT:          0  MISS:          0
cpu0_STLB TOTAL     ACCESS:      96271  HIT:      14202  MISS:      82069
cpu0_STLB LOAD      ACCESS:      94835  HIT:      13050  MISS:      81785
cpu0_STLB RFO       ACCESS:       1436  HIT:       1152  MISS:        284
cpu0_STLB PREFETCH  ACCESS:          0  HIT:          0  MISS:          0
cpu0_STLB WRITEBACK ACCESS:          0  HIT:          0  MISS:          0
cpu0_L1D TOTAL     ACCESS:    4921265  HIT:    4201366  MISS:     719899
cpu0_L1D LOAD      ACCESS:    4045876  HIT:    3329170  MISS:     716706
cpu0_L1D RFO       ACCESS:     801774  HIT:     800026  MISS:       1748
cpu0_L1D PREFETCH  ACCESS:          0  HIT:          0  MISS:          0
cpu0_L1D WRITEBACK ACCESS:          0  HIT:          0  MISS:          0
cpu0_L2C TOTAL     ACCESS:     749550  HIT:      22342  MISS:     727208
cpu0_L2C LOAD      ACCESS:     741924  HIT:      16425  MISS:     725499
cpu0_L2C RFO       ACCESS:       1748  HIT:        421  MISS:       1327
cpu0_L2C PREFETCH  ACCESS:          0  HIT:          0  MISS:          0
cpu0_L2C WRITEBACK ACCESS:       4433  HIT:       4353  MISS:         80
LLC TOTAL     ACCESS:     730518  HIT:          3  MISS:     730515
LLC LOAD      ACCESS:     725499  HIT:          3  MISS:     725496
LLC RFO       ACCESS:       1327  HIT:          0  MISS:       1327
LLC PREFETCH  ACCESS:          0  HIT:          0  MISS:          0
LLC WRITEBACK ACCESS:       3390  HIT:          0  MISS:       3390
Heartbeat CPU 0 instructions: 78000001 cycles: 115921610 heartbeat IPC: 0.280843 cumulative IPC: 0.27558 (Simulation time: 0 hr 49 min 6 sec) 

Region of Interest Statistics
cpu0_DTLB TOTAL     ACCESS:    6232009  HIT:    6136092  MISS:      95917
cpu0_DTLB LOAD      ACCESS:    5806808  HIT:    5712327  MISS:      94481
cpu0_DTLB RFO       ACCESS:     425201  HIT:     423765  MISS:       1436
cpu0_DTLB PREFETCH  ACCESS:          0  HIT:          0  MISS:          0
cpu0_DTLB WRITEBACK ACCESS:          0  HIT:          0  MISS:          0
cpu0_ITLB TOTAL     ACCESS:    3892021  HIT:    3887122  MISS:       4899
cpu0_ITLB LOAD      ACCESS:    3892021  HIT:    3887122  MISS:       4899
cpu0_ITLB RFO       ACCESS:          0  HIT:          0  MISS:          0
cpu0_ITLB PREFETCH  ACCESS:          0  HIT:          0  MISS:          0
cpu0_ITLB WRITEBACK ACCESS:          0  HIT:          0  MISS:          0
cpu0_L1I TOTAL     ACCESS:     127787  HIT:     102569  MISS:      25218
cpu0_L1I LOAD      ACCESS:     127787  HIT:     102569  MISS:      25218
cpu0_L1I RFO       ACCESS:          0  HIT:          0  MISS:          0
cpu0_L1I PREFETCH  ACCESS:          0  HIT:          0  MISS:          0
cpu0_L1I WRITEBACK ACCESS:          0  HIT:          0  MISS:          0
cpu0_STLB TOTAL     ACCESS:     100816  HIT:      14288  MISS:      86528
cpu0_STLB LOAD      ACCESS:      99380  HIT:      13136  MISS:      86244
cpu0_STLB RFO       ACCESS:       1436  HIT:       1152  MISS:        284
cpu0_STLB PREFETCH  ACCESS:          0  HIT:          0  MISS:          0
cpu0_STLB WRITEBACK ACCESS:          0  HIT:          0  MISS:          0
cpu0_L1D TOTAL     ACCESS:    5287348  HIT:    4511897  MISS:     775451
cpu0_L1D LOAD      ACCESS:    4356849  HIT:    3584687  MISS:     772162
cpu0_L1D RFO       ACCESS:     852568  HIT:     850820  MISS:       1748
cpu0_L1D PREFETCH  ACCESS:          0  HIT:          0  MISS:          0
cpu0_L1D WRITEBACK ACCESS:          0  HIT:          0  MISS:          0
cpu0_L2C TOTAL     ACCESS:     805102  HIT:      22437  MISS:     782665
cpu0_L2C LOAD      ACCESS:     797380  HIT:      16434  MISS:     780946
cpu0_L2C RFO       ACCESS:       1748  HIT:        421  MISS:       1327
cpu0_L2C PREFETCH  ACCESS:          0  HIT:          0  MISS:          0
cpu0_L2C WRITEBACK ACCESS:       4433  HIT:       4353  MISS:         80
LLC TOTAL     ACCESS:     785975  HIT:          3  MISS:     785972
LLC LOAD      ACCESS:     780946  HIT:          3  MISS:     780943
LLC RFO       ACCESS:       1327  HIT:          0  MISS:       1327
LLC PREFETCH  ACCESS:          0  HIT:          0  MISS:          0
LLC WRITEBACK ACCESS:       3390  HIT:          0  MISS:       3390
Heartbeat CPU 0 instructions: 80000001 cycles: 122981550 heartbeat IPC: 0.283289 cumulative IPC: 0.276081 (Simulation time: 0 hr 50 min 51 sec) 

Region of Interest Statistics
cpu0_DTLB TOTAL     ACCESS:    6679692  HIT:    6579360  MISS:     100332
cpu0_DTLB LOAD      ACCESS:    6229083  HIT:    6130189  MISS:      98894
cpu0_DTLB RFO       ACCESS:     450609  HIT:     449171  MISS:       1438
cpu0_DTLB PREFETCH  ACCESS:          0  HIT:          0  MISS:          0
cpu0_DTLB WRITEBACK ACCESS:          0  HIT:          0  MISS:          0
cpu0_ITLB TOTAL     ACCESS:    4176582  HIT:    4171683  MISS:       4899
cpu0_ITLB LOAD      ACCESS:    4176582  HIT:    4171683  MISS:       4899
cpu0_ITLB RFO       ACCESS:          0  HIT:          0  MISS:          0
cpu0_ITLB PREFETCH  ACCESS:          0  HIT:          0  MISS:          0
cpu0_ITLB WRITEBACK ACCESS:          0  HIT:          0  MISS:          0
cpu0_L1I TOTAL     ACCESS:     127787  HIT:     102569  MISS:      25218
cpu0_L1I LOAD      ACCESS:     127787  HIT:     102569  MISS:      25218
cpu0_L1I RFO       ACCESS:          0  HIT:          0  MISS:          0
cpu0_L1I PREFETCH  ACCESS:          0  HIT:          0  MISS:          0
cpu0_L1I WRITEBACK ACCESS:          0  HIT:          0  MISS:          0
cpu0_STLB TOTAL     ACCESS:     105231  HIT:      14407  MISS:      90824
cpu0_STLB LOAD      ACCESS:     103793  HIT:      13254  MISS:      90539
cpu0_STLB RFO       ACCESS:       1438  HIT:       1153  MISS:        285
cpu0_STLB PREFETCH  ACCESS:          0  HIT:          0  MISS:          0
cpu0_STLB WRITEBACK ACCESS:          0  HIT:          0  MISS:          0
cpu0_L1D TOTAL     ACCESS:    5653386  HIT:    4822555  MISS:     830831
cpu0_L1D LOAD      ACCESS:    4667897  HIT:    3840439  MISS:     827458
cpu0_L1D RFO       ACCESS:     903385  HIT:     901637  MISS:       1748
cpu0_L1D PREFETCH  ACCESS:          0  HIT:          0  MISS:          0
cpu0_L1D WRITEBACK ACCESS:          0  HIT:          0  MISS:          0
cpu0_L2C TOTAL     ACCESS:     860482  HIT:      22522  MISS:     837960
cpu0_L2C LOAD      ACCESS:     852676  HIT:      16444  MISS:     836232
cpu0_L2C RFO       ACCESS:       1748  HIT:        421  MISS:       1327
cpu0_L2C PREFETCH  ACCESS:          0  HIT:          0  MISS:          0
cpu0_L2C WRITEBACK ACCESS:       4433  HIT:       4353  MISS:         80
LLC TOTAL     ACCESS:     841270  HIT:          3  MISS:     841267
LLC LOAD      ACCESS:     836232  HIT:          3  MISS:     836229
LLC RFO       ACCESS:       1327  HIT:          0  MISS:       1327
LLC PREFETCH  ACCESS:          0  HIT:          0  MISS:          0
LLC WRITEBACK ACCESS:       3390  HIT:          0  MISS:       3390
Heartbeat CPU 0 instructions: 82000000 cycles: 130092297 heartbeat IPC: 0.281264 cumulative IPC: 0.276399 (Simulation time: 0 hr 52 min 38 sec) 

Region of Interest Statistics
cpu0_DTLB TOTAL     ACCESS:    7126976  HIT:    7020660  MISS:     106316
cpu0_DTLB LOAD      ACCESS:    6644920  HIT:    6540170  MISS:     104750
cpu0_DTLB RFO       ACCESS:     482056  HIT:     480490  MISS:       1566
cpu0_DTLB PREFETCH  ACCESS:          0  HIT:          0  MISS:          0
cpu0_DTLB WRITEBACK ACCESS:          0  HIT:          0  MISS:          0
cpu0_ITLB TOTAL     ACCESS:    4455334  HIT:    4449997  MISS:       5337
cpu0_ITLB LOAD      ACCESS:    4455334  HIT:    4449997  MISS:       5337
cpu0_ITLB RFO       ACCESS:          0  HIT:          0  MISS:          0
cpu0_ITLB PREFETCH  ACCESS:          0  HIT:          0  MISS:          0
cpu0_ITLB WRITEBACK ACCESS:          0  HIT:          0  MISS:          0
cpu0_L1I TOTAL     ACCESS:     138981  HIT:     111514  MISS:      27467
cpu0_L1I LOAD      ACCESS:     138981  HIT:     111514  MISS:      27467
cpu0_L1I RFO       ACCESS:          0  HIT:          0  MISS:          0
cpu0_L1I PREFETCH  ACCESS:          0  HIT:          0  MISS:          0
cpu0_L1I WRITEBACK ACCESS:          0  HIT:          0  MISS:          0
cpu0_STLB TOTAL     ACCESS:     111653  HIT:      15596  MISS:      96057
cpu0_STLB LOAD      ACCESS:     110087  HIT:      14340  MISS:      95747
cpu0_STLB RFO       ACCESS:       1566  HIT:       1256  MISS:        310
cpu0_STLB PREFETCH  ACCESS:          0  HIT:          0  MISS:          0
cpu0_STLB WRITEBACK ACCESS:          0  HIT:          0  MISS:          0
cpu0_L1D TOTAL     ACCESS:    6031470  HIT:    5146031  MISS:     885439
cpu0_L1D LOAD      ACCESS:    4978239  HIT:    4096432  MISS:     881807
cpu0_L1D RFO       ACCESS:     966499  HIT:     964602  MISS:       1897
cpu0_L1D PREFETCH  ACCESS:          0  HIT:          0  MISS:          0
cpu0_L1D WRITEBACK ACCESS:          0  HIT:          0  MISS:          0
cpu0_L2C TOTAL     ACCESS:     917728  HIT:      24439  MISS:     893289
cpu0_L2C LOAD      ACCESS:     909274  HIT:      17864  MISS:     891410
cpu0_L2C RFO       ACCESS:       1897  HIT:        453  MISS:       1444
cpu0_L2C PREFETCH  ACCESS:          0  HIT:          0  MISS:          0
cpu0_L2C WRITEBACK ACCESS:       4822  HIT:       4733  MISS:         89
LLC TOTAL     ACCESS:     896894  HIT:          3  MISS:     896891
LLC LOAD      ACCESS:     891410  HIT:          3  MISS:     891407
LLC RFO       ACCESS:       1444  HIT:          0  MISS:       1444
LLC PREFETCH  ACCESS:          0  HIT:          0  MISS:          0
LLC WRITEBACK ACCESS:       3694  HIT:          0  MISS:       3694
Heartbeat CPU 0 instructions: 84000002 cycles: 137311145 heartbeat IPC: 0.277053 cumulative IPC: 0.276438 (Simulation time: 0 hr 54 min 26 sec) 

Region of Interest Statistics
cpu0_DTLB TOTAL     ACCESS:    7572170  HIT:    7459706  MISS:     112464
cpu0_DTLB LOAD      ACCESS:    7058204  HIT:    6947437  MISS:     110767
cpu0_DTLB RFO       ACCESS:     513966  HIT:     512269  MISS:       1697
cpu0_DTLB PREFETCH  ACCESS:          0  HIT:          0  MISS:          0
cpu0_DTLB WRITEBACK ACCESS:          0  HIT:          0  MISS:          0
cpu0_ITLB TOTAL     ACCESS:    4730134  HIT:    4724359  MISS:       5775
cpu0_ITLB LOAD      ACCESS:    4730134  HIT:    4724359  MISS:       5775
cpu0_ITLB RFO       ACCESS:          0  HIT:          0  MISS:          0
cpu0_ITLB PREFETCH  ACCESS:          0  HIT:          0  MISS:          0
cpu0_ITLB WRITEBACK ACCESS:          0  HIT:          0  MISS:          0
cpu0_L1I TOTAL     ACCESS:     150169  HIT:     120463  MISS:      29706
cpu0_L1I LOAD      ACCESS:     150169  HIT:     120463  MISS:      29706
cpu0_L1I RFO       ACCESS:          0  HIT:          0  MISS:          0
cpu0_L1I PREFETCH  ACCESS:          0  HIT:          0  MISS:          0
cpu0_L1I WRITEBACK ACCESS:          0  HIT:          0  MISS:          0
cpu0_STLB TOTAL     ACCESS:     118239  HIT:      16800  MISS:     101439
cpu0_STLB LOAD      ACCESS:     116542  HIT:      15443  MISS:     101099
cpu0_STLB RFO       ACCESS:       1697  HIT:       1357  MISS:        340
cpu0_STLB PREFETCH  ACCESS:          0  HIT:          0  MISS:          0
cpu0_STLB WRITEBACK ACCESS:          0  HIT:          0  MISS:          0
cpu0_L1D TOTAL     ACCESS:    6414684  HIT:    5473574  MISS:     941110
cpu0_L1D LOAD      ACCESS:    5292696  HIT:    4355489  MISS:     937207
cpu0_L1D RFO       ACCESS:    1030522  HIT:    1028474  MISS:       2048
cpu0_L1D PREFETCH  ACCESS:          0  HIT:          0  MISS:          0
cpu0_L1D WRITEBACK ACCESS:          0  HIT:          0  MISS:          0
cpu0_L2C TOTAL     ACCESS:     976044  HIT:      26385  MISS:     949659
cpu0_L2C LOAD      ACCESS:     966913  HIT:      19280  MISS:     947633
cpu0_L2C RFO       ACCESS:       2048  HIT:        491  MISS:       1557
cpu0_L2C PREFETCH  ACCESS:          0  HIT:          0  MISS:          0
cpu0_L2C WRITEBACK ACCESS:       5228  HIT:       5131  MISS:         97
LLC TOTAL     ACCESS:     953559  HIT:          3  MISS:     953556
LLC LOAD      ACCESS:     947633  HIT:          3  MISS:     947630
LLC RFO       ACCESS:       1557  HIT:          0  MISS:       1557
LLC PREFETCH  ACCESS:          0  HIT:          0  MISS:          0
LLC WRITEBACK ACCESS:       3997  HIT:          0  MISS:       3997
Heartbeat CPU 0 instructions: 86000000 cycles: 144528044 heartbeat IPC: 0.277127 cumulative IPC: 0.276476 (Simulation time: 0 hr 56 min 10 sec) 

Region of Interest Statistics
cpu0_DTLB TOTAL     ACCESS:    8017345  HIT:    7900333  MISS:     117012
cpu0_DTLB LOAD      ACCESS:    7477410  HIT:    7362095  MISS:     115315
cpu0_DTLB RFO       ACCESS:     539935  HIT:     538238  MISS:       1697
cpu0_DTLB PREFETCH  ACCESS:          0  HIT:          0  MISS:          0
cpu0_DTLB WRITEBACK ACCESS:          0  HIT:          0  MISS:          0
cpu0_ITLB TOTAL     ACCESS:    5009739  HIT:    5003964  MISS:       5775
cpu0_ITLB LOAD      ACCESS:    5009739  HIT:    5003964  MISS:       5775
cpu0_ITLB RFO       ACCESS:          0  HIT:          0  MISS:          0
cpu0_ITLB PREFETCH  ACCESS:          0  HIT:          0  MISS:          0
cpu0_ITLB WRITEBACK ACCESS:          0  HIT:          0  MISS:          0
cpu0_L1I TOTAL     ACCESS:     150169  HIT:     120463  MISS:      29706
cpu0_L1I LOAD      ACCESS:     150169  HIT:     120463  MISS:      29706
cpu0_L1I RFO       ACCESS:          0  HIT:          0  MISS:          0
cpu0_L1I PREFETCH  ACCESS:          0  HIT:          0  MISS:          0
cpu0_L1I WRITEBACK ACCESS:          0  HIT:          0  MISS:          0
cpu0_STLB TOTAL     ACCESS:     122787  HIT:      16903  MISS:     105884
cpu0_STLB LOAD      ACCESS:     121090  HIT:      15546  MISS:     105544
cpu0_STLB RFO       ACCESS:       1697  HIT:       1357  MISS:        340
cpu0_STLB PREFETCH  ACCESS:          0  HIT:          0  MISS:          0
cpu0_STLB WRITEBACK ACCESS:          0  HIT:          0  MISS:          0
cpu0_L1D TOTAL     ACCESS:    6787239  HIT:    5789320  MISS:     997919
cpu0_L1D LOAD      ACCESS:    5608988  HIT:    4615072  MISS:     993916
cpu0_L1D RFO       ACCESS:    1082460  HIT:    1080412  MISS:       2048
cpu0_L1D PREFETCH  ACCESS:          0  HIT:          0  MISS:          0
cpu0_L1D WRITEBACK ACCESS:          0  HIT:          0  MISS:          0
cpu0_L2C TOTAL     ACCESS:    1032853  HIT:      26485  MISS:    1006368
cpu0_L2C LOAD      ACCESS:    1023622  HIT:      19290  MISS:    1004332
cpu0_L2C RFO       ACCESS:       2048  HIT:        491  MISS:       1557
cpu0_L2C PREFETCH  ACCESS:          0  HIT:          0  MISS:          0
cpu0_L2C WRITEBACK ACCESS:       5228  HIT:       5131  MISS:         97
LLC TOTAL     ACCESS:    1010268  HIT:          3  MISS:    1010265
LLC LOAD      ACCESS:    1004332  HIT:          3  MISS:    1004329
LLC RFO       ACCESS:       1557  HIT:          0  MISS:       1557
LLC PREFETCH  ACCESS:          0  HIT:          0  MISS:          0
LLC WRITEBACK ACCESS:       3997  HIT:          0  MISS:       3997
Heartbeat CPU 0 instructions: 88000002 cycles: 152364731 heartbeat IPC: 0.25521 cumulative IPC: 0.275269 (Simulation time: 0 hr 57 min 59 sec) 

Region of Interest Statistics
cpu0_DTLB TOTAL     ACCESS:    8457371  HIT:    8330005  MISS:     127366
cpu0_DTLB LOAD      ACCESS:    7880026  HIT:    7754595  MISS:     125431
cpu0_DTLB RFO       ACCESS:     577345  HIT:     575410  MISS:       1935
cpu0_DTLB PREFETCH  ACCESS:          0  HIT:          0  MISS:          0
cpu0_DTLB WRITEBACK ACCESS:          0  HIT:          0  MISS:          0
cpu0_ITLB TOTAL     ACCESS:    5278551  HIT:    5272034  MISS:       6517
cpu0_ITLB LOAD      ACCESS:    5278551  HIT:    5272034  MISS:       6517
cpu0_ITLB RFO       ACCESS:          0  HIT:          0  MISS:          0
cpu0_ITLB PREFETCH  ACCESS:          0  HIT:          0  MISS:          0
cpu0_ITLB WRITEBACK ACCESS:          0  HIT:          0  MISS:          0
cpu0_L1I TOTAL     ACCESS:     169495  HIT:     135843  MISS:      33652
cpu0_L1I LOAD      ACCESS:     169495  HIT:     135843  MISS:      33652
cpu0_L1I RFO       ACCESS:          0  HIT:          0  MISS:          0
cpu0_L1I PREFETCH  ACCESS:          0  HIT:          0  MISS:          0
cpu0_L1I WRITEBACK ACCESS:          0  HIT:          0  MISS:          0
cpu0_STLB TOTAL     ACCESS:     133883  HIT:      18966  MISS:     114917
cpu0_STLB LOAD      ACCESS:     131948  HIT:      17431  MISS:     114517
cpu0_STLB RFO       ACCESS:       1935  HIT:       1535  MISS:        400
cpu0_STLB PREFETCH  ACCESS:          0  HIT:          0  MISS:          0
cpu0_STLB WRITEBACK ACCESS:          0  HIT:          0  MISS:          0
cpu0_L1D TOTAL     ACCESS:    7189128  HIT:    6132165  MISS:    1056963
cpu0_L1D LOAD      ACCESS:    5927973  HIT:    4875429  MISS:    1052544
cpu0_L1D RFO       ACCESS:    1157621  HIT:    1155301  MISS:       2320
cpu0_L1D PREFETCH  ACCESS:          0  HIT:          0  MISS:          0
cpu0_L1D WRITEBACK ACCESS:          0  HIT:          0  MISS:          0
cpu0_L2C TOTAL     ACCESS:    1096594  HIT:      29672  MISS:    1066922
cpu0_L2C LOAD      ACCESS:    1086196  HIT:      21587  MISS:    1064609
cpu0_L2C RFO       ACCESS:       2320  HIT:        539  MISS:       1781
cpu0_L2C PREFETCH  ACCESS:          0  HIT:          0  MISS:          0
cpu0_L2C WRITEBACK ACCESS:       5979  HIT:       5868  MISS:        111
LLC TOTAL     ACCESS:    1071405  HIT:          3  MISS:    1071402
LLC LOAD      ACCESS:    1064610  HIT:          3  MISS:    1064607
LLC RFO       ACCESS:       1781  HIT:          0  MISS:       1781
LLC PREFETCH  ACCESS:          0  HIT:          0  MISS:          0
LLC WRITEBACK ACCESS:       4593  HIT:          0  MISS:       4593
Heartbeat CPU 0 instructions: 90000001 cycles: 159824223 heartbeat IPC: 0.268115 cumulative IPC: 0.274902 (Simulation time: 1 hr 0 min 4 sec) 

Region of Interest Statistics
cpu0_DTLB TOTAL     ACCESS:    8890291  HIT:    8739143  MISS:     151148
cpu0_DTLB LOAD      ACCESS:    8250995  HIT:    8102538  MISS:     148457
cpu0_DTLB RFO       ACCESS:     639296  HIT:     636605  MISS:       2691
cpu0_DTLB PREFETCH  ACCESS:          0  HIT:          0  MISS:          0
cpu0_DTLB WRITEBACK ACCESS:          0  HIT:          0  MISS:          0
cpu0_ITLB TOTAL     ACCESS:    5517476  HIT:    5508875  MISS:       8601
cpu0_ITLB LOAD      ACCESS:    5517476  HIT:    5508875  MISS:       8601
cpu0_ITLB RFO       ACCESS:          0  HIT:          0  MISS:          0
cpu0_ITLB PREFETCH  ACCESS:          0  HIT:          0  MISS:          0
cpu0_ITLB WRITEBACK ACCESS:          0  HIT:          0  MISS:          0
cpu0_L1I TOTAL     ACCESS:     232203  HIT:     191036  MISS:      41167
cpu0_L1I LOAD      ACCESS:     232203  HIT:     191036  MISS:      41167
cpu0_L1I RFO       ACCESS:          0  HIT:          0  MISS:          0
cpu0_L1I PREFETCH  ACCESS:          0  HIT:          0  MISS:          0
cpu0_L1I WRITEBACK ACCESS:          0  HIT:          0  MISS:          0
cpu0_STLB TOTAL     ACCESS:     159749  HIT:      27143  MISS:     132606
cpu0_STLB LOAD      ACCESS:     157058  HIT:      24906  MISS:     132152
cpu0_STLB RFO       ACCESS:       2691  HIT:       2237  MISS:        454
cpu0_STLB PREFETCH  ACCESS:          0  HIT:          0  MISS:          0
cpu0_STLB WRITEBACK ACCESS:          0  HIT:          0  MISS:          0
cpu0_L1D TOTAL     ACCESS:    7631649  HIT:    6518798  MISS:    1112851
cpu0_L1D LOAD      ACCESS:    6236691  HIT:    5129530  MISS:    1107161
cpu0_L1D RFO       ACCESS:    1279044  HIT:    1275686  MISS:       3358
cpu0_L1D PREFETCH  ACCESS:          0  HIT:          0  MISS:          0
cpu0_L1D WRITEBACK ACCESS:          0  HIT:          0  MISS:          0
cpu0_L2C TOTAL     ACCESS:    1161968  HIT:      41012  MISS:    1120956
cpu0_L2C LOAD      ACCESS:    1148328  HIT:      30272  MISS:    1118056
cpu0_L2C RFO       ACCESS:       3358  HIT:       1048  MISS:       2310
cpu0_L2C PREFETCH  ACCESS:          0  HIT:          0  MISS:          0
cpu0_L2C WRITEBACK ACCESS:       7950  HIT:       7822  MISS:        128
LLC TOTAL     ACCESS:    1125757  HIT:          6  MISS:    1125751
LLC LOAD      ACCESS:    1118056  HIT:          6  MISS:    1118050
LLC RFO       ACCESS:       2310  HIT:          0  MISS:       2310
LLC PREFETCH  ACCESS:          0  HIT:          0  MISS:          0
LLC WRITEBACK ACCESS:       4929  HIT:          0  MISS:       4929
Heartbeat CPU 0 instructions: 92000001 cycles: 165830421 heartbeat IPC: 0.332989 cumulative IPC: 0.277205 (Simulation time: 1 hr 1 min 44 sec) 

Region of Interest Statistics
cpu0_DTLB TOTAL     ACCESS:    9321583  HIT:    9152002  MISS:     169581
cpu0_DTLB LOAD      ACCESS:    8625782  HIT:    8459649  MISS:     166133
cpu0_DTLB RFO       ACCESS:     695801  HIT:     692353  MISS:       3448
cpu0_DTLB PREFETCH  ACCESS:          0  HIT:          0  MISS:          0
cpu0_DTLB WRITEBACK ACCESS:          0  HIT:          0  MISS:          0
cpu0_ITLB TOTAL     ACCESS:    5762990  HIT:    5752278  MISS:      10712
cpu0_ITLB LOAD      ACCESS:    5762990  HIT:    5752278  MISS:      10712
cpu0_ITLB RFO       ACCESS:          0  HIT:          0  MISS:          0
cpu0_ITLB PREFETCH  ACCESS:          0  HIT:          0  MISS:          0
cpu0_ITLB WRITEBACK ACCESS:          0  HIT:          0  MISS:          0
cpu0_L1I TOTAL     ACCESS:     294323  HIT:     245011  MISS:      49312
cpu0_L1I LOAD      ACCESS:     294323  HIT:     245011  MISS:      49312
cpu0_L1I RFO       ACCESS:          0  HIT:          0  MISS:          0
cpu0_L1I PREFETCH  ACCESS:          0  HIT:          0  MISS:          0
cpu0_L1I WRITEBACK ACCESS:          0  HIT:          0  MISS:          0
cpu0_STLB TOTAL     ACCESS:     180293  HIT:      35033  MISS:     145260
cpu0_STLB LOAD      ACCESS:     176845  HIT:      32079  MISS:     144766
cpu0_STLB RFO       ACCESS:       3448  HIT:       2954  MISS:        494
cpu0_STLB PREFETCH  ACCESS:          0  HIT:          0  MISS:          0
cpu0_STLB WRITEBACK ACCESS:          0  HIT:          0  MISS:          0
cpu0_L1D TOTAL     ACCESS:    8039341  HIT:    6883306  MISS:    1156035
cpu0_L1D LOAD      ACCESS:    6524217  HIT:    5374926  MISS:    1149291
cpu0_L1D RFO       ACCESS:    1389768  HIT:    1385544  MISS:       4224
cpu0_L1D PREFETCH  ACCESS:          0  HIT:          0  MISS:          0
cpu0_L1D WRITEBACK ACCESS:          0  HIT:          0  MISS:          0
cpu0_L2C TOTAL     ACCESS:    1215302  HIT:      52949  MISS:    1162353
cpu0_L2C LOAD      ACCESS:    1198603  HIT:      39579  MISS:    1159024
cpu0_L2C RFO       ACCESS:       4224  HIT:       1558  MISS:       2666
cpu0_L2C PREFETCH  ACCESS:          0  HIT:          0  MISS:          0
cpu0_L2C WRITEBACK ACCESS:       9955  HIT:       9775  MISS:        180
LLC TOTAL     ACCESS:    1168001  HIT:         14  MISS:    1167987
LLC LOAD      ACCESS:    1159024  HIT:          7  MISS:    1159017
LLC RFO       ACCESS:       2666  HIT:          7  MISS:       2659
LLC PREFETCH  ACCESS:          0  HIT:          0  MISS:          0
LLC WRITEBACK ACCESS:       5828  HIT:          0  MISS:       5828
Heartbeat CPU 0 instructions: 94000000 cycles: 172817011 heartbeat IPC: 0.286263 cumulative IPC: 0.277604 (Simulation time: 1 hr 3 min 33 sec) 

Region of Interest Statistics
cpu0_DTLB TOTAL     ACCESS:    9765992  HIT:    9588920  MISS:     177072
cpu0_DTLB LOAD      ACCESS:    9032261  HIT:    8858894  MISS:     173367
cpu0_DTLB RFO       ACCESS:     733731  HIT:     730026  MISS:       3705
cpu0_DTLB PREFETCH  ACCESS:          0  HIT:          0  MISS:          0
cpu0_DTLB WRITEBACK ACCESS:          0  HIT:          0  MISS:          0
cpu0_ITLB TOTAL     ACCESS:    6031625  HIT:    6020037  MISS:      11588
cpu0_ITLB LOAD      ACCESS:    6031625  HIT:    6020037  MISS:      11588
cpu0_ITLB RFO       ACCESS:          0  HIT:          0  MISS:          0
cpu0_ITLB PREFETCH  ACCESS:          0  HIT:          0  MISS:          0
cpu0_ITLB WRITEBACK ACCESS:          0  HIT:          0  MISS:          0
cpu0_L1I TOTAL     ACCESS:     316781  HIT:     262975  MISS:      53806
cpu0_L1I LOAD      ACCESS:     316781  HIT:     262975  MISS:      53806
cpu0_L1I RFO       ACCESS:          0  HIT:          0  MISS:          0
cpu0_L1I PREFETCH  ACCESS:          0  HIT:          0  MISS:          0
cpu0_L1I WRITEBACK ACCESS:          0  HIT:          0  MISS:          0
cpu0_STLB TOTAL     ACCESS:     188660  HIT:      37709  MISS:     150951
cpu0_STLB LOAD      ACCESS:     184955  HIT:      34527  MISS:     150428
cpu0_STLB RFO       ACCESS:       3705  HIT:       3182  MISS:        523
cpu0_STLB PREFETCH  ACCESS:          0  HIT:          0  MISS:          0
cpu0_STLB WRITEBACK ACCESS:          0  HIT:          0  MISS:          0
cpu0_L1D TOTAL     ACCESS:    8435021  HIT:    7224253  MISS:    1210768
cpu0_L1D LOAD      ACCESS:    6838581  HIT:    5634981  MISS:    1203600
cpu0_L1D RFO       ACCESS:    1466310  HIT:    1461799  MISS:       4511
cpu0_L1D PREFETCH  ACCESS:          0  HIT:          0  MISS:          0
cpu0_L1D WRITEBACK ACCESS:          0  HIT:          0  MISS:          0
cpu0_L2C TOTAL     ACCESS:    1275301  HIT:      59196  MISS:    1216105
cpu0_L2C LOAD      ACCESS:    1257406  HIT:      44803  MISS:    1212603
cpu0_L2C RFO       ACCESS:       4511  HIT:       1703  MISS:       2808
cpu0_L2C PREFETCH  ACCESS:          0  HIT:          0  MISS:          0
cpu0_L2C WRITEBACK ACCESS:      10727  HIT:      10540  MISS:        187
LLC TOTAL     ACCESS:    1222391  HIT:         20  MISS:    1222371
LLC LOAD      ACCESS:    1212603  HIT:         10  MISS:    1212593
LLC RFO       ACCESS:       2808  HIT:         10  MISS:       2798
LLC PREFETCH  ACCESS:          0  HIT:          0  MISS:          0
LLC WRITEBACK ACCESS:       6473  HIT:          0  MISS:       6473
Heartbeat CPU 0 instructions: 96000001 cycles: 180104475 heartbeat IPC: 0.274444 cumulative IPC: 0.277465 (Simulation time: 1 hr 5 min 19 sec) 

Region of Interest Statistics
cpu0_DTLB TOTAL     ACCESS:   10211140  HIT:   10029412  MISS:     181728
cpu0_DTLB LOAD      ACCESS:    9451445  HIT:    9273422  MISS:     178023
cpu0_DTLB RFO       ACCESS:     759695  HIT:     755990  MISS:       3705
cpu0_DTLB PREFETCH  ACCESS:          0  HIT:          0  MISS:          0
cpu0_DTLB WRITEBACK ACCESS:          0  HIT:          0  MISS:          0
cpu0_ITLB TOTAL     ACCESS:    6311250  HIT:    6299662  MISS:      11588
cpu0_ITLB LOAD      ACCESS:    6311250  HIT:    6299662  MISS:      11588
cpu0_ITLB RFO       ACCESS:          0  HIT:          0  MISS:          0
cpu0_ITLB PREFETCH  ACCESS:          0  HIT:          0  MISS:          0
cpu0_ITLB WRITEBACK ACCESS:          0  HIT:          0  MISS:          0
cpu0_L1I TOTAL     ACCESS:     316781  HIT:     262975  MISS:      53806
cpu0_L1I LOAD      ACCESS:     316781  HIT:     262975  MISS:      53806
cpu0_L1I RFO       ACCESS:          0  HIT:          0  MISS:          0
cpu0_L1I PREFETCH  ACCESS:          0  HIT:          0  MISS:          0
cpu0_L1I WRITEBACK ACCESS:          0  HIT:          0  MISS:          0
cpu0_STLB TOTAL     ACCESS:     193316  HIT:      37805  MISS:     155511
cpu0_STLB LOAD      ACCESS:     189611  HIT:      34623  MISS:     154988
cpu0_STLB RFO       ACCESS:       3705  HIT:       3182  MISS:        523
cpu0_STLB PREFETCH  ACCESS:          0  HIT:          0  MISS:          0
cpu0_STLB WRITEBACK ACCESS:          0  HIT:          0  MISS:          0
cpu0_L1D TOTAL     ACCESS:    8807599  HIT:    7540039  MISS:    1267560
cpu0_L1D LOAD      ACCESS:    7154817  HIT:    5894518  MISS:    1260299
cpu0_L1D RFO       ACCESS:    1518237  HIT:    1513726  MISS:       4511
cpu0_L1D PREFETCH  ACCESS:          0  HIT:          0  MISS:          0
cpu0_L1D WRITEBACK ACCESS:          0  HIT:          0  MISS:          0
cpu0_L2C TOTAL     ACCESS:    1332093  HIT:      59287  MISS:    1272806
cpu0_L2C LOAD      ACCESS:    1314105  HIT:      44813  MISS:    1269292
cpu0_L2C RFO       ACCESS:       4511  HIT:       1703  MISS:       2808
cpu0_L2C PREFETCH  ACCESS:          0  HIT:          0  MISS:          0
cpu0_L2C WRITEBACK ACCESS:      10727  HIT:      10540  MISS:        187
LLC TOTAL     ACCESS:    1279114  HIT:         20  MISS:    1279094
LLC LOAD      ACCESS:    1269292  HIT:         10  MISS:    1269282
LLC RFO       ACCESS:       2808  HIT:         10  MISS:       2798
LLC PREFETCH  ACCESS:          0  HIT:          0  MISS:          0
LLC WRITEBACK ACCESS:       6495  HIT:          0  MISS:       6495
Heartbeat CPU 0 instructions: 98000001 cycles: 187301654 heartbeat IPC: 0.277887 cumulative IPC: 0.277483 (Simulation time: 1 hr 7 min 11 sec) 

Region of Interest Statistics
cpu0_DTLB TOTAL     ACCESS:   10656258  HIT:   10470015  MISS:     186243
cpu0_DTLB LOAD      ACCESS:    9870594  HIT:    9688058  MISS:     182536
cpu0_DTLB RFO       ACCESS:     785664  HIT:     781957  MISS:       3707
cpu0_DTLB PREFETCH  ACCESS:          0  HIT:          0  MISS:          0
cpu0_DTLB WRITEBACK ACCESS:          0  HIT:          0  MISS:          0
cpu0_ITLB TOTAL     ACCESS:    6590870  HIT:    6579282  MISS:      11588
cpu0_ITLB LOAD      ACCESS:    6590870  HIT:    6579282  MISS:      11588
cpu0_ITLB RFO       ACCESS:          0  HIT:          0  MISS:          0
cpu0_ITLB PREFETCH  ACCESS:          0  HIT:          0  MISS:          0
cpu0_ITLB WRITEBACK ACCESS:          0  HIT:          0  MISS:          0
cpu0_L1I TOTAL     ACCESS:     316781  HIT:     262975  MISS:      53806
cpu0_L1I LOAD      ACCESS:     316781  HIT:     262975  MISS:      53806
cpu0_L1I RFO       ACCESS:          0  HIT:          0  MISS:          0
cpu0_L1I PREFETCH  ACCESS:          0  HIT:          0  MISS:          0
cpu0_L1I WRITEBACK ACCESS:          0  HIT:          0  MISS:          0
cpu0_STLB TOTAL     ACCESS:     197831  HIT:      37925  MISS:     159906
cpu0_STLB LOAD      ACCESS:     194124  HIT:      34742  MISS:     159382
cpu0_STLB RFO       ACCESS:       3707  HIT:       3183  MISS:        524
cpu0_STLB PREFETCH  ACCESS:          0  HIT:          0  MISS:          0
cpu0_STLB WRITEBACK ACCESS:          0  HIT:          0  MISS:          0
cpu0_L1D TOTAL     ACCESS:    9180154  HIT:    7855927  MISS:    1324227
cpu0_L1D LOAD      ACCESS:    7471167  HIT:    6154300  MISS:    1316867
cpu0_L1D RFO       ACCESS:    1570173  HIT:    1565662  MISS:       4511
cpu0_L1D PREFETCH  ACCESS:          0  HIT:          0  MISS:          0
cpu0_L1D WRITEBACK ACCESS:          0  HIT:          0  MISS:          0
cpu0_L2C TOTAL     ACCESS:    1388760  HIT:      59388  MISS:    1329372
cpu0_L2C LOAD      ACCESS:    1370673  HIT:      44824  MISS:    1325849
cpu0_L2C RFO       ACCESS:       4511  HIT:       1703  MISS:       2808
cpu0_L2C PREFETCH  ACCESS:          0  HIT:          0  MISS:          0
cpu0_L2C WRITEBACK ACCESS:      10727  HIT:      10540  MISS:        187
LLC TOTAL     ACCESS:    1335680  HIT:         20  MISS:    1335660
LLC LOAD      ACCESS:    1325849  HIT:         10  MISS:    1325839
LLC RFO       ACCESS:       2808  HIT:         10  MISS:       2798
LLC PREFETCH  ACCESS:          0  HIT:          0  MISS:          0
LLC WRITEBACK ACCESS:       6495  HIT:          0  MISS:       6495
Heartbeat CPU 0 instructions: 100000001 cycles: 193924055 heartbeat IPC: 0.302005 cumulative IPC: 0.278387 (Simulation time: 1 hr 8 min 54 sec) 

Region of Interest Statistics
cpu0_DTLB TOTAL     ACCESS:   11099960  HIT:   10905016  MISS:     194944
cpu0_DTLB LOAD      ACCESS:   10270412  HIT:   10079551  MISS:     190861
cpu0_DTLB RFO       ACCESS:     829548  HIT:     825465  MISS:       4083
cpu0_DTLB PREFETCH  ACCESS:          0  HIT:          0  MISS:          0
cpu0_DTLB WRITEBACK ACCESS:          0  HIT:          0  MISS:          0
cpu0_ITLB TOTAL     ACCESS:    6853829  HIT:    6840932  MISS:      12897
cpu0_ITLB LOAD      ACCESS:    6853829  HIT:    6840932  MISS:      12897
cpu0_ITLB RFO       ACCESS:          0  HIT:          0  MISS:          0
cpu0_ITLB PREFETCH  ACCESS:          0  HIT:          0  MISS:          0
cpu0_ITLB WRITEBACK ACCESS:          0  HIT:          0  MISS:          0
cpu0_L1I TOTAL     ACCESS:     350240  HIT:     289704  MISS:      60536
cpu0_L1I LOAD      ACCESS:     350240  HIT:     289704  MISS:      60536
cpu0_L1I RFO       ACCESS:          0  HIT:          0  MISS:          0
cpu0_L1I PREFETCH  ACCESS:          0  HIT:          0  MISS:          0
cpu0_L1I WRITEBACK ACCESS:          0  HIT:          0  MISS:          0
cpu0_STLB TOTAL     ACCESS:     207841  HIT:      42173  MISS:     165668
cpu0_STLB LOAD      ACCESS:     203758  HIT:      38649  MISS:     165109
cpu0_STLB RFO       ACCESS:       4083  HIT:       3524  MISS:        559
cpu0_STLB PREFETCH  ACCESS:          0  HIT:          0  MISS:          0
cpu0_STLB WRITEBACK ACCESS:          0  HIT:          0  MISS:          0
cpu0_L1D TOTAL     ACCESS:    9586289  HIT:    8208564  MISS:    1377725
cpu0_L1D LOAD      ACCESS:    7784186  HIT:    6414412  MISS:    1369774
cpu0_L1D RFO       ACCESS:    1658864  HIT:    1653912  MISS:       4952
cpu0_L1D PREFETCH  ACCESS:          0  HIT:          0  MISS:          0
cpu0_L1D WRITEBACK ACCESS:          0  HIT:          0  MISS:          0
cpu0_L2C TOTAL     ACCESS:    1450146  HIT:      70535  MISS:    1379611
cpu0_L2C LOAD      ACCESS:    1430309  HIT:      54488  MISS:    1375821
cpu0_L2C RFO       ACCESS:       4952  HIT:       1922  MISS:       3030
cpu0_L2C PREFETCH  ACCESS:          0  HIT:          0  MISS:          0
cpu0_L2C WRITEBACK ACCESS:      11886  HIT:      11688  MISS:        198
LLC TOTAL     ACCESS:    1386439  HIT:         38  MISS:    1386401
LLC LOAD      ACCESS:    1375821  HIT:         18  MISS:    1375803
LLC RFO       ACCESS:       3030  HIT:         20  MISS:       3010
LLC PREFETCH  ACCESS:          0  HIT:          0  MISS:          0
LLC WRITEBACK ACCESS:       7026  HIT:          0  MISS:       7026
Heartbeat CPU 0 instructions: 102000000 cycles: 202751434 heartbeat IPC: 0.226568 cumulative IPC: 0.275959 (Simulation time: 1 hr 11 min 0 sec) 

Region of Interest Statistics
cpu0_DTLB TOTAL     ACCESS:   11535303  HIT:   11325361  MISS:     209942
cpu0_DTLB LOAD      ACCESS:   10669930  HIT:   10464247  MISS:     205683
cpu0_DTLB RFO       ACCESS:     865373  HIT:     861114  MISS:       4259
cpu0_DTLB PREFETCH  ACCESS:          0  HIT:          0  MISS:          0
cpu0_DTLB WRITEBACK ACCESS:          0  HIT:          0  MISS:          0
cpu0_ITLB TOTAL     ACCESS:    7123550  HIT:    7110101  MISS:      13449
cpu0_ITLB LOAD      ACCESS:    7123550  HIT:    7110101  MISS:      13449
cpu0_ITLB RFO       ACCESS:          0  HIT:          0  MISS:          0
cpu0_ITLB PREFETCH  ACCESS:          0  HIT:          0  MISS:          0
cpu0_ITLB WRITEBACK ACCESS:          0  HIT:          0  MISS:          0
cpu0_L1I TOTAL     ACCESS:     365501  HIT:     301552  MISS:      63949
cpu0_L1I LOAD      ACCESS:     365501  HIT:     301552  MISS:      63949
cpu0_L1I RFO       ACCESS:          0  HIT:          0  MISS:          0
cpu0_L1I PREFETCH  ACCESS:          0  HIT:          0  MISS:          0
cpu0_L1I WRITEBACK ACCESS:          0  HIT:          0  MISS:          0
cpu0_STLB TOTAL     ACCESS:     223391  HIT:      43588  MISS:     179803
cpu0_STLB LOAD      ACCESS:     219132  HIT:      39943  MISS:     179189
cpu0_STLB RFO       ACCESS:       4259  HIT:       3645  MISS:        614
cpu0_STLB PREFETCH  ACCESS:          0  HIT:          0  MISS:          0
cpu0_STLB WRITEBACK ACCESS:          0  HIT:          0  MISS:          0
cpu0_L1D TOTAL     ACCESS:    9989881  HIT:    8548757  MISS:    1441124
cpu0_L1D LOAD      ACCESS:    8103437  HIT:    6670671  MISS:    1432766
cpu0_L1D RFO       ACCESS:    1730784  HIT:    1725566  MISS:       5218
cpu0_L1D PREFETCH  ACCESS:          0  HIT:          0  MISS:          0
cpu0_L1D WRITEBACK ACCESS:          0  HIT:          0  MISS:          0
cpu0_L2C TOTAL     ACCESS:    1517657  HIT:      73198  MISS:    1444459
cpu0_L2C LOAD      ACCESS:    1496714  HIT:      56314  MISS:    1440400
cpu0_L2C RFO       ACCESS:       5218  HIT:       1973  MISS:       3245
cpu0_L2C PREFETCH  ACCESS:          0  HIT:          0  MISS:          0
cpu0_L2C WRITEBACK ACCESS:      12585  HIT:      12376  MISS:        209
LLC TOTAL     ACCESS:    1451843  HIT:         38  MISS:    1451805
LLC LOAD      ACCESS:    1440400  HIT:         18  MISS:    1440382
LLC RFO       ACCESS:       3245  HIT:         20  MISS:       3225
LLC PREFETCH  ACCESS:          0  HIT:          0  MISS:          0
LLC WRITEBACK ACCESS:       7593  HIT:          0  MISS:       7593
Heartbeat CPU 0 instructions: 104000000 cycles: 209498474 heartbeat IPC: 0.296426 cumulative IPC: 0.276667 (Simulation time: 1 hr 12 min 51 sec) 

Region of Interest Statistics
cpu0_DTLB TOTAL     ACCESS:   11968437  HIT:   11740027  MISS:     228410
cpu0_DTLB LOAD      ACCESS:   11053289  HIT:   10829710  MISS:     223579
cpu0_DTLB RFO       ACCESS:     915148  HIT:     910317  MISS:       4831
cpu0_DTLB PREFETCH  ACCESS:          0  HIT:          0  MISS:          0
cpu0_DTLB WRITEBACK ACCESS:          0  HIT:          0  MISS:          0
cpu0_ITLB TOTAL     ACCESS:    7376501  HIT:    7361389  MISS:      15112
cpu0_ITLB LOAD      ACCESS:    7376501  HIT:    7361389  MISS:      15112
cpu0_ITLB RFO       ACCESS:          0  HIT:          0  MISS:          0
cpu0_ITLB PREFETCH  ACCESS:          0  HIT:          0  MISS:          0
cpu0_ITLB WRITEBACK ACCESS:          0  HIT:          0  MISS:          0
cpu0_L1I TOTAL     ACCESS:     413525  HIT:     343236  MISS:      70289
cpu0_L1I LOAD      ACCESS:     413525  HIT:     343236  MISS:      70289
cpu0_L1I RFO       ACCESS:          0  HIT:          0  MISS:          0
cpu0_L1I PREFETCH  ACCESS:          0  HIT:          0  MISS:          0
cpu0_L1I WRITEBACK ACCESS:          0  HIT:          0  MISS:          0
cpu0_STLB TOTAL     ACCESS:     243522  HIT:      49726  MISS:     193796
cpu0_STLB LOAD      ACCESS:     238691  HIT:      45548  MISS:     193143
cpu0_STLB RFO       ACCESS:       4831  HIT:       4178  MISS:        653
cpu0_STLB PREFETCH  ACCESS:          0  HIT:          0  MISS:          0
cpu0_STLB WRITEBACK ACCESS:          0  HIT:          0  MISS:          0
cpu0_L1D TOTAL     ACCESS:   10393446  HIT:    8904848  MISS:    1488598
cpu0_L1D LOAD      ACCESS:    8398770  HIT:    6919435  MISS:    1479335
cpu0_L1D RFO       ACCESS:    1828075  HIT:    1822124  MISS:       5951
cpu0_L1D PREFETCH  ACCESS:          0  HIT:          0  MISS:          0
cpu0_L1D WRITEBACK ACCESS:          0  HIT:          0  MISS:          0
cpu0_L2C TOTAL     ACCESS:    1572890  HIT:      81951  MISS:    1490939
cpu0_L2C LOAD      ACCESS:    1549623  HIT:      63148  MISS:    1486475
cpu0_L2C RFO       ACCESS:       5951  HIT:       2344  MISS:       3607
cpu0_L2C PREFETCH  ACCESS:          0  HIT:          0  MISS:          0
cpu0_L2C WRITEBACK ACCESS:      14004  HIT:      13778  MISS:        226
LLC TOTAL     ACCESS:    1498896  HIT:         39  MISS:    1498857
LLC LOAD      ACCESS:    1486475  HIT:         18  MISS:    1486457
LLC RFO       ACCESS:       3607  HIT:         21  MISS:       3586
LLC PREFETCH  ACCESS:          0  HIT:          0  MISS:          0
LLC WRITEBACK ACCESS:       8183  HIT:          0  MISS:       8183
Heartbeat CPU 0 instructions: 106000000 cycles: 216713074 heartbeat IPC: 0.277216 cumulative IPC: 0.276686 (Simulation time: 1 hr 14 min 38 sec) 

Region of Interest Statistics
cpu0_DTLB TOTAL     ACCESS:   12411256  HIT:   12175346  MISS:     235910
cpu0_DTLB LOAD      ACCESS:   11464045  HIT:   11233107  MISS:     230938
cpu0_DTLB RFO       ACCESS:     947211  HIT:     942239  MISS:       4972
cpu0_DTLB PREFETCH  ACCESS:          0  HIT:          0  MISS:          0
cpu0_DTLB WRITEBACK ACCESS:          0  HIT:          0  MISS:          0
cpu0_ITLB TOTAL     ACCESS:    7650309  HIT:    7634696  MISS:      15613
cpu0_ITLB LOAD      ACCESS:    7650309  HIT:    7634696  MISS:      15613
cpu0_ITLB RFO       ACCESS:          0  HIT:          0  MISS:          0
cpu0_ITLB PREFETCH  ACCESS:          0  HIT:          0  MISS:          0
cpu0_ITLB WRITEBACK ACCESS:          0  HIT:          0  MISS:          0
cpu0_L1I TOTAL     ACCESS:     426291  HIT:     353514  MISS:      72777
cpu0_L1I LOAD      ACCESS:     426291  HIT:     353514  MISS:      72777
cpu0_L1I RFO       ACCESS:          0  HIT:          0  MISS:          0
cpu0_L1I PREFETCH  ACCESS:          0  HIT:          0  MISS:          0
cpu0_L1I WRITEBACK ACCESS:          0  HIT:          0  MISS:          0
cpu0_STLB TOTAL     ACCESS:     251523  HIT:      51096  MISS:     200427
cpu0_STLB LOAD      ACCESS:     246551  HIT:      46807  MISS:     199744
cpu0_STLB RFO       ACCESS:       4972  HIT:       4289  MISS:        683
cpu0_STLB PREFETCH  ACCESS:          0  HIT:          0  MISS:          0
cpu0_STLB WRITEBACK ACCESS:          0  HIT:          0  MISS:          0
cpu0_L1D TOTAL     ACCESS:   10774915  HIT:    9231724  MISS:    1543191
cpu0_L1D LOAD      ACCESS:    8709993  HIT:    7176374  MISS:    1533619
cpu0_L1D RFO       ACCESS:    1892582  HIT:    1886447  MISS:       6135
cpu0_L1D PREFETCH  ACCESS:          0  HIT:          0  MISS:          0
cpu0_L1D WRITEBACK ACCESS:          0  HIT:          0  MISS:          0
cpu0_L2C TOTAL     ACCESS:    1630434  HIT:      84338  MISS:    1546096
cpu0_L2C LOAD      ACCESS:    1606395  HIT:      64931  MISS:    1541464
cpu0_L2C RFO       ACCESS:       6135  HIT:       2394  MISS:       3741
cpu0_L2C PREFETCH  ACCESS:          0  HIT:          0  MISS:          0
[...]
cpu0_DTLB LOAD      ACCESS:  306308405  HIT:  300028180  MISS:    6280225
cpu0_DTLB RFO       ACCESS:   25358024  HIT:   25237245  MISS:     120779
cpu0_DTLB PREFETCH  ACCESS:          0  HIT:          0  MISS:          0
cpu0_DTLB WRITEBACK ACCESS:          0  HIT:          0  MISS:          0
cpu0_ITLB TOTAL     ACCESS:  204182293  HIT:  203796526  MISS:     385767
cpu0_ITLB LOAD      ACCESS:  204182293  HIT:  203796526  MISS:     385767
cpu0_ITLB RFO       ACCESS:          0  HIT:          0  MISS:          0
cpu0_ITLB PREFETCH  ACCESS:          0  HIT:          0  MISS:          0
cpu0_ITLB WRITEBACK ACCESS:          0  HIT:          0  MISS:          0
cpu0_L1I TOTAL     ACCESS:   10384071  HIT:    8513303  MISS:    1870768
cpu0_L1I LOAD      ACCESS:   10384071  HIT:    8513303  MISS:    1870768
cpu0_L1I RFO       ACCESS:          0  HIT:          0  MISS:          0
cpu0_L1I PREFETCH  ACCESS:          0  HIT:          0  MISS:          0
cpu0_L1I WRITEBACK ACCESS:          0  HIT:          0  MISS:          0
cpu0_STLB TOTAL     ACCESS:    6786771  HIT:    1214256  MISS:    5572515
cpu0_STLB LOAD      ACCESS:    6665992  HIT:    1112896  MISS:    5553096
cpu0_STLB RFO       ACCESS:     120779  HIT:     101360  MISS:      19419
cpu0_STLB PREFETCH  ACCESS:          0  HIT:          0  MISS:          0
cpu0_STLB WRITEBACK ACCESS:          0  HIT:          0  MISS:          0
cpu0_L1D TOTAL     ACCESS:  287804247  HIT:  246250462  MISS:   41553785
cpu0_L1D LOAD      ACCESS:  233236769  HIT:  191975148  MISS:   41261621
cpu0_L1D RFO       ACCESS:   49717766  HIT:   49513693  MISS:     204073
cpu0_L1D PREFETCH  ACCESS:          0  HIT:          0  MISS:          0
cpu0_L1D WRITEBACK ACCESS:          0  HIT:          0  MISS:          0
cpu0_L2C TOTAL     ACCESS:   43842167  HIT:    2034584  MISS:   41807583
cpu0_L2C LOAD      ACCESS:   43132317  HIT:    1501173  MISS:   41631144
cpu0_L2C RFO       ACCESS:     204067  HIT:      51481  MISS:     152586
cpu0_L2C PREFETCH  ACCESS:          0  HIT:          0  MISS:          0
cpu0_L2C WRITEBACK ACCESS:     417692  HIT:     411957  MISS:       5735
LLC TOTAL     ACCESS:   42091760  HIT:       1011  MISS:   42090749
LLC LOAD      ACCESS:   41631144  HIT:        642  MISS:   41630502
LLC RFO       ACCESS:     152586  HIT:        368  MISS:     152218
LLC PREFETCH  ACCESS:          0  HIT:          0  MISS:          0
LLC WRITEBACK ACCESS:     289912  HIT:          1  MISS:     289911
Heartbeat CPU 0 instructions: 1550000000 cycles: 5502559748 heartbeat IPC: 0.22541 cumulative IPC: 0.273312 (Simulation time: 15 hr 26 min 49 sec) 

Region of Interest Statistics
cpu0_DTLB TOTAL     ACCESS:  332101661  HIT:  325684748  MISS:    6416913
cpu0_DTLB LOAD      ACCESS:  306706762  HIT:  300410814  MISS:    6295948
cpu0_DTLB RFO       ACCESS:   25394899  HIT:   25273934  MISS:     120965
cpu0_DTLB PREFETCH  ACCESS:          0  HIT:          0  MISS:          0
cpu0_DTLB WRITEBACK ACCESS:          0  HIT:          0  MISS:          0
cpu0_ITLB TOTAL     ACCESS:  204450860  HIT:  204064467  MISS:     386393
cpu0_ITLB LOAD      ACCESS:  204450860  HIT:  204064467  MISS:     386393
cpu0_ITLB RFO       ACCESS:          0  HIT:          0  MISS:          0
cpu0_ITLB PREFETCH  ACCESS:          0  HIT:          0  MISS:          0
cpu0_ITLB WRITEBACK ACCESS:          0  HIT:          0  MISS:          0
cpu0_L1I TOTAL     ACCESS:   10401373  HIT:    8526892  MISS:    1874481
cpu0_L1I LOAD      ACCESS:   10401373  HIT:    8526892  MISS:    1874481
cpu0_L1I RFO       ACCESS:          0  HIT:          0  MISS:          0
cpu0_L1I PREFETCH  ACCESS:          0  HIT:          0  MISS:          0
cpu0_L1I WRITEBACK ACCESS:          0  HIT:          0  MISS:          0
cpu0_STLB TOTAL     ACCESS:    6803306  HIT:    1216091  MISS:    5587215
cpu0_STLB LOAD      ACCESS:    6682341  HIT:    1114584  MISS:    5567757
cpu0_STLB RFO       ACCESS:     120965  HIT:     101507  MISS:      19458
cpu0_STLB PREFETCH  ACCESS:          0  HIT:          0  MISS:          0
cpu0_STLB WRITEBACK ACCESS:          0  HIT:          0  MISS:          0
cpu0_L1D TOTAL     ACCESS:  288210046  HIT:  246592790  MISS:   41617256
cpu0_L1D LOAD      ACCESS:  233555726  HIT:  192231052  MISS:   41324674
cpu0_L1D RFO       ACCESS:   49791829  HIT:   49587483  MISS:     204346
cpu0_L1D PREFETCH  ACCESS:          0  HIT:          0  MISS:          0
cpu0_L1D WRITEBACK ACCESS:          0  HIT:          0  MISS:          0
cpu0_L2C TOTAL     ACCESS:   43910079  HIT:    2037777  MISS:   41872302
cpu0_L2C LOAD      ACCESS:   43199083  HIT:    1503486  MISS:   41695597
cpu0_L2C RFO       ACCESS:     204340  HIT:      51544  MISS:     152796
cpu0_L2C PREFETCH  ACCESS:          0  HIT:          0  MISS:          0
cpu0_L2C WRITEBACK ACCESS:     418420  HIT:     412673  MISS:       5747
LLC TOTAL     ACCESS:   42157294  HIT:       1011  MISS:   42156283
LLC LOAD      ACCESS:   41695597  HIT:        642  MISS:   41694955
LLC RFO       ACCESS:     152796  HIT:        368  MISS:     152428
LLC PREFETCH  ACCESS:          0  HIT:          0  MISS:          0
LLC WRITEBACK ACCESS:     290739  HIT:          1  MISS:     290738
Finished CPU 0 instructions: 1500000002 cycles: 5488241951 cumulative IPC: 0.273312 (Simulation time: 15 hr 26 min 49 sec) 

ChampSim completed all CPUs

Region of Interest Statistics

CPU 0 cumulative IPC: 0.273312 instructions: 1500000002 cycles: 5488241951
cpu0_DTLB TOTAL     ACCESS:  332101661  HIT:  325684748  MISS:    6416913
cpu0_DTLB LOAD      ACCESS:  306706762  HIT:  300410814  MISS:    6295948
cpu0_DTLB RFO       ACCESS:   25394899  HIT:   25273934  MISS:     120965
cpu0_DTLB PREFETCH  ACCESS:          0  HIT:          0  MISS:          0
cpu0_DTLB WRITEBACK ACCESS:          0  HIT:          0  MISS:          0
cpu0_DTLB TRANSLATION ACCESS:          0  HIT:          0  MISS:          0
cpu0_DTLB PREFETCH  REQUESTED:          0  ISSUED:          0  USEFUL:          0  USELESS:          0
cpu0_DTLB AVERAGE MISS LATENCY: 42.8367 cycles
cpu0_ITLB TOTAL     ACCESS:  204450860  HIT:  204064467  MISS:     386393
cpu0_ITLB LOAD      ACCESS:  204450860  HIT:  204064467  MISS:     386393
cpu0_ITLB RFO       ACCESS:          0  HIT:          0  MISS:          0
cpu0_ITLB PREFETCH  ACCESS:          0  HIT:          0  MISS:          0
cpu0_ITLB WRITEBACK ACCESS:          0  HIT:          0  MISS:          0
cpu0_ITLB TRANSLATION ACCESS:          0  HIT:          0  MISS:          0
cpu0_ITLB PREFETCH  REQUESTED:          0  ISSUED:          0  USEFUL:          0  USELESS:          0
cpu0_ITLB AVERAGE MISS LATENCY: 10.8255 cycles
cpu0_L1I TOTAL     ACCESS:   10401373  HIT:    8526892  MISS:    1874481
cpu0_L1I LOAD      ACCESS:   10401373  HIT:    8526892  MISS:    1874481
cpu0_L1I RFO       ACCESS:          0  HIT:          0  MISS:          0
cpu0_L1I PREFETCH  ACCESS:          0  HIT:          0  MISS:          0
cpu0_L1I WRITEBACK ACCESS:          0  HIT:          0  MISS:          0
cpu0_L1I TRANSLATION ACCESS:          0  HIT:          0  MISS:          0
cpu0_L1I PREFETCH  REQUESTED:          0  ISSUED:          0  USEFUL:          0  USELESS:          0
cpu0_L1I AVERAGE MISS LATENCY: 102.045 cycles
cpu0_STLB TOTAL     ACCESS:    6803306  HIT:    1216091  MISS:    5587215
cpu0_STLB LOAD      ACCESS:    6682341  HIT:    1114584  MISS:    5567757
cpu0_STLB RFO       ACCESS:     120965  HIT:     101507  MISS:      19458
cpu0_STLB PREFETCH  ACCESS:          0  HIT:          0  MISS:          0
cpu0_STLB WRITEBACK ACCESS:          0  HIT:          0  MISS:          0
cpu0_STLB TRANSLATION ACCESS:          0  HIT:          0  MISS:          0
cpu0_STLB PREFETCH  REQUESTED:          0  ISSUED:          0  USEFUL:          0  USELESS:          0
cpu0_STLB AVERAGE MISS LATENCY: 38.8993 cycles
cpu0_L1D TOTAL     ACCESS:  288210046  HIT:  246592790  MISS:   41617256
cpu0_L1D LOAD      ACCESS:  233555726  HIT:  192231052  MISS:   41324674
cpu0_L1D RFO       ACCESS:   49791829  HIT:   49587483  MISS:     204346
cpu0_L1D PREFETCH  ACCESS:          0  HIT:          0  MISS:          0
cpu0_L1D WRITEBACK ACCESS:          0  HIT:          0  MISS:          0
cpu0_L1D TRANSLATION ACCESS:    4862491  HIT:    4774255  MISS:      88236
cpu0_L1D PREFETCH  REQUESTED:          0  ISSUED:          0  USEFUL:          0  USELESS:          0
cpu0_L1D AVERAGE MISS LATENCY: 187.021 cycles
cpu0_L2C TOTAL     ACCESS:   43910079  HIT:    2037777  MISS:   41872302
cpu0_L2C LOAD      ACCESS:   43199083  HIT:    1503486  MISS:   41695597
cpu0_L2C RFO       ACCESS:     204340  HIT:      51544  MISS:     152796
cpu0_L2C PREFETCH  ACCESS:          0  HIT:          0  MISS:          0
cpu0_L2C WRITEBACK ACCESS:     418420  HIT:     412673  MISS:       5747
cpu0_L2C TRANSLATION ACCESS:      88236  HIT:      70074  MISS:      18162
cpu0_L2C PREFETCH  REQUESTED:          0  ISSUED:          0  USEFUL:          0  USELESS:          0
cpu0_L2C AVERAGE MISS LATENCY: 178.905 cycles
LLC TOTAL     ACCESS:   42157294  HIT:       1011  MISS:   42156283
LLC LOAD      ACCESS:   41695597  HIT:        642  MISS:   41694955
LLC RFO       ACCESS:     152796  HIT:        368  MISS:     152428
LLC PREFETCH  ACCESS:          0  HIT:          0  MISS:          0
LLC WRITEBACK ACCESS:     290739  HIT:          1  MISS:     290738
LLC TRANSLATION ACCESS:      18162  HIT:          0  MISS:      18162
LLC PREFETCH  REQUESTED:          0  ISSUED:          0  USEFUL:          0  USELESS:          0
LLC AVERAGE MISS LATENCY: 156.844 cycles
~~~~~~~~~~Reuse Distance Profiler output~~~~~~~~~~
0	0	0
1	0	0
2	0	0
3	0	0
4	0	0
5	0	0
6	0	0
7	0	0
8	0	0
9	0	0
10	0	0
11	0	0
12	0	0
13	0	0
14	0	0
15	0	0
16	0	0
17	0	0
18	0	0
19	0	0
20	0	0
21	0	0
22	0	0
23	0	0
24	0	0
25	0	0
26	0	0
27	0	0
28	0	0
29	0	0
30	0	0
31	0	0
32	0	0
33	0	0
34	0	0
35	0	0
36	0	0
37	0	0
38	0	0
39	0	0
40	0	0
41	0	0
42	0	0
43	0	0
44	0	0
45	0	0
46	0	0
47	0	0
48	0	0
49	0	0
50	0	0
51	0	0
52	0	0
53	0	0
54	0	0
55	0	0
56	0	0
57	0	0
58	0	0
59	0	0
60	0	0
61	0	0
62	0	0
63	0	0
64	0	0
66	0	0
68	0	0
70	0	0
72	0	0
74	0	0
76	0	0
78	0	0
80	0	0
82	0	0
84	0	0
86	0	0
88	0	0
90	0	0
92	0	0
94	0	0
96	0	0
98	0	0
100	0	0
102	0	0
104	0	0
106	0	0
108	0	0
110	0	0
112	0	0
114	0	0
116	0	0
118	0	0
120	0	0
122	0	0
124	0	0
126	0	0
128	0	0
132	0	0
136	0	0
140	0	0
144	0	0
148	0	0
152	0	0
156	0	0
160	0	0
164	0	0
168	0	0
172	0	0
176	0	0
180	0	0
184	0	0
188	0	0
192	0	0
196	0	0
200	0	0
204	0	0
208	0	0
212	0	0
216	0	0
220	0	0
224	0	0
228	0	0
232	0	0
236	0	0
240	0	0
244	0	0
248	0	0
252	0	0
256	0	0
264	0	0
272	0	0
280	0	0
288	0	0
296	0	0
304	0	0
312	0	0
320	0	0
328	0	0
336	0	0
344	0	0
352	0	0
360	0	0
368	0	0
376	0	0
384	0	0
392	0	0
400	0	0
408	0	0
416	0	0
424	0	0
432	0	0
440	0	0
448	0	0
456	0	0
464	0	0
472	0	0
480	0	0
488	0	0
496	0	0
504	0	0
512	0	0
528	0	0
544	0	0
560	0	0
576	0	0
592	0	0
608	0	0
624	0	0
640	0	0
656	0	0
672	0	0
688	0	0
704	0	0
720	0	0
736	0	0
752	0	0
768	0	0
784	0	0
800	0	0
816	0	0
832	0	0
848	0	0
864	0	0
880	0	0
896	0	0
912	0	0
928	0	0
944	0	0
960	0	0
976	0	0
992	0	0
1008	0	0
1024	0	0
1056	0	0
1088	0	0
1120	0	0
1152	0	0
1184	0	0
1216	0	0
1248	0	0
1280	0	0
1312	0	0
1344	0	0
1376	0	0
1408	0	0
1440	0	0
1472	0	0
1504	0	0
1536	0	0
1568	0	0
1600	0	0
1632	0	0
1664	0	0
1696	0	0
1728	0	0
1760	0	0
1792	0	0
1824	0	0
1856	0	0
1888	0	0
1920	0	0
1952	0	0
1984	0	0
2016	0	0
2048	0	0
2112	0	0
2176	0	0
2240	0	0
2304	0	0
2368	0	0
2432	0	0
2496	0	0
2560	0	0
2624	0	0
2688	0	0
2752	0	0
2816	0	0
2880	0	0
2944	0	0
3008	0	0
3072	0	0
3136	0	0
3200	0	0
3264	0	0
3328	0	0
3392	0	0
3456	0	0
3520	0	0
3584	0	0
3648	0	0
3712	0	0
3776	0	0
3840	0	0
3904	0	0
3968	0	0
4032	0	0
4096	0	0
4224	0	0
4352	0	0
4480	0	0
4608	0	0
4736	0	0
4864	0	0
4992	0	0
5120	0	0
5248	0	0
5376	0	0
5504	0	0
5632	0	0
5760	0	0
5888	0	0
6016	0	0
6144	0	0
6272	0	0
6400	0	0
6528	0	0
6656	0	0
6784	0	0
6912	0	0
7040	0	0
7168	0	0
7296	0	0
7424	0	0
7552	0	0
7680	0	0
7808	0	0
7936	0	0
8064	0	0
8192	0	0
8448	0	0
8704	0	0
8960	0	0
9216	0	0
9472	0	0
9728	0	0
9984	0	0
10240	0	0
10496	0	0
10752	0	0
11008	0	0
11264	0	0
11520	0	0
11776	0	0
12032	0	0
12288	0	0
12544	0	0
12800	0	0
13056	0	0
13312	0	0
13568	0	0
13824	0	0
14080	0	0
14336	0	0
14592	0	0
14848	0	0
15104	0	0
15360	0	0
15616	0	0
15872	0	0
16128	0	0
16384	0	0
16896	0	0
17408	0	0
17920	0	0
18432	0	0
18944	0	0
19456	0	0
19968	0	0
20480	0	0
20992	0	0
21504	0	0
22016	0	0
22528	0	0
23040	0	0
23552	0	0
24064	0	0
24576	0	0
25088	0	0
25600	0	0
26112	0	0
26624	0	0
27136	0	0
27648	0	0
28160	0	0
28672	0	0
29184	0	0
29696	0	0
30208	0	0
30720	0	0
31232	0	0
31744	0	0
32256	0	0
32768	0	0
33792	0	0
34816	0	0
35840	0	0
36864	0	0
37888	0	0
38912	0	0
39936	0	0
40960	0	0
41984	0	0
43008	0	0
44032	0	0
45056	0	0
46080	0	0
47104	0	0
48128	0	0
49152	0	0
50176	0	0
51200	0	0
52224	0	0
53248	0	0
54272	0	0
55296	0	0
56320	0	0
57344	0	0
58368	0	0
59392	0	0
60416	0	0
61440	0	0
62464	0	0
63488	0	0
64512	0	0
65536	0	0
67584	0	0
69632	0	0
71680	0	0
73728	0	0
75776	0	0
77824	0	0
79872	0	0
81920	0	0
83968	0	0
86016	0	0
88064	0	0
90112	0	0
92160	0	0
94208	0	0
96256	0	0
98304	0	0
100352	0	0
102400	0	0
104448	0	0
106496	0	0
108544	0	0
110592	0	0
112640	0	0
114688	0	0
116736	0	0
118784	0	0
120832	0	0
122880	0	0
124928	0	0
126976	0	0
129024	0	0
131072	0	0
135168	0	0
139264	0	0
143360	0	0
147456	0	0
151552	0	0
155648	0	0
159744	0	0
163840	0	0
167936	0	0
172032	0	0
176128	0	0
180224	0	0
184320	0	0
188416	0	0
192512	0	0
196608	0	0
200704	0	0
204800	0	0
208896	0	0
212992	0	0
217088	0	0
221184	0	0
225280	0	0
229376	0	0
233472	0	0
237568	0	0
241664	0	0
245760	0	0
249856	0	0
253952	0	0
258048	0	0
262144	0	0
270336	0	0
278528	0	0
286720	0	0
294912	0	0
303104	0	0
311296	0	0
319488	0	0
327680	0	0
335872	0	0
344064	0	0
352256	0	0
360448	0	0
368640	0	0
376832	0	0
385024	0	0
393216	0	0
401408	0	0
409600	0	0
417792	0	0
425984	0	0
434176	0	0
442368	0	0
450560	0	0
458752	0	0
466944	0	0
475136	0	0
483328	0	0
491520	0	0
499712	0	0
507904	0	0
516096	0	0
524288	0	0
540672	0	0
557056	0	0
573440	0	0
589824	0	0
606208	0	0
622592	0	0
638976	0	0
655360	0	0
671744	0	0
688128	0	0
704512	0	0
720896	0	0
737280	0	0
753664	0	0
770048	0	0
786432	0	0
802816	0	0
819200	0	0
835584	0	0
851968	0	0
868352	0	0
884736	0	0
901120	0	0
917504	0	0
933888	0	0
950272	0	0
966656	0	0
983040	0	0
999424	0	0
1015808	0	0
1032192	0	0
1048576	0	0
1081344	0	0
1114112	0	0
1146880	0	0
1179648	0	0
1212416	0	0
1245184	0	0
1277952	0	0
1310720	0	0
1343488	0	0
1376256	0	0
1409024	0	0
1441792	0	0
1474560	0	0
1507328	0	0
1540096	0	0
1572864	0	0
1605632	0	0
1638400	0	0
1671168	0	0
1703936	0	0
1736704	0	0
1769472	0	0
1802240	0	0
1835008	0	0
1867776	0	0
1900544	0	0
1933312	0	0
1966080	0	0
1998848	0	0
2031616	0	0
2064384	0	0
2097152	0	0
2162688	0	0
2228224	0	0
2293760	0	0
2359296	0	0
2424832	0	0
2490368	0	0
2555904	0	0
2621440	0	0
2686976	0	0
2752512	0	0
2818048	0	0
2883584	0	0
2949120	0	0
3014656	0	0
3080192	0	0
3145728	0	0
3211264	0	0
3276800	0	0
3342336	0	0
3407872	0	0
3473408	0	0
3538944	0	0
3604480	0	0
3670016	0	0
3735552	0	0
3801088	0	0
3866624	0	0
3932160	0	0
3997696	0	0
4063232	0	0
4128768	0	0
4194304	0	0
4325376	0	0
4456448	0	0
4587520	0	0
4718592	0	0
4849664	0	0
4980736	0	0
5111808	0	0
5242880	0	0
5373952	0	0
5505024	0	0
5636096	0	0
5767168	0	0
5898240	0	0
6029312	0	0
6160384	0	0
6291456	0	0
6422528	0	0
6553600	0	0
6684672	0	0
6815744	0	0
6946816	0	0
7077888	0	0
7208960	0	0
7340032	0	0
7471104	0	0
7602176	0	0
7733248	0	0
7864320	0	0
7995392	0	0
8126464	0	0
8257536	0	0
8388608	0	0
8650752	0	0
8912896	0	0
9175040	0	0
9437184	0	0
9699328	0	0
9961472	0	0
10223616	0	0
10485760	0	0
10747904	0	0
11010048	0	0
11272192	0	0
11534336	0	0
11796480	0	0
12058624	0	0
12320768	0	0
12582912	0	0
12845056	0	0
13107200	0	0
13369344	0	0
13631488	0	0
13893632	0	0
14155776	0	0
14417920	0	0
14680064	0	0
14942208	0	0
15204352	0	0
15466496	0	0
15728640	0	0
15990784	0	0
16252928	0	0
16515072	0	0
16777216	0	0
17301504	0	0
17825792	0	0
18350080	0	0
18874368	0	0
19398656	0	0
19922944	0	0
20447232	0	0
20971520	0	0
21495808	0	0
22020096	0	0
22544384	0	0
23068672	0	0
23592960	0	0
24117248	0	0
24641536	0	0
25165824	0	0
25690112	0	0
26214400	0	0
26738688	0	0
27262976	0	0
27787264	0	0
28311552	0	0
28835840	0	0
29360128	0	0
29884416	0	0
30408704	0	0
30932992	0	0
31457280	0	0
31981568	0	0
32505856	0	0
33030144	0	0
33554432	0	0
34603008	0	0
35651584	0	0
36700160	0	0
37748736	0	0
38797312	0	0
39845888	0	0
40894464	0	0
41943040	0	0
42991616	0	0
44040192	0	0
45088768	0	0
46137344	0	0
47185920	0	0
48234496	0	0
49283072	0	0
50331648	0	0
51380224	0	0
52428800	0	0
53477376	0	0
54525952	0	0
55574528	0	0
56623104	0	0
57671680	0	0
58720256	0	0
59768832	0	0
60817408	0	0
61865984	0	0
62914560	0	0
63963136	0	0
65011712	0	0
66060288	0	0
67108864	0	0
69206016	0	0
71303168	0	0
73400320	0	0
75497472	0	0
77594624	0	0
79691776	0	0
81788928	0	0
83886080	0	0
85983232	0	0
88080384	0	0
90177536	0	0
92274688	0	0
94371840	0	0
96468992	0	0
98566144	0	0
100663296	0	0
102760448	0	0
104857600	0	0
106954752	0	0
109051904	0	0
111149056	0	0
113246208	0	0
115343360	0	0
117440512	0	0
119537664	0	0
121634816	0	0
123731968	0	0
125829120	0	0
127926272	0	0
130023424	0	0
132120576	0	0
134217728	0	0
138412032	0	0
142606336	0	0
146800640	0	0
150994944	0	0
155189248	0	0
159383552	0	0
163577856	0	0
167772160	0	0
171966464	0	0
176160768	0	0
180355072	0	0
184549376	0	0
188743680	0	0
192937984	0	0
197132288	0	0
201326592	0	0
205520896	0	0
209715200	0	0
213909504	0	0
218103808	0	0
222298112	0	0
226492416	0	0
230686720	0	0
234881024	0	0
239075328	0	0
243269632	0	0
247463936	0	0
251658240	0	0
255852544	0	0
260046848	0	0
264241152	0	0
268435456	0	0
276824064	0	0
285212672	0	0
293601280	0	0
301989888	0	0
310378496	0	0
318767104	0	0
327155712	0	0
335544320	0	0
343932928	0	0
352321536	0	0
360710144	0	0
369098752	0	0
377487360	0	0
385875968	0	0
394264576	0	0
402653184	0	0
411041792	0	0
419430400	0	0
427819008	0	0
436207616	0	0
444596224	0	0
452984832	0	0
461373440	0	0
469762048	0	0
478150656	0	0
486539264	0	0
494927872	0	0
503316480	0	0
511705088	0	0
520093696	0	0
528482304	0	0
536870912	0	0
553648128	0	0
570425344	0	0
587202560	0	0
603979776	0	0
620756992	0	0
637534208	0	0
654311424	0	0
671088640	0	0
687865856	0	0
704643072	0	0
721420288	0	0
738197504	0	0
754974720	0	0
771751936	0	0
788529152	0	0
805306368	0	0
822083584	0	0
838860800	0	0
855638016	0	0
872415232	0	0
889192448	0	0
905969664	0	0
922746880	0	0
939524096	0	0
956301312	0	0
973078528	0	0
989855744	0	0
1006632960	0	0
1023410176	0	0
1040187392	0	0
1056964608	0	0
1073741824	0	0
1107296256	0	0
1140850688	0	0
1174405120	0	0
1207959552	0	0
1241513984	0	0
1275068416	0	0
1308622848	0	0
1342177280	0	0
1375731712	0	0
1409286144	0	0
1442840576	0	0
1476395008	0	0
1509949440	0	0
1543503872	0	0
1577058304	0	0
1610612736	0	0
1644167168	0	0
1677721600	0	0
1711276032	0	0
1744830464	0	0
1778384896	0	0
1811939328	0	0
1845493760	0	0
1879048192	0	0
1912602624	0	0
1946157056	0	0
1979711488	0	0
2013265920	0	0
2046820352	0	0
2080374784	0	0
2113929216	0	0
2147483648	0	0
2214592512	0	0
2281701376	0	0
2348810240	0	0
2415919104	0	0
2483027968	0	0
2550136832	0	0
2617245696	0	0
2684354560	0	0
2751463424	0	0
2818572288	0	0
2885681152	0	0
2952790016	0	0
3019898880	0	0
3087007744	0	0
3154116608	0	0
3221225472	0	0
3288334336	0	0
3355443200	0	0
3422552064	0	0
3489660928	0	0
3556769792	0	0
3623878656	0	0
3690987520	0	0
3758096384	0	0
3825205248	0	0
3892314112	0	0
3959422976	0	0
4026531840	0	0
4093640704	0	0
4160749568	0	0
4227858432	0	0
~~~~~~~~~~Reuse Distance Profiler output end~~~~~~~~~~


DRAM Statistics
 CHANNEL 0
 RQ ROW_BUFFER_HIT:   11559321  ROW_BUFFER_MISS:   30306198
 DBUS AVG_CONGESTED_CYCLE:    3.89526
 WQ ROW_BUFFER_HIT:     143599  ROW_BUFFER_MISS:     147140  FULL:          0


CPU 0 Branch Prediction Accuracy: 91.4372% MPKI: 24.4473 Average ROB Occupancy at Mispredict: 22.7609
Branch type MPKI
BRANCH_DIRECT_JUMP: 2.26667e-05
BRANCH_INDIRECT: 0.00630933
BRANCH_CONDITIONAL: 24.3449
BRANCH_DIRECT_CALL: 2.06667e-05
BRANCH_INDIRECT_CALL: 0.0226987
BRANCH_RETURN: 0.073348

