
*** ChampSim Multicore Out-of-Order Simulator ***

Warmup Instructions: 50000000
Simulation Instructions: 1500000000
Number of CPUs: 1
Off-chip DRAM Size: 4 GiB Channels: 1 Width: 64-bit Data Rate: 3200 MT/s

VirtualMemory physical capacity: 8588881920 num_ppages: 2096895
VirtualMemory page size: 4096 log2_page_size: 12

CPU 0 runs traces/603.bwaves_s-2931B.champsimtrace.xz
CPU 0 Bimodal branch predictor
Basic BTB sets: 1024 ways: 8 indirect buffer size: 4096 RAS size: 64
Initializing LRU.
Initializing LRU.
Initializing LRU.
Initializing LRU.
Initializing rdLRU.
Initializing LRU.
Initializing LRU.
Heartbeat CPU 0 instructions: 2000001 cycles: 500077 heartbeat IPC: 3.99939 cumulative IPC: 3.99939 (Simulation time: 0 hr 0 min 40 sec) 
Heartbeat CPU 0 instructions: 4000001 cycles: 1000077 heartbeat IPC: 4 cumulative IPC: 3.99969 (Simulation time: 0 hr 1 min 18 sec) 
Heartbeat CPU 0 instructions: 6000001 cycles: 1500077 heartbeat IPC: 4 cumulative IPC: 3.9998 (Simulation time: 0 hr 1 min 52 sec) 
Heartbeat CPU 0 instructions: 8000001 cycles: 2000077 heartbeat IPC: 4 cumulative IPC: 3.99985 (Simulation time: 0 hr 2 min 26 sec) 
Heartbeat CPU 0 instructions: 10000001 cycles: 2500077 heartbeat IPC: 4 cumulative IPC: 3.99988 (Simulation time: 0 hr 3 min 2 sec) 
Heartbeat CPU 0 instructions: 12000001 cycles: 3000077 heartbeat IPC: 4 cumulative IPC: 3.9999 (Simulation time: 0 hr 3 min 33 sec) 
Heartbeat CPU 0 instructions: 14000001 cycles: 3500077 heartbeat IPC: 4 cumulative IPC: 3.99991 (Simulation time: 0 hr 4 min 7 sec) 
Heartbeat CPU 0 instructions: 16000001 cycles: 4000077 heartbeat IPC: 4 cumulative IPC: 3.99992 (Simulation time: 0 hr 4 min 44 sec) 
Heartbeat CPU 0 instructions: 18000001 cycles: 4500077 heartbeat IPC: 4 cumulative IPC: 3.99993 (Simulation time: 0 hr 5 min 20 sec) 
Heartbeat CPU 0 instructions: 20000001 cycles: 5000077 heartbeat IPC: 4 cumulative IPC: 3.99994 (Simulation time: 0 hr 5 min 54 sec) 
Heartbeat CPU 0 instructions: 22000001 cycles: 5500077 heartbeat IPC: 4 cumulative IPC: 3.99994 (Simulation time: 0 hr 6 min 27 sec) 
Heartbeat CPU 0 instructions: 24000001 cycles: 6000077 heartbeat IPC: 4 cumulative IPC: 3.99995 (Simulation time: 0 hr 7 min 3 sec) 
Heartbeat CPU 0 instructions: 26000001 cycles: 6500077 heartbeat IPC: 4 cumulative IPC: 3.99995 (Simulation time: 0 hr 7 min 42 sec) 
Heartbeat CPU 0 instructions: 28000001 cycles: 7000077 heartbeat IPC: 4 cumulative IPC: 3.99996 (Simulation time: 0 hr 8 min 20 sec) 
Heartbeat CPU 0 instructions: 30000001 cycles: 7500077 heartbeat IPC: 4 cumulative IPC: 3.99996 (Simulation time: 0 hr 8 min 59 sec) 
Heartbeat CPU 0 instructions: 32000001 cycles: 8000077 heartbeat IPC: 4 cumulative IPC: 3.99996 (Simulation time: 0 hr 9 min 34 sec) 
Heartbeat CPU 0 instructions: 34000001 cycles: 8500077 heartbeat IPC: 4 cumulative IPC: 3.99996 (Simulation time: 0 hr 10 min 5 sec) 
Heartbeat CPU 0 instructions: 36000001 cycles: 9000077 heartbeat IPC: 4 cumulative IPC: 3.99997 (Simulation time: 0 hr 10 min 40 sec) 
Heartbeat CPU 0 instructions: 38000001 cycles: 9500077 heartbeat IPC: 4 cumulative IPC: 3.99997 (Simulation time: 0 hr 11 min 18 sec) 
Heartbeat CPU 0 instructions: 40000001 cycles: 10000077 heartbeat IPC: 4 cumulative IPC: 3.99997 (Simulation time: 0 hr 12 min 1 sec) 
Heartbeat CPU 0 instructions: 42000001 cycles: 10500077 heartbeat IPC: 4 cumulative IPC: 3.99997 (Simulation time: 0 hr 12 min 43 sec) 
Heartbeat CPU 0 instructions: 44000001 cycles: 11000077 heartbeat IPC: 4 cumulative IPC: 3.99997 (Simulation time: 0 hr 13 min 25 sec) 
Heartbeat CPU 0 instructions: 46000001 cycles: 11500077 heartbeat IPC: 4 cumulative IPC: 3.99997 (Simulation time: 0 hr 14 min 11 sec) 
Heartbeat CPU 0 instructions: 48000001 cycles: 12000077 heartbeat IPC: 4 cumulative IPC: 3.99997 (Simulation time: 0 hr 15 min 0 sec) 
Heartbeat CPU 0 instructions: 50000001 cycles: 12500077 heartbeat IPC: 4 cumulative IPC: 3.99998 (Simulation time: 0 hr 15 min 47 sec) 

Warmup complete CPU 0 instructions: 50000001 cycles: 12500077 (Simulation time: 0 hr 15 min 47 sec) 

Heartbeat CPU 0 instructions: 52000004 cycles: 17049875 heartbeat IPC: 0.439581 cumulative IPC: 0.439581 (Simulation time: 0 hr 19 min 44 sec) 

Region of Interest Statistics
cpu0_DTLB TOTAL     ACCESS:     429349  HIT:     426941  MISS:       2408
cpu0_DTLB LOAD      ACCESS:     261214  HIT:     259844  MISS:       1370
cpu0_DTLB RFO       ACCESS:     168135  HIT:     167097  MISS:       1038
cpu0_DTLB PREFETCH  ACCESS:          0  HIT:          0  MISS:          0
cpu0_DTLB WRITEBACK ACCESS:          0  HIT:          0  MISS:          0
cpu0_ITLB TOTAL     ACCESS:     117795  HIT:     117795  MISS:          0
cpu0_ITLB LOAD      ACCESS:     117795  HIT:     117795  MISS:          0
cpu0_ITLB RFO       ACCESS:          0  HIT:          0  MISS:          0
cpu0_ITLB PREFETCH  ACCESS:          0  HIT:          0  MISS:          0
cpu0_ITLB WRITEBACK ACCESS:          0  HIT:          0  MISS:          0
cpu0_STLB TOTAL     ACCESS:       2408  HIT:       1977  MISS:        431
cpu0_STLB LOAD      ACCESS:       1370  HIT:       1128  MISS:        242
cpu0_STLB RFO       ACCESS:       1038  HIT:        849  MISS:        189
cpu0_STLB PREFETCH  ACCESS:          0  HIT:          0  MISS:          0
cpu0_STLB WRITEBACK ACCESS:          0  HIT:          0  MISS:          0
cpu0_L1D TOTAL     ACCESS:     599617  HIT:     565831  MISS:      33786
cpu0_L1D LOAD      ACCESS:     269345  HIT:     248313  MISS:      21032
cpu0_L1D RFO       ACCESS:     329841  HIT:     317460  MISS:      12381
cpu0_L1D PREFETCH  ACCESS:          0  HIT:          0  MISS:          0
cpu0_L1D WRITEBACK ACCESS:          0  HIT:          0  MISS:          0
cpu0_L2C TOTAL     ACCESS:      45932  HIT:      16511  MISS:      29421
cpu0_L2C LOAD      ACCESS:      21032  HIT:       3524  MISS:      17508
cpu0_L2C RFO       ACCESS:      12031  HIT:        124  MISS:      11907
cpu0_L2C PREFETCH  ACCESS:          0  HIT:          0  MISS:          0
cpu0_L2C WRITEBACK ACCESS:      12496  HIT:      12490  MISS:          6
LLC TOTAL     ACCESS:      41367  HIT:      14150  MISS:      27217
LLC LOAD      ACCESS:      17508  HIT:       2199  MISS:      15309
LLC RFO       ACCESS:      11907  HIT:          0  MISS:      11907
LLC PREFETCH  ACCESS:          0  HIT:          0  MISS:          0
LLC WRITEBACK ACCESS:      11952  HIT:      11951  MISS:          1
Heartbeat CPU 0 instructions: 54000004 cycles: 21778922 heartbeat IPC: 0.422918 cumulative IPC: 0.431088 (Simulation time: 0 hr 23 min 39 sec) 

Region of Interest Statistics
cpu0_DTLB TOTAL     ACCESS:     858648  HIT:     853237  MISS:       5411
cpu0_DTLB LOAD      ACCESS:     522331  HIT:     519235  MISS:       3096
cpu0_DTLB RFO       ACCESS:     336317  HIT:     334002  MISS:       2315
cpu0_DTLB PREFETCH  ACCESS:          0  HIT:          0  MISS:          0
cpu0_DTLB WRITEBACK ACCESS:          0  HIT:          0  MISS:          0
cpu0_ITLB TOTAL     ACCESS:     235243  HIT:     235243  MISS:          0
cpu0_ITLB LOAD      ACCESS:     235243  HIT:     235243  MISS:          0
cpu0_ITLB RFO       ACCESS:          0  HIT:          0  MISS:          0
cpu0_ITLB PREFETCH  ACCESS:          0  HIT:          0  MISS:          0
cpu0_ITLB WRITEBACK ACCESS:          0  HIT:          0  MISS:          0
cpu0_STLB TOTAL     ACCESS:       5411  HIT:       4563  MISS:        848
cpu0_STLB LOAD      ACCESS:       3096  HIT:       2619  MISS:        477
cpu0_STLB RFO       ACCESS:       2315  HIT:       1944  MISS:        371
cpu0_STLB PREFETCH  ACCESS:          0  HIT:          0  MISS:          0
cpu0_STLB WRITEBACK ACCESS:          0  HIT:          0  MISS:          0
cpu0_L1D TOTAL     ACCESS:    1199226  HIT:    1131685  MISS:      67541
cpu0_L1D LOAD      ACCESS:     538688  HIT:     496635  MISS:      42053
cpu0_L1D RFO       ACCESS:     659691  HIT:     634936  MISS:      24755
cpu0_L1D PREFETCH  ACCESS:          0  HIT:          0  MISS:          0
cpu0_L1D WRITEBACK ACCESS:          0  HIT:          0  MISS:          0
cpu0_L2C TOTAL     ACCESS:      91832  HIT:      33094  MISS:      58738
cpu0_L2C LOAD      ACCESS:      42053  HIT:       7143  MISS:      34910
cpu0_L2C RFO       ACCESS:      24065  HIT:        251  MISS:      23814
cpu0_L2C PREFETCH  ACCESS:          0  HIT:          0  MISS:          0
cpu0_L2C WRITEBACK ACCESS:      24981  HIT:      24967  MISS:         14
LLC TOTAL     ACCESS:      82534  HIT:      28099  MISS:      54435
LLC LOAD      ACCESS:      34910  HIT:       4291  MISS:      30619
LLC RFO       ACCESS:      23814  HIT:          0  MISS:      23814
LLC PREFETCH  ACCESS:          0  HIT:          0  MISS:          0
LLC WRITEBACK ACCESS:      23810  HIT:      23808  MISS:          2
Heartbeat CPU 0 instructions: 56000004 cycles: 26274865 heartbeat IPC: 0.444845 cumulative IPC: 0.435579 (Simulation time: 0 hr 27 min 35 sec) 

Region of Interest Statistics
cpu0_DTLB TOTAL     ACCESS:    1287792  HIT:    1279978  MISS:       7814
cpu0_DTLB LOAD      ACCESS:     783390  HIT:     778887  MISS:       4503
cpu0_DTLB RFO       ACCESS:     504402  HIT:     501091  MISS:       3311
cpu0_DTLB PREFETCH  ACCESS:          0  HIT:          0  MISS:          0
cpu0_DTLB WRITEBACK ACCESS:          0  HIT:          0  MISS:          0
cpu0_ITLB TOTAL     ACCESS:     352990  HIT:     352990  MISS:          0
cpu0_ITLB LOAD      ACCESS:     352990  HIT:     352990  MISS:          0
cpu0_ITLB RFO       ACCESS:          0  HIT:          0  MISS:          0
cpu0_ITLB PREFETCH  ACCESS:          0  HIT:          0  MISS:          0
cpu0_ITLB WRITEBACK ACCESS:          0  HIT:          0  MISS:          0
cpu0_STLB TOTAL     ACCESS:       7814  HIT:       6535  MISS:       1279
cpu0_STLB LOAD      ACCESS:       4503  HIT:       3784  MISS:        719
cpu0_STLB RFO       ACCESS:       3311  HIT:       2751  MISS:        560
cpu0_STLB PREFETCH  ACCESS:          0  HIT:          0  MISS:          0
cpu0_STLB WRITEBACK ACCESS:          0  HIT:          0  MISS:          0
cpu0_L1D TOTAL     ACCESS:    1798537  HIT:    1697224  MISS:     101313
cpu0_L1D LOAD      ACCESS:     807827  HIT:     744740  MISS:      63087
cpu0_L1D RFO       ACCESS:     989432  HIT:     952313  MISS:      37119
cpu0_L1D PREFETCH  ACCESS:          0  HIT:          0  MISS:          0
cpu0_L1D WRITEBACK ACCESS:          0  HIT:          0  MISS:          0
cpu0_L2C TOTAL     ACCESS:     137758  HIT:      49888  MISS:      87870
cpu0_L2C LOAD      ACCESS:      63086  HIT:      10958  MISS:      52128
cpu0_L2C RFO       ACCESS:      36099  HIT:        378  MISS:      35721
cpu0_L2C PREFETCH  ACCESS:          0  HIT:          0  MISS:          0
cpu0_L2C WRITEBACK ACCESS:      37466  HIT:      37445  MISS:         21
LLC TOTAL     ACCESS:     123695  HIT:      42044  MISS:      81651
LLC LOAD      ACCESS:      52128  HIT:       6200  MISS:      45928
LLC RFO       ACCESS:      35721  HIT:          0  MISS:      35721
LLC PREFETCH  ACCESS:          0  HIT:          0  MISS:          0
LLC WRITEBACK ACCESS:      35846  HIT:      35844  MISS:          2
Heartbeat CPU 0 instructions: 58000001 cycles: 30874328 heartbeat IPC: 0.434833 cumulative IPC: 0.435392 (Simulation time: 0 hr 31 min 33 sec) 

Region of Interest Statistics
cpu0_DTLB TOTAL     ACCESS:    1716895  HIT:    1706709  MISS:      10186
cpu0_DTLB LOAD      ACCESS:    1044440  HIT:    1038582  MISS:       5858
cpu0_DTLB RFO       ACCESS:     672455  HIT:     668127  MISS:       4328
cpu0_DTLB PREFETCH  ACCESS:          0  HIT:          0  MISS:          0
cpu0_DTLB WRITEBACK ACCESS:          0  HIT:          0  MISS:          0
cpu0_ITLB TOTAL     ACCESS:     470826  HIT:     470826  MISS:          0
cpu0_ITLB LOAD      ACCESS:     470826  HIT:     470826  MISS:          0
cpu0_ITLB RFO       ACCESS:          0  HIT:          0  MISS:          0
cpu0_ITLB PREFETCH  ACCESS:          0  HIT:          0  MISS:          0
cpu0_ITLB WRITEBACK ACCESS:          0  HIT:          0  MISS:          0
cpu0_STLB TOTAL     ACCESS:      10186  HIT:       8476  MISS:       1710
cpu0_STLB LOAD      ACCESS:       5858  HIT:       4897  MISS:        961
cpu0_STLB RFO       ACCESS:       4328  HIT:       3579  MISS:        749
cpu0_STLB PREFETCH  ACCESS:          0  HIT:          0  MISS:          0
cpu0_STLB WRITEBACK ACCESS:          0  HIT:          0  MISS:          0
cpu0_L1D TOTAL     ACCESS:    2398006  HIT:    2262902  MISS:     135104
cpu0_L1D LOAD      ACCESS:    1076948  HIT:     992825  MISS:      84123
cpu0_L1D RFO       ACCESS:    1319349  HIT:    1269848  MISS:      49501
cpu0_L1D PREFETCH  ACCESS:          0  HIT:          0  MISS:          0
cpu0_L1D WRITEBACK ACCESS:          0  HIT:          0  MISS:          0
cpu0_L2C TOTAL     ACCESS:     183690  HIT:      66548  MISS:     117142
cpu0_L2C LOAD      ACCESS:      84122  HIT:      14636  MISS:      69486
cpu0_L2C RFO       ACCESS:      48133  HIT:        505  MISS:      47628
cpu0_L2C PREFETCH  ACCESS:          0  HIT:          0  MISS:          0
cpu0_L2C WRITEBACK ACCESS:      49955  HIT:      49928  MISS:         27
LLC TOTAL     ACCESS:     164605  HIT:      55737  MISS:     108868
LLC LOAD      ACCESS:      69486  HIT:       8249  MISS:      61237
LLC RFO       ACCESS:      47628  HIT:          0  MISS:      47628
LLC PREFETCH  ACCESS:          0  HIT:          0  MISS:          0
LLC WRITEBACK ACCESS:      47490  HIT:      47488  MISS:          2
Heartbeat CPU 0 instructions: 60000004 cycles: 35335353 heartbeat IPC: 0.448328 cumulative IPC: 0.437919 (Simulation time: 0 hr 35 min 24 sec) 

Region of Interest Statistics
cpu0_DTLB TOTAL     ACCESS:    2146110  HIT:    2132925  MISS:      13185
cpu0_DTLB LOAD      ACCESS:    1305555  HIT:    1297964  MISS:       7591
cpu0_DTLB RFO       ACCESS:     840555  HIT:     834961  MISS:       5594
cpu0_DTLB PREFETCH  ACCESS:          0  HIT:          0  MISS:          0
cpu0_DTLB WRITEBACK ACCESS:          0  HIT:          0  MISS:          0
cpu0_ITLB TOTAL     ACCESS:     588485  HIT:     588485  MISS:          0
cpu0_ITLB LOAD      ACCESS:     588485  HIT:     588485  MISS:          0
cpu0_ITLB RFO       ACCESS:          0  HIT:          0  MISS:          0
cpu0_ITLB PREFETCH  ACCESS:          0  HIT:          0  MISS:          0
cpu0_ITLB WRITEBACK ACCESS:          0  HIT:          0  MISS:          0
cpu0_STLB TOTAL     ACCESS:      13185  HIT:      11057  MISS:       2128
cpu0_STLB LOAD      ACCESS:       7591  HIT:       6394  MISS:       1197
cpu0_STLB RFO       ACCESS:       5594  HIT:       4663  MISS:        931
cpu0_STLB PREFETCH  ACCESS:          0  HIT:          0  MISS:          0
cpu0_STLB WRITEBACK ACCESS:          0  HIT:          0  MISS:          0
cpu0_L1D TOTAL     ACCESS:    2997481  HIT:    2828612  MISS:     168869
cpu0_L1D LOAD      ACCESS:    1346182  HIT:    1241034  MISS:     105148
cpu0_L1D RFO       ACCESS:    1649172  HIT:    1587292  MISS:      61880
cpu0_L1D PREFETCH  ACCESS:          0  HIT:          0  MISS:          0
cpu0_L1D WRITEBACK ACCESS:          0  HIT:          0  MISS:          0
cpu0_L2C TOTAL     ACCESS:     229593  HIT:      83232  MISS:     146361
cpu0_L2C LOAD      ACCESS:     105146  HIT:      18355  MISS:      86791
cpu0_L2C RFO       ACCESS:      60156  HIT:        620  MISS:      59536
cpu0_L2C PREFETCH  ACCESS:          0  HIT:          0  MISS:          0
cpu0_L2C WRITEBACK ACCESS:      62450  HIT:      62417  MISS:         33
LLC TOTAL     ACCESS:     206022  HIT:      69937  MISS:     136085
LLC LOAD      ACCESS:      86791  HIT:      10245  MISS:      76546
LLC RFO       ACCESS:      59536  HIT:          0  MISS:      59536
LLC PREFETCH  ACCESS:          0  HIT:          0  MISS:          0
LLC WRITEBACK ACCESS:      59694  HIT:      59692  MISS:          2
Heartbeat CPU 0 instructions: 62000003 cycles: 39974428 heartbeat IPC: 0.43112 cumulative IPC: 0.436771 (Simulation time: 0 hr 39 min 21 sec) 

Region of Interest Statistics
cpu0_DTLB TOTAL     ACCESS:    2575180  HIT:    2559592  MISS:      15588
cpu0_DTLB LOAD      ACCESS:    1566566  HIT:    1557564  MISS:       9002
cpu0_DTLB RFO       ACCESS:    1008614  HIT:    1002028  MISS:       6586
cpu0_DTLB PREFETCH  ACCESS:          0  HIT:          0  MISS:          0
cpu0_DTLB WRITEBACK ACCESS:          0  HIT:          0  MISS:          0
cpu0_ITLB TOTAL     ACCESS:     706153  HIT:     706153  MISS:          0
cpu0_ITLB LOAD      ACCESS:     706153  HIT:     706153  MISS:          0
cpu0_ITLB RFO       ACCESS:          0  HIT:          0  MISS:          0
cpu0_ITLB PREFETCH  ACCESS:          0  HIT:          0  MISS:          0
cpu0_ITLB WRITEBACK ACCESS:          0  HIT:          0  MISS:          0
cpu0_STLB TOTAL     ACCESS:      15588  HIT:      13029  MISS:       2559
cpu0_STLB LOAD      ACCESS:       9002  HIT:       7563  MISS:       1439
cpu0_STLB RFO       ACCESS:       6586  HIT:       5466  MISS:       1120
cpu0_STLB PREFETCH  ACCESS:          0  HIT:          0  MISS:          0
cpu0_STLB WRITEBACK ACCESS:          0  HIT:          0  MISS:          0
cpu0_L1D TOTAL     ACCESS:    3596631  HIT:    3393995  MISS:     202636
cpu0_L1D LOAD      ACCESS:    1615117  HIT:    1488958  MISS:     126159
cpu0_L1D RFO       ACCESS:    1978956  HIT:    1904692  MISS:      74264
cpu0_L1D PREFETCH  ACCESS:          0  HIT:          0  MISS:          0
cpu0_L1D WRITEBACK ACCESS:          0  HIT:          0  MISS:          0
cpu0_L2C TOTAL     ACCESS:     275496  HIT:      99912  MISS:     175584
cpu0_L2C LOAD      ACCESS:     126157  HIT:      22065  MISS:     104092
cpu0_L2C RFO       ACCESS:      72185  HIT:        736  MISS:      71449
cpu0_L2C PREFETCH  ACCESS:          0  HIT:          0  MISS:          0
cpu0_L2C WRITEBACK ACCESS:      74941  HIT:      74899  MISS:         42
LLC TOTAL     ACCESS:     247036  HIT:      83726  MISS:     163310
LLC LOAD      ACCESS:     104092  HIT:      12235  MISS:      91857
LLC RFO       ACCESS:      71449  HIT:          0  MISS:      71449
LLC PREFETCH  ACCESS:          0  HIT:          0  MISS:          0
LLC WRITEBACK ACCESS:      71494  HIT:      71491  MISS:          3
Heartbeat CPU 0 instructions: 64000000 cycles: 44622937 heartbeat IPC: 0.430245 cumulative IPC: 0.435827 (Simulation time: 0 hr 43 min 16 sec) 

Region of Interest Statistics
cpu0_DTLB TOTAL     ACCESS:    3004129  HIT:    2986145  MISS:      17984
cpu0_DTLB LOAD      ACCESS:    1827436  HIT:    1817072  MISS:      10364
cpu0_DTLB RFO       ACCESS:    1176693  HIT:    1169073  MISS:       7620
cpu0_DTLB PREFETCH  ACCESS:          0  HIT:          0  MISS:          0
cpu0_DTLB WRITEBACK ACCESS:          0  HIT:          0  MISS:          0
cpu0_ITLB TOTAL     ACCESS:     823956  HIT:     823956  MISS:          0
cpu0_ITLB LOAD      ACCESS:     823956  HIT:     823956  MISS:          0
cpu0_ITLB RFO       ACCESS:          0  HIT:          0  MISS:          0
cpu0_ITLB PREFETCH  ACCESS:          0  HIT:          0  MISS:          0
cpu0_ITLB WRITEBACK ACCESS:          0  HIT:          0  MISS:          0
cpu0_STLB TOTAL     ACCESS:      17984  HIT:      15006  MISS:       2978
cpu0_STLB LOAD      ACCESS:      10364  HIT:       8688  MISS:       1676
cpu0_STLB RFO       ACCESS:       7620  HIT:       6318  MISS:       1302
cpu0_STLB PREFETCH  ACCESS:          0  HIT:          0  MISS:          0
cpu0_STLB WRITEBACK ACCESS:          0  HIT:          0  MISS:          0
cpu0_L1D TOTAL     ACCESS:    4195991  HIT:    3959643  MISS:     236348
cpu0_L1D LOAD      ACCESS:    1884126  HIT:    1736953  MISS:     147173
cpu0_L1D RFO       ACCESS:    2308888  HIT:    2222289  MISS:      86599
cpu0_L1D PREFETCH  ACCESS:          0  HIT:          0  MISS:          0
cpu0_L1D WRITEBACK ACCESS:          0  HIT:          0  MISS:          0
cpu0_L2C TOTAL     ACCESS:     321349  HIT:     116710  MISS:     204639
cpu0_L2C LOAD      ACCESS:     147171  HIT:      25936  MISS:     121235
cpu0_L2C RFO       ACCESS:      84212  HIT:        856  MISS:      83356
cpu0_L2C PREFETCH  ACCESS:          0  HIT:          0  MISS:          0
cpu0_L2C WRITEBACK ACCESS:      87390  HIT:      87344  MISS:         46
LLC TOTAL     ACCESS:     288233  HIT:      97706  MISS:     190527
LLC LOAD      ACCESS:     121235  HIT:      14069  MISS:     107166
LLC RFO       ACCESS:      83356  HIT:          0  MISS:      83356
LLC PREFETCH  ACCESS:          0  HIT:          0  MISS:          0
LLC WRITEBACK ACCESS:      83640  HIT:      83636  MISS:          4
Heartbeat CPU 0 instructions: 66000000 cycles: 49260966 heartbeat IPC: 0.431218 cumulative IPC: 0.435245 (Simulation time: 0 hr 47 min 10 sec) 

Region of Interest Statistics
cpu0_DTLB TOTAL     ACCESS:    3433331  HIT:    3412328  MISS:      21003
cpu0_DTLB LOAD      ACCESS:    2088520  HIT:    2076411  MISS:      12109
cpu0_DTLB RFO       ACCESS:    1344811  HIT:    1335917  MISS:       8894
cpu0_DTLB PREFETCH  ACCESS:          0  HIT:          0  MISS:          0
cpu0_DTLB WRITEBACK ACCESS:          0  HIT:          0  MISS:          0
cpu0_ITLB TOTAL     ACCESS:     941557  HIT:     941557  MISS:          0
cpu0_ITLB LOAD      ACCESS:     941557  HIT:     941557  MISS:          0
cpu0_ITLB RFO       ACCESS:          0  HIT:          0  MISS:          0
cpu0_ITLB PREFETCH  ACCESS:          0  HIT:          0  MISS:          0
cpu0_ITLB WRITEBACK ACCESS:          0  HIT:          0  MISS:          0
cpu0_STLB TOTAL     ACCESS:      21003  HIT:      17594  MISS:       3409
cpu0_STLB LOAD      ACCESS:      12109  HIT:      10191  MISS:       1918
cpu0_STLB RFO       ACCESS:       8894  HIT:       7403  MISS:       1491
cpu0_STLB PREFETCH  ACCESS:          0  HIT:          0  MISS:          0
cpu0_STLB WRITEBACK ACCESS:          0  HIT:          0  MISS:          0
cpu0_L1D TOTAL     ACCESS:    4795716  HIT:    4525562  MISS:     270154
cpu0_L1D LOAD      ACCESS:    2153448  HIT:    1985235  MISS:     168213
cpu0_L1D RFO       ACCESS:    2638860  HIT:    2539867  MISS:      98993
cpu0_L1D PREFETCH  ACCESS:          0  HIT:          0  MISS:          0
cpu0_L1D WRITEBACK ACCESS:          0  HIT:          0  MISS:          0
cpu0_L2C TOTAL     ACCESS:     367310  HIT:     133380  MISS:     233930
cpu0_L2C LOAD      ACCESS:     168211  HIT:      29598  MISS:     138613
cpu0_L2C RFO       ACCESS:      96247  HIT:        984  MISS:      95263
cpu0_L2C PREFETCH  ACCESS:          0  HIT:          0  MISS:          0
cpu0_L2C WRITEBACK ACCESS:      99904  HIT:      99852  MISS:         52
LLC TOTAL     ACCESS:     329331  HIT:     111588  MISS:     217743
LLC LOAD      ACCESS:     138613  HIT:      16138  MISS:     122475
LLC RFO       ACCESS:      95263  HIT:          0  MISS:      95263
LLC PREFETCH  ACCESS:          0  HIT:          0  MISS:          0
LLC WRITEBACK ACCESS:      95453  HIT:      95449  MISS:          4
Heartbeat CPU 0 instructions: 68000002 cycles: 53841833 heartbeat IPC: 0.436599 cumulative IPC: 0.435395 (Simulation time: 0 hr 51 min 5 sec) 

Region of Interest Statistics
cpu0_DTLB TOTAL     ACCESS:    3862509  HIT:    3839134  MISS:      23375
cpu0_DTLB LOAD      ACCESS:    2349606  HIT:    2336104  MISS:      13502
cpu0_DTLB RFO       ACCESS:    1512903  HIT:    1503030  MISS:       9873
cpu0_DTLB PREFETCH  ACCESS:          0  HIT:          0  MISS:          0
cpu0_DTLB WRITEBACK ACCESS:          0  HIT:          0  MISS:          0
cpu0_ITLB TOTAL     ACCESS:    1059340  HIT:    1059340  MISS:          0
cpu0_ITLB LOAD      ACCESS:    1059340  HIT:    1059340  MISS:          0
cpu0_ITLB RFO       ACCESS:          0  HIT:          0  MISS:          0
cpu0_ITLB PREFETCH  ACCESS:          0  HIT:          0  MISS:          0
cpu0_ITLB WRITEBACK ACCESS:          0  HIT:          0  MISS:          0
cpu0_STLB TOTAL     ACCESS:      23375  HIT:      19546  MISS:       3829
cpu0_STLB LOAD      ACCESS:      13502  HIT:      11346  MISS:       2156
cpu0_STLB RFO       ACCESS:       9873  HIT:       8200  MISS:       1673
cpu0_STLB PREFETCH  ACCESS:          0  HIT:          0  MISS:          0
cpu0_STLB WRITEBACK ACCESS:          0  HIT:          0  MISS:          0
cpu0_L1D TOTAL     ACCESS:    5395255  HIT:    5091345  MISS:     303910
cpu0_L1D LOAD      ACCESS:    2422631  HIT:    2233398  MISS:     189233
cpu0_L1D RFO       ACCESS:    2968796  HIT:    2857431  MISS:     111365
cpu0_L1D PREFETCH  ACCESS:          0  HIT:          0  MISS:          0
cpu0_L1D WRITEBACK ACCESS:          0  HIT:          0  MISS:          0
cpu0_L2C TOTAL     ACCESS:     413206  HIT:     150193  MISS:     263013
cpu0_L2C LOAD      ACCESS:     189231  HIT:      33449  MISS:     155782
cpu0_L2C RFO       ACCESS:     108279  HIT:       1109  MISS:     107170
cpu0_L2C PREFETCH  ACCESS:          0  HIT:          0  MISS:          0
cpu0_L2C WRITEBACK ACCESS:     112384  HIT:     112325  MISS:         59
LLC TOTAL     ACCESS:     370268  HIT:     125307  MISS:     244961
LLC LOAD      ACCESS:     155782  HIT:      17996  MISS:     137786
LLC RFO       ACCESS:     107170  HIT:          0  MISS:     107170
LLC PREFETCH  ACCESS:          0  HIT:          0  MISS:          0
LLC WRITEBACK ACCESS:     107314  HIT:     107310  MISS:          4
Heartbeat CPU 0 instructions: 70000004 cycles: 58539893 heartbeat IPC: 0.425708 cumulative IPC: 0.434407 (Simulation time: 0 hr 54 min 46 sec) 

Region of Interest Statistics
cpu0_DTLB TOTAL     ACCESS:    4291818  HIT:    4266063  MISS:      25755
cpu0_DTLB LOAD      ACCESS:    2610770  HIT:    2595909  MISS:      14861
cpu0_DTLB RFO       ACCESS:    1681048  HIT:    1670154  MISS:      10894
cpu0_DTLB PREFETCH  ACCESS:          0  HIT:          0  MISS:          0
cpu0_DTLB WRITEBACK ACCESS:          0  HIT:          0  MISS:          0
cpu0_ITLB TOTAL     ACCESS:    1176986  HIT:    1176986  MISS:          0
cpu0_ITLB LOAD      ACCESS:    1176986  HIT:    1176986  MISS:          0
cpu0_ITLB RFO       ACCESS:          0  HIT:          0  MISS:          0
cpu0_ITLB PREFETCH  ACCESS:          0  HIT:          0  MISS:          0
cpu0_ITLB WRITEBACK ACCESS:          0  HIT:          0  MISS:          0
cpu0_STLB TOTAL     ACCESS:      25755  HIT:      21498  MISS:       4257
cpu0_STLB LOAD      ACCESS:      14861  HIT:      12466  MISS:       2395
cpu0_STLB RFO       ACCESS:      10894  HIT:       9032  MISS:       1862
cpu0_STLB PREFETCH  ACCESS:          0  HIT:          0  MISS:          0
cpu0_STLB WRITEBACK ACCESS:          0  HIT:          0  MISS:          0
cpu0_L1D TOTAL     ACCESS:    5994669  HIT:    5656978  MISS:     337691
cpu0_L1D LOAD      ACCESS:    2691868  HIT:    2481589  MISS:     210279
cpu0_L1D RFO       ACCESS:    3298545  HIT:    3174812  MISS:     123733
cpu0_L1D PREFETCH  ACCESS:          0  HIT:          0  MISS:          0
cpu0_L1D WRITEBACK ACCESS:          0  HIT:          0  MISS:          0
cpu0_L2C TOTAL     ACCESS:     459145  HIT:     166655  MISS:     292490
cpu0_L2C LOAD      ACCESS:     210277  HIT:      36930  MISS:     173347
cpu0_L2C RFO       ACCESS:     120313  HIT:       1236  MISS:     119077
cpu0_L2C PREFETCH  ACCESS:          0  HIT:          0  MISS:          0
cpu0_L2C WRITEBACK ACCESS:     124876  HIT:     124812  MISS:         64
LLC TOTAL     ACCESS:     411567  HIT:     139386  MISS:     272181
LLC LOAD      ACCESS:     173347  HIT:      20248  MISS:     153099
LLC RFO       ACCESS:     119077  HIT:          0  MISS:     119077
LLC PREFETCH  ACCESS:          0  HIT:          0  MISS:          0
LLC WRITEBACK ACCESS:     119141  HIT:     119137  MISS:          4
Heartbeat CPU 0 instructions: 72000001 cycles: 62998590 heartbeat IPC: 0.448561 cumulative IPC: 0.435656 (Simulation time: 0 hr 58 min 19 sec) 

Region of Interest Statistics
cpu0_DTLB TOTAL     ACCESS:    4721092  HIT:    4692325  MISS:      28767
cpu0_DTLB LOAD      ACCESS:    2871945  HIT:    2855350  MISS:      16595
cpu0_DTLB RFO       ACCESS:    1849147  HIT:    1836975  MISS:      12172
cpu0_DTLB PREFETCH  ACCESS:          0  HIT:          0  MISS:          0
cpu0_DTLB WRITEBACK ACCESS:          0  HIT:          0  MISS:          0
cpu0_ITLB TOTAL     ACCESS:    1294592  HIT:    1294592  MISS:          0
cpu0_ITLB LOAD      ACCESS:    1294592  HIT:    1294592  MISS:          0
cpu0_ITLB RFO       ACCESS:          0  HIT:          0  MISS:          0
cpu0_ITLB PREFETCH  ACCESS:          0  HIT:          0  MISS:          0
cpu0_ITLB WRITEBACK ACCESS:          0  HIT:          0  MISS:          0
cpu0_STLB TOTAL     ACCESS:      28767  HIT:      24081  MISS:       4686
cpu0_STLB LOAD      ACCESS:      16595  HIT:      13960  MISS:       2635
cpu0_STLB RFO       ACCESS:      12172  HIT:      10121  MISS:       2051
cpu0_STLB PREFETCH  ACCESS:          0  HIT:          0  MISS:          0
cpu0_STLB WRITEBACK ACCESS:          0  HIT:          0  MISS:          0
cpu0_L1D TOTAL     ACCESS:    6594573  HIT:    6223088  MISS:     371485
cpu0_L1D LOAD      ACCESS:    2961316  HIT:    2729997  MISS:     231319
cpu0_L1D RFO       ACCESS:    3628572  HIT:    3492456  MISS:     136116
cpu0_L1D PREFETCH  ACCESS:          0  HIT:          0  MISS:          0
cpu0_L1D WRITEBACK ACCESS:          0  HIT:          0  MISS:          0
cpu0_L2C TOTAL     ACCESS:     505095  HIT:     183714  MISS:     321381
cpu0_L2C LOAD      ACCESS:     231317  HIT:      40992  MISS:     190325
cpu0_L2C RFO       ACCESS:     132351  HIT:       1367  MISS:     130984
cpu0_L2C PREFETCH  ACCESS:          0  HIT:          0  MISS:          0
cpu0_L2C WRITEBACK ACCESS:     137377  HIT:     137307  MISS:         70
LLC TOTAL     ACCESS:     452537  HIT:     153136  MISS:     299401
LLC LOAD      ACCESS:     190325  HIT:      21914  MISS:     168411
LLC RFO       ACCESS:     130984  HIT:          0  MISS:     130984
LLC PREFETCH  ACCESS:          0  HIT:          0  MISS:          0
LLC WRITEBACK ACCESS:     131226  HIT:     131221  MISS:          5
Heartbeat CPU 0 instructions: 74000002 cycles: 67803100 heartbeat IPC: 0.416276 cumulative IPC: 0.433973 (Simulation time: 1 hr 2 min 22 sec) 

Region of Interest Statistics
cpu0_DTLB TOTAL     ACCESS:    5150055  HIT:    5119164  MISS:      30891
cpu0_DTLB LOAD      ACCESS:    3132746  HIT:    3114911  MISS:      17835
cpu0_DTLB RFO       ACCESS:    2017309  HIT:    2004253  MISS:      13056
cpu0_DTLB PREFETCH  ACCESS:          0  HIT:          0  MISS:          0
cpu0_DTLB WRITEBACK ACCESS:          0  HIT:          0  MISS:          0
cpu0_ITLB TOTAL     ACCESS:    1412401  HIT:    1412401  MISS:          0
cpu0_ITLB LOAD      ACCESS:    1412401  HIT:    1412401  MISS:          0
cpu0_ITLB RFO       ACCESS:          0  HIT:          0  MISS:          0
cpu0_ITLB PREFETCH  ACCESS:          0  HIT:          0  MISS:          0
cpu0_ITLB WRITEBACK ACCESS:          0  HIT:          0  MISS:          0
cpu0_STLB TOTAL     ACCESS:      30891  HIT:      25767  MISS:       5124
cpu0_STLB LOAD      ACCESS:      17835  HIT:      14944  MISS:       2891
cpu0_STLB RFO       ACCESS:      13056  HIT:      10823  MISS:       2233
cpu0_STLB PREFETCH  ACCESS:          0  HIT:          0  MISS:          0
cpu0_STLB WRITEBACK ACCESS:          0  HIT:          0  MISS:          0
cpu0_L1D TOTAL     ACCESS:    7192662  HIT:    6787442  MISS:     405220
cpu0_L1D LOAD      ACCESS:    3229254  HIT:    2976933  MISS:     252321
cpu0_L1D RFO       ACCESS:    3958285  HIT:    3809804  MISS:     148481
cpu0_L1D PREFETCH  ACCESS:          0  HIT:          0  MISS:          0
cpu0_L1D WRITEBACK ACCESS:          0  HIT:          0  MISS:          0
cpu0_L2C TOTAL     ACCESS:     550950  HIT:     200045  MISS:     350905
cpu0_L2C LOAD      ACCESS:     252318  HIT:      44384  MISS:     207934
cpu0_L2C RFO       ACCESS:     144363  HIT:       1472  MISS:     142891
cpu0_L2C PREFETCH  ACCESS:          0  HIT:          0  MISS:          0
cpu0_L2C WRITEBACK ACCESS:     149851  HIT:     149774  MISS:         77
LLC TOTAL     ACCESS:     493970  HIT:     166343  MISS:     327627
LLC LOAD      ACCESS:     207934  HIT:      23207  MISS:     184727
LLC RFO       ACCESS:     142891  HIT:          0  MISS:     142891
LLC PREFETCH  ACCESS:          0  HIT:          0  MISS:          0
LLC WRITEBACK ACCESS:     143142  HIT:     143135  MISS:          7
Heartbeat CPU 0 instructions: 76000004 cycles: 72395443 heartbeat IPC: 0.435508 cumulative IPC: 0.43409 (Simulation time: 1 hr 6 min 7 sec) 

Region of Interest Statistics
cpu0_DTLB TOTAL     ACCESS:    5579296  HIT:    5545780  MISS:      33516
cpu0_DTLB LOAD      ACCESS:    3393871  HIT:    3374537  MISS:      19334
cpu0_DTLB RFO       ACCESS:    2185425  HIT:    2171243  MISS:      14182
cpu0_DTLB PREFETCH  ACCESS:          0  HIT:          0  MISS:          0
cpu0_DTLB WRITEBACK ACCESS:          0  HIT:          0  MISS:          0
cpu0_ITLB TOTAL     ACCESS:    1530078  HIT:    1530078  MISS:          0
cpu0_ITLB LOAD      ACCESS:    1530078  HIT:    1530078  MISS:          0
cpu0_ITLB RFO       ACCESS:          0  HIT:          0  MISS:          0
cpu0_ITLB PREFETCH  ACCESS:          0  HIT:          0  MISS:          0
cpu0_ITLB WRITEBACK ACCESS:          0  HIT:          0  MISS:          0
cpu0_STLB TOTAL     ACCESS:      33516  HIT:      27959  MISS:       5557
cpu0_STLB LOAD      ACCESS:      19334  HIT:      16199  MISS:       3135
cpu0_STLB RFO       ACCESS:      14182  HIT:      11760  MISS:       2422
cpu0_STLB PREFETCH  ACCESS:          0  HIT:          0  MISS:          0
cpu0_STLB WRITEBACK ACCESS:          0  HIT:          0  MISS:          0
cpu0_L1D TOTAL     ACCESS:    7792327  HIT:    7353305  MISS:     439022
cpu0_L1D LOAD      ACCESS:    3498489  HIT:    3225121  MISS:     273368
cpu0_L1D RFO       ACCESS:    4288282  HIT:    4127419  MISS:     160863
cpu0_L1D PREFETCH  ACCESS:          0  HIT:          0  MISS:          0
cpu0_L1D WRITEBACK ACCESS:          0  HIT:          0  MISS:          0
cpu0_L2C TOTAL     ACCESS:     596922  HIT:     216546  MISS:     380376
cpu0_L2C LOAD      ACCESS:     273365  HIT:      47874  MISS:     225491
cpu0_L2C RFO       ACCESS:     156398  HIT:       1600  MISS:     154798
cpu0_L2C PREFETCH  ACCESS:          0  HIT:          0  MISS:          0
cpu0_L2C WRITEBACK ACCESS:     162368  HIT:     162285  MISS:         83
LLC TOTAL     ACCESS:     535365  HIT:     180512  MISS:     354853
LLC LOAD      ACCESS:     225491  HIT:      25446  MISS:     200045
LLC RFO       ACCESS:     154798  HIT:          0  MISS:     154798
LLC PREFETCH  ACCESS:          0  HIT:          0  MISS:          0
LLC WRITEBACK ACCESS:     155072  HIT:     155065  MISS:          7
Heartbeat CPU 0 instructions: 78000002 cycles: 76884268 heartbeat IPC: 0.44555 cumulative IPC: 0.434889 (Simulation time: 1 hr 9 min 46 sec) 

Region of Interest Statistics
cpu0_DTLB TOTAL     ACCESS:    6008393  HIT:    5971857  MISS:      36536
cpu0_DTLB LOAD      ACCESS:    3654862  HIT:    3633795  MISS:      21067
cpu0_DTLB RFO       ACCESS:    2353531  HIT:    2338062  MISS:      15469
cpu0_DTLB PREFETCH  ACCESS:          0  HIT:          0  MISS:          0
cpu0_DTLB WRITEBACK ACCESS:          0  HIT:          0  MISS:          0
cpu0_ITLB TOTAL     ACCESS:    1647705  HIT:    1647705  MISS:          0
cpu0_ITLB LOAD      ACCESS:    1647705  HIT:    1647705  MISS:          0
cpu0_ITLB RFO       ACCESS:          0  HIT:          0  MISS:          0
cpu0_ITLB PREFETCH  ACCESS:          0  HIT:          0  MISS:          0
cpu0_ITLB WRITEBACK ACCESS:          0  HIT:          0  MISS:          0
cpu0_STLB TOTAL     ACCESS:      36536  HIT:      30561  MISS:       5975
cpu0_STLB LOAD      ACCESS:      21067  HIT:      17696  MISS:       3371
cpu0_STLB RFO       ACCESS:      15469  HIT:      12865  MISS:       2604
cpu0_STLB PREFETCH  ACCESS:          0  HIT:          0  MISS:          0
cpu0_STLB WRITEBACK ACCESS:          0  HIT:          0  MISS:          0
cpu0_L1D TOTAL     ACCESS:    8391917  HIT:    7919117  MISS:     472800
cpu0_L1D LOAD      ACCESS:    3767679  HIT:    3473272  MISS:     294407
cpu0_L1D RFO       ACCESS:    4618264  HIT:    4445024  MISS:     173240
cpu0_L1D PREFETCH  ACCESS:          0  HIT:          0  MISS:          0
cpu0_L1D WRITEBACK ACCESS:          0  HIT:          0  MISS:          0
cpu0_L2C TOTAL     ACCESS:     642837  HIT:     233175  MISS:     409662
cpu0_L2C LOAD      ACCESS:     294404  HIT:      51542  MISS:     242862
cpu0_L2C RFO       ACCESS:     168429  HIT:       1724  MISS:     166705
cpu0_L2C PREFETCH  ACCESS:          0  HIT:          0  MISS:          0
cpu0_L2C WRITEBACK ACCESS:     174851  HIT:     174760  MISS:         91
LLC TOTAL     ACCESS:     576446  HIT:     194376  MISS:     382070
LLC LOAD      ACCESS:     242862  HIT:      27508  MISS:     215354
LLC RFO       ACCESS:     166705  HIT:          0  MISS:     166705
LLC PREFETCH  ACCESS:          0  HIT:          0  MISS:          0
LLC WRITEBACK ACCESS:     166875  HIT:     166867  MISS:          8
Heartbeat CPU 0 instructions: 80000004 cycles: 81456238 heartbeat IPC: 0.437449 cumulative IPC: 0.435059 (Simulation time: 1 hr 13 min 33 sec) 

Region of Interest Statistics
cpu0_DTLB TOTAL     ACCESS:    6437731  HIT:    6399293  MISS:      38438
cpu0_DTLB LOAD      ACCESS:    3916026  HIT:    3893852  MISS:      22174
cpu0_DTLB RFO       ACCESS:    2521705  HIT:    2505441  MISS:      16264
cpu0_DTLB PREFETCH  ACCESS:          0  HIT:          0  MISS:          0
cpu0_DTLB WRITEBACK ACCESS:          0  HIT:          0  MISS:          0
cpu0_ITLB TOTAL     ACCESS:    1765655  HIT:    1765655  MISS:          0
cpu0_ITLB LOAD      ACCESS:    1765655  HIT:    1765655  MISS:          0
cpu0_ITLB RFO       ACCESS:          0  HIT:          0  MISS:          0
cpu0_ITLB PREFETCH  ACCESS:          0  HIT:          0  MISS:          0
cpu0_ITLB WRITEBACK ACCESS:          0  HIT:          0  MISS:          0
cpu0_STLB TOTAL     ACCESS:      38438  HIT:      32032  MISS:       6406
cpu0_STLB LOAD      ACCESS:      22174  HIT:      18561  MISS:       3613
cpu0_STLB RFO       ACCESS:      16264  HIT:      13471  MISS:       2793
cpu0_STLB PREFETCH  ACCESS:          0  HIT:          0  MISS:          0
cpu0_STLB WRITEBACK ACCESS:          0  HIT:          0  MISS:          0
cpu0_L1D TOTAL     ACCESS:    8991487  HIT:    8484934  MISS:     506553
cpu0_L1D LOAD      ACCESS:    4036985  HIT:    3721554  MISS:     315431
cpu0_L1D RFO       ACCESS:    4948097  HIT:    4762498  MISS:     185599
cpu0_L1D PREFETCH  ACCESS:          0  HIT:          0  MISS:          0
cpu0_L1D WRITEBACK ACCESS:          0  HIT:          0  MISS:          0
cpu0_L2C TOTAL     ACCESS:     688733  HIT:     249776  MISS:     438957
cpu0_L2C LOAD      ACCESS:     315428  HIT:      55184  MISS:     260244
cpu0_L2C RFO       ACCESS:     180457  HIT:       1845  MISS:     178612
cpu0_L2C PREFETCH  ACCESS:          0  HIT:          0  MISS:          0
cpu0_L2C WRITEBACK ACCESS:     187325  HIT:     187228  MISS:         97
LLC TOTAL     ACCESS:     617913  HIT:     208626  MISS:     409287
LLC LOAD      ACCESS:     260244  HIT:      29581  MISS:     230663
LLC RFO       ACCESS:     178612  HIT:          0  MISS:     178612
LLC PREFETCH  ACCESS:          0  HIT:          0  MISS:          0
LLC WRITEBACK ACCESS:     179053  HIT:     179044  MISS:          9
Heartbeat CPU 0 instructions: 82000001 cycles: 86049166 heartbeat IPC: 0.435451 cumulative IPC: 0.435084 (Simulation time: 1 hr 17 min 28 sec) 

Region of Interest Statistics
cpu0_DTLB TOTAL     ACCESS:    6866779  HIT:    6825441  MISS:      41338
cpu0_DTLB LOAD      ACCESS:    4177019  HIT:    4153173  MISS:      23846
cpu0_DTLB RFO       ACCESS:    2689760  HIT:    2672268  MISS:      17492
cpu0_DTLB PREFETCH  ACCESS:          0  HIT:          0  MISS:          0
cpu0_DTLB WRITEBACK ACCESS:          0  HIT:          0  MISS:          0
cpu0_ITLB TOTAL     ACCESS:    1883350  HIT:    1883350  MISS:          0
cpu0_ITLB LOAD      ACCESS:    1883350  HIT:    1883350  MISS:          0
cpu0_ITLB RFO       ACCESS:          0  HIT:          0  MISS:          0
cpu0_ITLB PREFETCH  ACCESS:          0  HIT:          0  MISS:          0
cpu0_ITLB WRITEBACK ACCESS:          0  HIT:          0  MISS:          0
cpu0_STLB TOTAL     ACCESS:      41338  HIT:      34502  MISS:       6836
cpu0_STLB LOAD      ACCESS:      23846  HIT:      19992  MISS:       3854
cpu0_STLB RFO       ACCESS:      17492  HIT:      14510  MISS:       2982
cpu0_STLB PREFETCH  ACCESS:          0  HIT:          0  MISS:          0
cpu0_STLB WRITEBACK ACCESS:          0  HIT:          0  MISS:          0
cpu0_L1D TOTAL     ACCESS:    9590975  HIT:    9050659  MISS:     540316
cpu0_L1D LOAD      ACCESS:    4306100  HIT:    3969654  MISS:     336446
cpu0_L1D RFO       ACCESS:    5278041  HIT:    5080067  MISS:     197974
cpu0_L1D PREFETCH  ACCESS:          0  HIT:          0  MISS:          0
cpu0_L1D WRITEBACK ACCESS:          0  HIT:          0  MISS:          0
cpu0_L2C TOTAL     ACCESS:     734633  HIT:     266337  MISS:     468296
cpu0_L2C LOAD      ACCESS:     336443  HIT:      58781  MISS:     277662
cpu0_L2C RFO       ACCESS:     192496  HIT:       1970  MISS:     190526
cpu0_L2C PREFETCH  ACCESS:          0  HIT:          0  MISS:          0
cpu0_L2C WRITEBACK ACCESS:     199798  HIT:     199694  MISS:        104
LLC TOTAL     ACCESS:     658665  HIT:     222153  MISS:     436512
LLC LOAD      ACCESS:     277662  HIT:      31688  MISS:     245974
LLC RFO       ACCESS:     190526  HIT:          0  MISS:     190526
LLC PREFETCH  ACCESS:          0  HIT:          0  MISS:          0
LLC WRITEBACK ACCESS:     190473  HIT:     190464  MISS:          9
Heartbeat CPU 0 instructions: 84000001 cycles: 90685105 heartbeat IPC: 0.431412 cumulative IPC: 0.434866 (Simulation time: 1 hr 21 min 24 sec) 

Region of Interest Statistics
cpu0_DTLB TOTAL     ACCESS:    7295989  HIT:    7251657  MISS:      44332
cpu0_DTLB LOAD      ACCESS:    4438107  HIT:    4412531  MISS:      25576
cpu0_DTLB RFO       ACCESS:    2857882  HIT:    2839126  MISS:      18756
cpu0_DTLB PREFETCH  ACCESS:          0  HIT:          0  MISS:          0
cpu0_DTLB WRITEBACK ACCESS:          0  HIT:          0  MISS:          0
cpu0_ITLB TOTAL     ACCESS:    2000846  HIT:    2000846  MISS:          0
cpu0_ITLB LOAD      ACCESS:    2000846  HIT:    2000846  MISS:          0
cpu0_ITLB RFO       ACCESS:          0  HIT:          0  MISS:          0
cpu0_ITLB PREFETCH  ACCESS:          0  HIT:          0  MISS:          0
cpu0_ITLB WRITEBACK ACCESS:          0  HIT:          0  MISS:          0
cpu0_STLB TOTAL     ACCESS:      44332  HIT:      37078  MISS:       7254
cpu0_STLB LOAD      ACCESS:      25576  HIT:      21486  MISS:       4090
cpu0_STLB RFO       ACCESS:      18756  HIT:      15592  MISS:       3164
cpu0_STLB PREFETCH  ACCESS:          0  HIT:          0  MISS:          0
cpu0_STLB WRITEBACK ACCESS:          0  HIT:          0  MISS:          0
cpu0_L1D TOTAL     ACCESS:   10190597  HIT:    9616520  MISS:     574077
cpu0_L1D LOAD      ACCESS:    4575349  HIT:    4217870  MISS:     357479
cpu0_L1D RFO       ACCESS:    5607996  HIT:    5397655  MISS:     210341
cpu0_L1D PREFETCH  ACCESS:          0  HIT:          0  MISS:          0
cpu0_L1D WRITEBACK ACCESS:          0  HIT:          0  MISS:          0
cpu0_L2C TOTAL     ACCESS:     780543  HIT:     282876  MISS:     497667
cpu0_L2C LOAD      ACCESS:     357475  HIT:      62357  MISS:     295118
cpu0_L2C RFO       ACCESS:     204528  HIT:       2095  MISS:     202433
cpu0_L2C PREFETCH  ACCESS:          0  HIT:          0  MISS:          0
cpu0_L2C WRITEBACK ACCESS:     212283  HIT:     212171  MISS:        112
LLC TOTAL     ACCESS:     700269  HIT:     236540  MISS:     463729
LLC LOAD      ACCESS:     295118  HIT:      33835  MISS:     261283
LLC RFO       ACCESS:     202433  HIT:          0  MISS:     202433
LLC PREFETCH  ACCESS:          0  HIT:          0  MISS:          0
LLC WRITEBACK ACCESS:     202714  HIT:     202704  MISS:         10
Heartbeat CPU 0 instructions: 86000003 cycles: 95202436 heartbeat IPC: 0.44274 cumulative IPC: 0.435296 (Simulation time: 1 hr 25 min 17 sec) 

Region of Interest Statistics
cpu0_DTLB TOTAL     ACCESS:    7725228  HIT:    7679136  MISS:      46092
cpu0_DTLB LOAD      ACCESS:    4699218  HIT:    4672614  MISS:      26604
cpu0_DTLB RFO       ACCESS:    3026010  HIT:    3006522  MISS:      19488
cpu0_DTLB PREFETCH  ACCESS:          0  HIT:          0  MISS:          0
cpu0_DTLB WRITEBACK ACCESS:          0  HIT:          0  MISS:          0
cpu0_ITLB TOTAL     ACCESS:    2118904  HIT:    2118904  MISS:          0
cpu0_ITLB LOAD      ACCESS:    2118904  HIT:    2118904  MISS:          0
cpu0_ITLB RFO       ACCESS:          0  HIT:          0  MISS:          0
cpu0_ITLB PREFETCH  ACCESS:          0  HIT:          0  MISS:          0
cpu0_ITLB WRITEBACK ACCESS:          0  HIT:          0  MISS:          0
cpu0_STLB TOTAL     ACCESS:      46092  HIT:      38407  MISS:       7685
cpu0_STLB LOAD      ACCESS:      26604  HIT:      22272  MISS:       4332
cpu0_STLB RFO       ACCESS:      19488  HIT:      16135  MISS:       3353
cpu0_STLB PREFETCH  ACCESS:          0  HIT:          0  MISS:          0
cpu0_STLB WRITEBACK ACCESS:          0  HIT:          0  MISS:          0
cpu0_L1D TOTAL     ACCESS:   10790181  HIT:   10182296  MISS:     607885
cpu0_L1D LOAD      ACCESS:    4844542  HIT:    4466017  MISS:     378525
cpu0_L1D RFO       ACCESS:    5937957  HIT:    5715226  MISS:     222731
cpu0_L1D PREFETCH  ACCESS:          0  HIT:          0  MISS:          0
cpu0_L1D WRITEBACK ACCESS:          0  HIT:          0  MISS:          0
cpu0_L2C TOTAL     ACCESS:     826496  HIT:     299294  MISS:     527202
cpu0_L2C LOAD      ACCESS:     378521  HIT:      65781  MISS:     312740
cpu0_L2C RFO       ACCESS:     216563  HIT:       2223  MISS:     214340
cpu0_L2C PREFETCH  ACCESS:          0  HIT:          0  MISS:          0
cpu0_L2C WRITEBACK ACCESS:     224783  HIT:     224665  MISS:        118
LLC TOTAL     ACCESS:     741585  HIT:     250640  MISS:     490945
LLC LOAD      ACCESS:     312740  HIT:      36148  MISS:     276592
LLC RFO       ACCESS:     214340  HIT:          0  MISS:     214340
LLC PREFETCH  ACCESS:          0  HIT:          0  MISS:          0
LLC WRITEBACK ACCESS:     214501  HIT:     214491  MISS:         10
Heartbeat CPU 0 instructions: 88000000 cycles: 99795804 heartbeat IPC: 0.43541 cumulative IPC: 0.435302 (Simulation time: 1 hr 29 min 14 sec) 

Region of Interest Statistics
cpu0_DTLB TOTAL     ACCESS:    8154502  HIT:    8105379  MISS:      49123
cpu0_DTLB LOAD      ACCESS:    4960371  HIT:    4932023  MISS:      28348
cpu0_DTLB RFO       ACCESS:    3194131  HIT:    3173356  MISS:      20775
cpu0_DTLB PREFETCH  ACCESS:          0  HIT:          0  MISS:          0
cpu0_DTLB WRITEBACK ACCESS:          0  HIT:          0  MISS:          0
cpu0_ITLB TOTAL     ACCESS:    2236470  HIT:    2236470  MISS:          0
cpu0_ITLB LOAD      ACCESS:    2236470  HIT:    2236470  MISS:          0
cpu0_ITLB RFO       ACCESS:          0  HIT:          0  MISS:          0
cpu0_ITLB PREFETCH  ACCESS:          0  HIT:          0  MISS:          0
cpu0_ITLB WRITEBACK ACCESS:          0  HIT:          0  MISS:          0
cpu0_STLB TOTAL     ACCESS:      49123  HIT:      41020  MISS:       8103
cpu0_STLB LOAD      ACCESS:      28348  HIT:      23780  MISS:       4568
cpu0_STLB RFO       ACCESS:      20775  HIT:      17240  MISS:       3535
cpu0_STLB PREFETCH  ACCESS:          0  HIT:          0  MISS:          0
cpu0_STLB WRITEBACK ACCESS:          0  HIT:          0  MISS:          0
cpu0_L1D TOTAL     ACCESS:   11389976  HIT:   10748348  MISS:     641628
cpu0_L1D LOAD      ACCESS:    5113922  HIT:    4714381  MISS:     399541
cpu0_L1D RFO       ACCESS:    6267954  HIT:    6032859  MISS:     235095
cpu0_L1D PREFETCH  ACCESS:          0  HIT:          0  MISS:          0
cpu0_L1D WRITEBACK ACCESS:          0  HIT:          0  MISS:          0
cpu0_L2C TOTAL     ACCESS:     872389  HIT:     315864  MISS:     556525
cpu0_L2C LOAD      ACCESS:     399537  HIT:      69386  MISS:     330151
cpu0_L2C RFO       ACCESS:     228596  HIT:       2349  MISS:     226247
cpu0_L2C PREFETCH  ACCESS:          0  HIT:          0  MISS:          0
cpu0_L2C WRITEBACK ACCESS:     237264  HIT:     237141  MISS:        123
LLC TOTAL     ACCESS:     782790  HIT:     264628  MISS:     518162
LLC LOAD      ACCESS:     330151  HIT:      38250  MISS:     291901
LLC RFO       ACCESS:     226247  HIT:          0  MISS:     226247
LLC PREFETCH  ACCESS:          0  HIT:          0  MISS:          0
LLC WRITEBACK ACCESS:     226388  HIT:     226377  MISS:         11
Heartbeat CPU 0 instructions: 90000000 cycles: 104495322 heartbeat IPC: 0.425576 cumulative IPC: 0.434805 (Simulation time: 1 hr 33 min 17 sec) 

Region of Interest Statistics
cpu0_DTLB TOTAL     ACCESS:    8583747  HIT:    8531576  MISS:      52171
cpu0_DTLB LOAD      ACCESS:    5221481  HIT:    5191380  MISS:      30101
cpu0_DTLB RFO       ACCESS:    3362266  HIT:    3340196  MISS:      22070
cpu0_DTLB PREFETCH  ACCESS:          0  HIT:          0  MISS:          0
cpu0_DTLB WRITEBACK ACCESS:          0  HIT:          0  MISS:          0
cpu0_ITLB TOTAL     ACCESS:    2353961  HIT:    2353961  MISS:          0
cpu0_ITLB LOAD      ACCESS:    2353961  HIT:    2353961  MISS:          0
cpu0_ITLB RFO       ACCESS:          0  HIT:          0  MISS:          0
cpu0_ITLB PREFETCH  ACCESS:          0  HIT:          0  MISS:          0
cpu0_ITLB WRITEBACK ACCESS:          0  HIT:          0  MISS:          0
cpu0_STLB TOTAL     ACCESS:      52171  HIT:      43637  MISS:       8534
cpu0_STLB LOAD      ACCESS:      30101  HIT:      25291  MISS:       4810
cpu0_STLB RFO       ACCESS:      22070  HIT:      18346  MISS:       3724
cpu0_STLB PREFETCH  ACCESS:          0  HIT:          0  MISS:          0
cpu0_STLB WRITEBACK ACCESS:          0  HIT:          0  MISS:          0
cpu0_L1D TOTAL     ACCESS:   11989671  HIT:   11314233  MISS:     675438
cpu0_L1D LOAD      ACCESS:    5383237  HIT:    4962648  MISS:     420589
cpu0_L1D RFO       ACCESS:    6597903  HIT:    6350419  MISS:     247484
cpu0_L1D PREFETCH  ACCESS:          0  HIT:          0  MISS:          0
cpu0_L1D WRITEBACK ACCESS:          0  HIT:          0  MISS:          0
cpu0_L2C TOTAL     ACCESS:     918353  HIT:     332450  MISS:     585903
cpu0_L2C LOAD      ACCESS:     420585  HIT:      72969  MISS:     347616
cpu0_L2C RFO       ACCESS:     240634  HIT:       2480  MISS:     238154
cpu0_L2C PREFETCH  ACCESS:          0  HIT:          0  MISS:          0
cpu0_L2C WRITEBACK ACCESS:     249769  HIT:     249640  MISS:        129
LLC TOTAL     ACCESS:     824033  HIT:     278654  MISS:     545379
LLC LOAD      ACCESS:     347616  HIT:      40405  MISS:     307211
LLC RFO       ACCESS:     238154  HIT:          0  MISS:     238154
LLC PREFETCH  ACCESS:          0  HIT:          0  MISS:          0
LLC WRITEBACK ACCESS:     238259  HIT:     238248  MISS:         11
Heartbeat CPU 0 instructions: 92000002 cycles: 108963725 heartbeat IPC: 0.447588 cumulative IPC: 0.435397 (Simulation time: 1 hr 37 min 9 sec) 

Region of Interest Statistics
cpu0_DTLB TOTAL     ACCESS:    9012916  HIT:    8958992  MISS:      53924
cpu0_DTLB LOAD      ACCESS:    5482508  HIT:    5451383  MISS:      31125
cpu0_DTLB RFO       ACCESS:    3530408  HIT:    3507609  MISS:      22799
cpu0_DTLB PREFETCH  ACCESS:          0  HIT:          0  MISS:          0
cpu0_DTLB WRITEBACK ACCESS:          0  HIT:          0  MISS:          0
cpu0_ITLB TOTAL     ACCESS:    2472004  HIT:    2472004  MISS:          0
cpu0_ITLB LOAD      ACCESS:    2472004  HIT:    2472004  MISS:          0
cpu0_ITLB RFO       ACCESS:          0  HIT:          0  MISS:          0
cpu0_ITLB PREFETCH  ACCESS:          0  HIT:          0  MISS:          0
cpu0_ITLB WRITEBACK ACCESS:          0  HIT:          0  MISS:          0
cpu0_STLB TOTAL     ACCESS:      53924  HIT:      44972  MISS:       8952
cpu0_STLB LOAD      ACCESS:      31125  HIT:      26079  MISS:       5046
cpu0_STLB RFO       ACCESS:      22799  HIT:      18893  MISS:       3906
cpu0_STLB PREFETCH  ACCESS:          0  HIT:          0  MISS:          0
cpu0_STLB WRITEBACK ACCESS:          0  HIT:          0  MISS:          0
cpu0_L1D TOTAL     ACCESS:   12589274  HIT:   11880087  MISS:     709187
cpu0_L1D LOAD      ACCESS:    5652465  HIT:    5210855  MISS:     441610
cpu0_L1D RFO       ACCESS:    6927861  HIT:    6668011  MISS:     259850
cpu0_L1D PREFETCH  ACCESS:          0  HIT:          0  MISS:          0
cpu0_L1D WRITEBACK ACCESS:          0  HIT:          0  MISS:          0
cpu0_L2C TOTAL     ACCESS:     964237  HIT:     349020  MISS:     615217
cpu0_L2C LOAD      ACCESS:     441606  HIT:      76595  MISS:     365011
cpu0_L2C RFO       ACCESS:     252656  HIT:       2595  MISS:     250061
cpu0_L2C PREFETCH  ACCESS:          0  HIT:          0  MISS:          0
cpu0_L2C WRITEBACK ACCESS:     262248  HIT:     262111  MISS:        137
LLC TOTAL     ACCESS:     865314  HIT:     292710  MISS:     572604
LLC LOAD      ACCESS:     365011  HIT:      42487  MISS:     322524
LLC RFO       ACCESS:     250061  HIT:          0  MISS:     250061
LLC PREFETCH  ACCESS:          0  HIT:          0  MISS:          0
LLC WRITEBACK ACCESS:     250234  HIT:     250222  MISS:         12
Heartbeat CPU 0 instructions: 94000001 cycles: 113625359 heartbeat IPC: 0.429034 cumulative IPC: 0.435104 (Simulation time: 1 hr 41 min 3 sec) 

Region of Interest Statistics
cpu0_DTLB TOTAL     ACCESS:    9442003  HIT:    9385061  MISS:      56942
cpu0_DTLB LOAD      ACCESS:    5743556  HIT:    5710687  MISS:      32869
cpu0_DTLB RFO       ACCESS:    3698447  HIT:    3674374  MISS:      24073
cpu0_DTLB PREFETCH  ACCESS:          0  HIT:          0  MISS:          0
cpu0_DTLB WRITEBACK ACCESS:          0  HIT:          0  MISS:          0
cpu0_ITLB TOTAL     ACCESS:    2589608  HIT:    2589608  MISS:          0
cpu0_ITLB LOAD      ACCESS:    2589608  HIT:    2589608  MISS:          0
cpu0_ITLB RFO       ACCESS:          0  HIT:          0  MISS:          0
cpu0_ITLB PREFETCH  ACCESS:          0  HIT:          0  MISS:          0
cpu0_ITLB WRITEBACK ACCESS:          0  HIT:          0  MISS:          0
cpu0_STLB TOTAL     ACCESS:      56942  HIT:      47559  MISS:       9383
cpu0_STLB LOAD      ACCESS:      32869  HIT:      27581  MISS:       5288
cpu0_STLB RFO       ACCESS:      24073  HIT:      19978  MISS:       4095
cpu0_STLB PREFETCH  ACCESS:          0  HIT:          0  MISS:          0
cpu0_STLB WRITEBACK ACCESS:          0  HIT:          0  MISS:          0
cpu0_L1D TOTAL     ACCESS:   13188839  HIT:   12445852  MISS:     742987
cpu0_L1D LOAD      ACCESS:    5921616  HIT:    5458962  MISS:     462654
cpu0_L1D RFO       ACCESS:    7257844  HIT:    6985611  MISS:     272233
cpu0_L1D PREFETCH  ACCESS:          0  HIT:          0  MISS:          0
cpu0_L1D WRITEBACK ACCESS:          0  HIT:          0  MISS:          0
cpu0_L2C TOTAL     ACCESS:    1010188  HIT:     365448  MISS:     644740
cpu0_L2C LOAD      ACCESS:     462650  HIT:      80030  MISS:     382620
cpu0_L2C RFO       ACCESS:     264685  HIT:       2717  MISS:     261968
cpu0_L2C PREFETCH  ACCESS:          0  HIT:          0  MISS:          0
cpu0_L2C WRITEBACK ACCESS:     274753  HIT:     274610  MISS:        143
LLC TOTAL     ACCESS:     906812  HIT:     306988  MISS:     599824
LLC LOAD      ACCESS:     382620  HIT:      44785  MISS:     337835
LLC RFO       ACCESS:     261968  HIT:          0  MISS:     261968
LLC PREFETCH  ACCESS:          0  HIT:          0  MISS:          0
LLC WRITEBACK ACCESS:     262215  HIT:     262202  MISS:         13
Heartbeat CPU 0 instructions: 96000004 cycles: 118075652 heartbeat IPC: 0.449409 cumulative IPC: 0.435707 (Simulation time: 1 hr 44 min 59 sec) 

Region of Interest Statistics
cpu0_DTLB TOTAL     ACCESS:    9871182  HIT:    9811228  MISS:      59954
cpu0_DTLB LOAD      ACCESS:    6004645  HIT:    5970040  MISS:      34605
cpu0_DTLB RFO       ACCESS:    3866537  HIT:    3841188  MISS:      25349
cpu0_DTLB PREFETCH  ACCESS:          0  HIT:          0  MISS:          0
cpu0_DTLB WRITEBACK ACCESS:          0  HIT:          0  MISS:          0
cpu0_ITLB TOTAL     ACCESS:    2707209  HIT:    2707209  MISS:          0
cpu0_ITLB LOAD      ACCESS:    2707209  HIT:    2707209  MISS:          0
cpu0_ITLB RFO       ACCESS:          0  HIT:          0  MISS:          0
cpu0_ITLB PREFETCH  ACCESS:          0  HIT:          0  MISS:          0
cpu0_ITLB WRITEBACK ACCESS:          0  HIT:          0  MISS:          0
cpu0_STLB TOTAL     ACCESS:      59954  HIT:      50141  MISS:       9813
cpu0_STLB LOAD      ACCESS:      34605  HIT:      29076  MISS:       5529
cpu0_STLB RFO       ACCESS:      25349  HIT:      21065  MISS:       4284
cpu0_STLB PREFETCH  ACCESS:          0  HIT:          0  MISS:          0
cpu0_STLB WRITEBACK ACCESS:          0  HIT:          0  MISS:          0
cpu0_L1D TOTAL     ACCESS:   13788592  HIT:   13011787  MISS:     776805
cpu0_L1D LOAD      ACCESS:    6190941  HIT:    5707240  MISS:     483701
cpu0_L1D RFO       ACCESS:    7587843  HIT:    7303211  MISS:     284632
cpu0_L1D PREFETCH  ACCESS:          0  HIT:          0  MISS:          0
cpu0_L1D WRITEBACK ACCESS:          0  HIT:          0  MISS:          0
cpu0_L2C TOTAL     ACCESS:    1056150  HIT:     381944  MISS:     674206
cpu0_L2C LOAD      ACCESS:     483697  HIT:      83524  MISS:     400173
cpu0_L2C RFO       ACCESS:     276720  HIT:       2845  MISS:     273875
cpu0_L2C PREFETCH  ACCESS:          0  HIT:          0  MISS:          0
cpu0_L2C WRITEBACK ACCESS:     287261  HIT:     287112  MISS:        149
LLC TOTAL     ACCESS:     948300  HIT:     321260  MISS:     627040
LLC LOAD      ACCESS:     400173  HIT:      47029  MISS:     353144
LLC RFO       ACCESS:     273875  HIT:          0  MISS:     273875
LLC PREFETCH  ACCESS:          0  HIT:          0  MISS:          0
LLC WRITEBACK ACCESS:     274243  HIT:     274230  MISS:         13
Heartbeat CPU 0 instructions: 98000001 cycles: 122656675 heartbeat IPC: 0.436583 cumulative IPC: 0.435743 (Simulation time: 1 hr 48 min 48 sec) 

Region of Interest Statistics
cpu0_DTLB TOTAL     ACCESS:   10300390  HIT:   10238697  MISS:      61693
cpu0_DTLB LOAD      ACCESS:    6265750  HIT:    6230130  MISS:      35620
cpu0_DTLB RFO       ACCESS:    4034640  HIT:    4008567  MISS:      26073
cpu0_DTLB PREFETCH  ACCESS:          0  HIT:          0  MISS:          0
cpu0_DTLB WRITEBACK ACCESS:          0  HIT:          0  MISS:          0
cpu0_ITLB TOTAL     ACCESS:    2825087  HIT:    2825087  MISS:          0
cpu0_ITLB LOAD      ACCESS:    2825087  HIT:    2825087  MISS:          0
cpu0_ITLB RFO       ACCESS:          0  HIT:          0  MISS:          0
cpu0_ITLB PREFETCH  ACCESS:          0  HIT:          0  MISS:          0
cpu0_ITLB WRITEBACK ACCESS:          0  HIT:          0  MISS:          0
cpu0_STLB TOTAL     ACCESS:      61693  HIT:      51462  MISS:      10231
cpu0_STLB LOAD      ACCESS:      35620  HIT:      29855  MISS:       5765
cpu0_STLB RFO       ACCESS:      26073  HIT:      21607  MISS:       4466
cpu0_STLB PREFETCH  ACCESS:          0  HIT:          0  MISS:          0
cpu0_STLB WRITEBACK ACCESS:          0  HIT:          0  MISS:          0
cpu0_L1D TOTAL     ACCESS:   14387930  HIT:   13577381  MISS:     810549
cpu0_L1D LOAD      ACCESS:    6460004  HIT:    5955291  MISS:     504713
cpu0_L1D RFO       ACCESS:    7917700  HIT:    7620698  MISS:     297002
cpu0_L1D PREFETCH  ACCESS:          0  HIT:          0  MISS:          0
cpu0_L1D WRITEBACK ACCESS:          0  HIT:          0  MISS:          0
cpu0_L2C TOTAL     ACCESS:    1102037  HIT:     398543  MISS:     703494
cpu0_L2C LOAD      ACCESS:     504710  HIT:      87163  MISS:     417547
cpu0_L2C RFO       ACCESS:     288747  HIT:       2965  MISS:     285782
cpu0_L2C PREFETCH  ACCESS:          0  HIT:          0  MISS:          0
cpu0_L2C WRITEBACK ACCESS:     299746  HIT:     299591  MISS:        155
LLC TOTAL     ACCESS:     989385  HIT:     335128  MISS:     654257
LLC LOAD      ACCESS:     417547  HIT:      49094  MISS:     368453
LLC RFO       ACCESS:     285782  HIT:          0  MISS:     285782
LLC PREFETCH  ACCESS:          0  HIT:          0  MISS:          0
LLC WRITEBACK ACCESS:     286046  HIT:     286033  MISS:         13
Heartbeat CPU 0 instructions: 100000001 cycles: 127303424 heartbeat IPC: 0.430408 cumulative IPC: 0.435527 (Simulation time: 1 hr 52 min 38 sec) 

Region of Interest Statistics
cpu0_DTLB TOTAL     ACCESS:   10729575  HIT:   10664866  MISS:      64709
cpu0_DTLB LOAD      ACCESS:    6526850  HIT:    6489493  MISS:      37357
cpu0_DTLB RFO       ACCESS:    4202725  HIT:    4175373  MISS:      27352
cpu0_DTLB PREFETCH  ACCESS:          0  HIT:          0  MISS:          0
cpu0_DTLB WRITEBACK ACCESS:          0  HIT:          0  MISS:          0
cpu0_ITLB TOTAL     ACCESS:    2942609  HIT:    2942609  MISS:          0
cpu0_ITLB LOAD      ACCESS:    2942609  HIT:    2942609  MISS:          0
cpu0_ITLB RFO       ACCESS:          0  HIT:          0  MISS:          0
cpu0_ITLB PREFETCH  ACCESS:          0  HIT:          0  MISS:          0
cpu0_ITLB WRITEBACK ACCESS:          0  HIT:          0  MISS:          0
cpu0_STLB TOTAL     ACCESS:      64709  HIT:      54047  MISS:      10662
cpu0_STLB LOAD      ACCESS:      37357  HIT:      31350  MISS:       6007
cpu0_STLB RFO       ACCESS:      27352  HIT:      22697  MISS:       4655
cpu0_STLB PREFETCH  ACCESS:          0  HIT:          0  MISS:          0
cpu0_STLB WRITEBACK ACCESS:          0  HIT:          0  MISS:          0
cpu0_L1D TOTAL     ACCESS:   14987540  HIT:   14143213  MISS:     844327
cpu0_L1D LOAD      ACCESS:    6729218  HIT:    6203469  MISS:     525749
cpu0_L1D RFO       ACCESS:    8247666  HIT:    7938294  MISS:     309372
cpu0_L1D PREFETCH  ACCESS:          0  HIT:          0  MISS:          0
cpu0_L1D WRITEBACK ACCESS:          0  HIT:          0  MISS:          0
cpu0_L2C TOTAL     ACCESS:    1147960  HIT:     415311  MISS:     732649
cpu0_L2C LOAD      ACCESS:     525745  HIT:      90959  MISS:     434786
cpu0_L2C RFO       ACCESS:     300780  HIT:       3090  MISS:     297690
cpu0_L2C PREFETCH  ACCESS:          0  HIT:          0  MISS:          0
cpu0_L2C WRITEBACK ACCESS:     312229  HIT:     312066  MISS:        163
LLC TOTAL     ACCESS:    1030343  HIT:     348869  MISS:     681474
LLC LOAD      ACCESS:     434786  HIT:      51024  MISS:     383762
LLC RFO       ACCESS:     297690  HIT:          0  MISS:     297690
LLC PREFETCH  ACCESS:          0  HIT:          0  MISS:          0
LLC WRITEBACK ACCESS:     297857  HIT:     297844  MISS:         13
Heartbeat CPU 0 instructions: 102000002 cycles: 131958435 heartbeat IPC: 0.429645 cumulative IPC: 0.435298 (Simulation time: 1 hr 56 min 35 sec) 

Region of Interest Statistics
cpu0_DTLB TOTAL     ACCESS:   11158809  HIT:   11091100  MISS:      67709
cpu0_DTLB LOAD      ACCESS:    6787994  HIT:    6748910  MISS:      39084
cpu0_DTLB RFO       ACCESS:    4370815  HIT:    4342190  MISS:      28625
cpu0_DTLB PREFETCH  ACCESS:          0  HIT:          0  MISS:          0
cpu0_DTLB WRITEBACK ACCESS:          0  HIT:          0  MISS:          0
cpu0_ITLB TOTAL     ACCESS:    3060167  HIT:    3060167  MISS:          0
cpu0_ITLB LOAD      ACCESS:    3060167  HIT:    3060167  MISS:          0
cpu0_ITLB RFO       ACCESS:          0  HIT:          0  MISS:          0
cpu0_ITLB PREFETCH  ACCESS:          0  HIT:          0  MISS:          0
cpu0_ITLB WRITEBACK ACCESS:          0  HIT:          0  MISS:          0
cpu0_STLB TOTAL     ACCESS:      67709  HIT:      56629  MISS:      11080
cpu0_STLB LOAD      ACCESS:      39084  HIT:      32841  MISS:       6243
cpu0_STLB RFO       ACCESS:      28625  HIT:      23788  MISS:       4837
cpu0_STLB PREFETCH  ACCESS:          0  HIT:          0  MISS:          0
cpu0_STLB WRITEBACK ACCESS:          0  HIT:          0  MISS:          0
cpu0_L1D TOTAL     ACCESS:   15586946  HIT:   14708870  MISS:     878076
cpu0_L1D LOAD      ACCESS:    6998399  HIT:    6451630  MISS:     546769
cpu0_L1D RFO       ACCESS:    8577473  HIT:    8255734  MISS:     321739
cpu0_L1D PREFETCH  ACCESS:          0  HIT:          0  MISS:          0
cpu0_L1D WRITEBACK ACCESS:          0  HIT:          0  MISS:          0
cpu0_L2C TOTAL     ACCESS:    1193849  HIT:     431812  MISS:     762037
cpu0_L2C LOAD      ACCESS:     546765  HIT:      94504  MISS:     452261
cpu0_L2C RFO       ACCESS:     312806  HIT:       3209  MISS:     309597
cpu0_L2C PREFETCH  ACCESS:          0  HIT:          0  MISS:          0
cpu0_L2C WRITEBACK ACCESS:     324710  HIT:     324541  MISS:        169
LLC TOTAL     ACCESS:    1071512  HIT:     362820  MISS:     708692
LLC LOAD      ACCESS:     452261  HIT:      53190  MISS:     399071
LLC RFO       ACCESS:     309597  HIT:          0  MISS:     309597
LLC PREFETCH  ACCESS:          0  HIT:          0  MISS:          0
LLC WRITEBACK ACCESS:     309644  HIT:     309629  MISS:         15
Heartbeat CPU 0 instructions: 104000000 cycles: 136581172 heartbeat IPC: 0.432644 cumulative IPC: 0.435199 (Simulation time: 2 hr 0 min 21 sec) 

Region of Interest Statistics
cpu0_DTLB TOTAL     ACCESS:   11587974  HIT:   11518503  MISS:      69471
cpu0_DTLB LOAD      ACCESS:    7049048  HIT:    7008937  MISS:      40111
cpu0_DTLB RFO       ACCESS:    4538926  HIT:    4509566  MISS:      29360
cpu0_DTLB PREFETCH  ACCESS:          0  HIT:          0  MISS:          0
cpu0_DTLB WRITEBACK ACCESS:          0  HIT:          0  MISS:          0
cpu0_ITLB TOTAL     ACCESS:    3178081  HIT:    3178081  MISS:          0
cpu0_ITLB LOAD      ACCESS:    3178081  HIT:    3178081  MISS:          0
cpu0_ITLB RFO       ACCESS:          0  HIT:          0  MISS:          0
cpu0_ITLB PREFETCH  ACCESS:          0  HIT:          0  MISS:          0
cpu0_ITLB WRITEBACK ACCESS:          0  HIT:          0  MISS:          0
cpu0_STLB TOTAL     ACCESS:      69471  HIT:      57960  MISS:      11511
cpu0_STLB LOAD      ACCESS:      40111  HIT:      33626  MISS:       6485
cpu0_STLB RFO       ACCESS:      29360  HIT:      24334  MISS:       5026
cpu0_STLB PREFETCH  ACCESS:          0  HIT:          0  MISS:          0
cpu0_STLB WRITEBACK ACCESS:          0  HIT:          0  MISS:          0
cpu0_L1D TOTAL     ACCESS:   16186335  HIT:   15274426  MISS:     911909
cpu0_L1D LOAD      ACCESS:    7267381  HIT:    6699561  MISS:     567820
cpu0_L1D RFO       ACCESS:    8907450  HIT:    8573302  MISS:     334148
cpu0_L1D PREFETCH  ACCESS:          0  HIT:          0  MISS:          0
cpu0_L1D WRITEBACK ACCESS:          0  HIT:          0  MISS:          0
cpu0_L2C TOTAL     ACCESS:    1239839  HIT:     448601  MISS:     791238
cpu0_L2C LOAD      ACCESS:     567816  HIT:      98275  MISS:     469541
cpu0_L2C RFO       ACCESS:     324850  HIT:       3340  MISS:     321510
cpu0_L2C PREFETCH  ACCESS:          0  HIT:          0  MISS:          0
cpu0_L2C WRITEBACK ACCESS:     337232  HIT:     337055  MISS:        177
LLC TOTAL     ACCESS:    1112836  HIT:     376920  MISS:     735916
LLC LOAD      ACCESS:     469541  HIT:      55159  MISS:     414382
LLC RFO       ACCESS:     321510  HIT:          0  MISS:     321510
LLC PREFETCH  ACCESS:          0  HIT:          0  MISS:          0
LLC WRITEBACK ACCESS:     321775  HIT:     321760  MISS:         15
Heartbeat CPU 0 instructions: 106000000 cycles: 141104537 heartbeat IPC: 0.442149 cumulative IPC: 0.435444 (Simulation time: 2 hr 4 min 13 sec) 

Region of Interest Statistics
cpu0_DTLB TOTAL     ACCESS:   12017231  HIT:   11944751  MISS:      72480
cpu0_DTLB LOAD      ACCESS:    7310194  HIT:    7268356  MISS:      41838
cpu0_DTLB RFO       ACCESS:    4707037  HIT:    4676395  MISS:      30642
cpu0_DTLB PREFETCH  ACCESS:          0  HIT:          0  MISS:          0
cpu0_DTLB WRITEBACK ACCESS:          0  HIT:          0  MISS:          0
cpu0_ITLB TOTAL     ACCESS:    3295713  HIT:    3295713  MISS:          0
cpu0_ITLB LOAD      ACCESS:    3295713  HIT:    3295713  MISS:          0
cpu0_ITLB RFO       ACCESS:          0  HIT:          0  MISS:          0
cpu0_ITLB PREFETCH  ACCESS:          0  HIT:          0  MISS:          0
cpu0_ITLB WRITEBACK ACCESS:          0  HIT:          0  MISS:          0
cpu0_STLB TOTAL     ACCESS:      72480  HIT:      60538  MISS:      11942
cpu0_STLB LOAD      ACCESS:      41838  HIT:      35111  MISS:       6727
cpu0_STLB RFO       ACCESS:      30642  HIT:      25427  MISS:       5215
cpu0_STLB PREFETCH  ACCESS:          0  HIT:          0  MISS:          0
cpu0_STLB WRITEBACK ACCESS:          0  HIT:          0  MISS:          0
cpu0_L1D TOTAL     ACCESS:   16786291  HIT:   15840602  MISS:     945689
cpu0_L1D LOAD      ACCESS:    7536912  HIT:    6948065  MISS:     588847
cpu0_L1D RFO       ACCESS:    9237444  HIT:    8890917  MISS:     346527
cpu0_L1D PREFETCH  ACCESS:          0  HIT:          0  MISS:          0
cpu0_L1D WRITEBACK ACCESS:          0  HIT:          0  MISS:          0
cpu0_L2C TOTAL     ACCESS:    1285763  HIT:     465029  MISS:     820734
cpu0_L2C LOAD      ACCESS:     588843  HIT:     101720  MISS:     487123
cpu0_L2C RFO       ACCESS:     336878  HIT:       3461  MISS:     333417
cpu0_L2C PREFETCH  ACCESS:          0  HIT:          0  MISS:          0
cpu0_L2C WRITEBACK ACCESS:     349727  HIT:     349544  MISS:        183
LLC TOTAL     ACCESS:    1154183  HIT:     391050  MISS:     763133
LLC LOAD      ACCESS:     487123  HIT:      57432  MISS:     429691
LLC RFO       ACCESS:     333417  HIT:          0  MISS:     333417
LLC PREFETCH  ACCESS:          0  HIT:          0  MISS:          0
LLC WRITEBACK ACCESS:     333632  HIT:     333617  MISS:         15
Heartbeat CPU 0 instructions: 108000002 cycles: 145750297 heartbeat IPC: 0.430501 cumulative IPC: 0.435271 (Simulation time: 2 hr 8 min 2 sec) 

Region of Interest Statistics
cpu0_DTLB TOTAL     ACCESS:   12446264  HIT:   12370784  MISS:      75480
cpu0_DTLB LOAD      ACCESS:    7571146  HIT:    7527580  MISS:      43566
cpu0_DTLB RFO       ACCESS:    4875118  HIT:    4843204  MISS:      31914
cpu0_DTLB PREFETCH  ACCESS:          0  HIT:          0  MISS:          0
cpu0_DTLB WRITEBACK ACCESS:          0  HIT:          0  MISS:          0
cpu0_ITLB TOTAL     ACCESS:    3413210  HIT:    3413210  MISS:          0
cpu0_ITLB LOAD      ACCESS:    3413210  HIT:    3413210  MISS:          0
cpu0_ITLB RFO       ACCESS:          0  HIT:          0  MISS:          0
cpu0_ITLB PREFETCH  ACCESS:          0  HIT:          0  MISS:          0
cpu0_ITLB WRITEBACK ACCESS:          0  HIT:          0  MISS:          0
cpu0_STLB TOTAL     ACCESS:      75480  HIT:      63120  MISS:      12360
cpu0_STLB LOAD      ACCESS:      43566  HIT:      36603  MISS:       6963
cpu0_STLB RFO       ACCESS:      31914  HIT:      26517  MISS:       5397
cpu0_STLB PREFETCH  ACCESS:          0  HIT:          0  MISS:          0
cpu0_STLB WRITEBACK ACCESS:          0  HIT:          0  MISS:          0
cpu0_L1D TOTAL     ACCESS:   17385610  HIT:   16406153  MISS:     979457
cpu0_L1D LOAD      ACCESS:    7805968  HIT:    7196087  MISS:     609881
cpu0_L1D RFO       ACCESS:    9567289  HIT:    9208388  MISS:     358901
cpu0_L1D PREFETCH  ACCESS:          0  HIT:          0  MISS:          0
cpu0_L1D WRITEBACK ACCESS:          0  HIT:          0  MISS:          0
cpu0_L2C TOTAL     ACCESS:    1331682  HIT:     481853  MISS:     849829
cpu0_L2C LOAD      ACCESS:     609877  HIT:     105570  MISS:     504307
cpu0_L2C RFO       ACCESS:     348916  HIT:       3592  MISS:     345324
cpu0_L2C PREFETCH  ACCESS:          0  HIT:          0  MISS:          0
cpu0_L2C WRITEBACK ACCESS:     362214  HIT:     362027  MISS:        187
LLC TOTAL     ACCESS:    1195053  HIT:     404704  MISS:     790349
LLC LOAD      ACCESS:     504307  HIT:      59307  MISS:     445000
LLC RFO       ACCESS:     345324  HIT:          0  MISS:     345324
LLC PREFETCH  ACCESS:          0  HIT:          0  MISS:          0
LLC WRITEBACK ACCESS:     345411  HIT:     345396  MISS:         15
Heartbeat CPU 0 instructions: 110000004 cycles: 150268749 heartbeat IPC: 0.44263 cumulative IPC: 0.435513 (Simulation time: 2 hr 11 min 44 sec) 

Region of Interest Statistics
cpu0_DTLB TOTAL     ACCESS:   12875565  HIT:   12798336  MISS:      77229
cpu0_DTLB LOAD      ACCESS:    7832315  HIT:    7787733  MISS:      44582
cpu0_DTLB RFO       ACCESS:    5043250  HIT:    5010603  MISS:      32647
cpu0_DTLB PREFETCH  ACCESS:          0  HIT:          0  MISS:          0
cpu0_DTLB WRITEBACK ACCESS:          0  HIT:          0  MISS:          0
cpu0_ITLB TOTAL     ACCESS:    3531203  HIT:    3531203  MISS:          0
cpu0_ITLB LOAD      ACCESS:    3531203  HIT:    3531203  MISS:          0
cpu0_ITLB RFO       ACCESS:          0  HIT:          0  MISS:          0
cpu0_ITLB PREFETCH  ACCESS:          0  HIT:          0  MISS:          0
cpu0_ITLB WRITEBACK ACCESS:          0  HIT:          0  MISS:          0
cpu0_STLB TOTAL     ACCESS:      77229  HIT:      64439  MISS:      12790
cpu0_STLB LOAD      ACCESS:      44582  HIT:      37378  MISS:       7204
cpu0_STLB RFO       ACCESS:      32647  HIT:      27061  MISS:       5586
cpu0_STLB PREFETCH  ACCESS:          0  HIT:          0  MISS:          0
cpu0_STLB WRITEBACK ACCESS:          0  HIT:          0  MISS:          0
cpu0_L1D TOTAL     ACCESS:   17985147  HIT:   16971877  MISS:    1013270
cpu0_L1D LOAD      ACCESS:    8075228  HIT:    7444303  MISS:     630925
cpu0_L1D RFO       ACCESS:    9897136  HIT:    9525840  MISS:     371296
cpu0_L1D PREFETCH  ACCESS:          0  HIT:          0  MISS:          0
cpu0_L1D WRITEBACK ACCESS:          0  HIT:          0  MISS:          0
cpu0_L2C TOTAL     ACCESS:    1377642  HIT:     498717  MISS:     878925
cpu0_L2C LOAD      ACCESS:     630922  HIT:     109431  MISS:     521491
cpu0_L2C RFO       ACCESS:     360953  HIT:       3722  MISS:     357231
cpu0_L2C PREFETCH  ACCESS:          0  HIT:          0  MISS:          0
cpu0_L2C WRITEBACK ACCESS:     374718  HIT:     374526  MISS:        192
LLC TOTAL     ACCESS:    1236337  HIT:     418770  MISS:     817567
LLC LOAD      ACCESS:     521491  HIT:      61180  MISS:     460311
LLC RFO       ACCESS:     357231  HIT:          0  MISS:     357231
LLC PREFETCH  ACCESS:          0  HIT:          0  MISS:          0
LLC WRITEBACK ACCESS:     357604  HIT:     357589  MISS:         15
Heartbeat CPU 0 instructions: 112000001 cycles: 154878812 heartbeat IPC: 0.433833 cumulative IPC: 0.435458 (Simulation time: 2 hr 15 min 36 sec) 

Region of Interest Statistics
cpu0_DTLB TOTAL     ACCESS:   13304714  HIT:   13224486  MISS:      80228
cpu0_DTLB LOAD      ACCESS:    8093372  HIT:    8047067  MISS:      46305
cpu0_DTLB RFO       ACCESS:    5211342  HIT:    5177419  MISS:      33923
cpu0_DTLB PREFETCH  ACCESS:          0  HIT:          0  MISS:          0
cpu0_DTLB WRITEBACK ACCESS:          0  HIT:          0  MISS:          0
cpu0_ITLB TOTAL     ACCESS:    3648744  HIT:    3648744  MISS:          0
cpu0_ITLB LOAD      ACCESS:    3648744  HIT:    3648744  MISS:          0
cpu0_ITLB RFO       ACCESS:          0  HIT:          0  MISS:          0
cpu0_ITLB PREFETCH  ACCESS:          0  HIT:          0  MISS:          0
cpu0_ITLB WRITEBACK ACCESS:          0  HIT:          0  MISS:          0
cpu0_STLB TOTAL     ACCESS:      80228  HIT:      67016  MISS:      13212
cpu0_STLB LOAD      ACCESS:      46305  HIT:      38861  MISS:       7444
cpu0_STLB RFO       ACCESS:      33923  HIT:      28155  MISS:       5768
cpu0_STLB PREFETCH  ACCESS:          0  HIT:          0  MISS:          0
cpu0_STLB WRITEBACK ACCESS:          0  HIT:          0  MISS:          0
cpu0_L1D TOTAL     ACCESS:   18584580  HIT:   17537542  MISS:    1047038
cpu0_L1D LOAD      ACCESS:    8344398  HIT:    7692444  MISS:     651954
cpu0_L1D RFO       ACCESS:   10226977  HIT:    9843305  MISS:     383672
cpu0_L1D PREFETCH  ACCESS:          0  HIT:          0  MISS:          0
cpu0_L1D WRITEBACK ACCESS:          0  HIT:          0  MISS:          0
cpu0_L2C TOTAL     ACCESS:    1423555  HIT:     515362  MISS:     908193
cpu0_L2C LOAD      ACCESS:     651950  HIT:     113106  MISS:     538844
cpu0_L2C RFO       ACCESS:     372979  HIT:       3841  MISS:     369138
cpu0_L2C PREFETCH  ACCESS:          0  HIT:          0  MISS:          0
cpu0_L2C WRITEBACK ACCESS:     387214  HIT:     387015  MISS:        199
LLC TOTAL     ACCESS:    1277412  HIT:     432623  MISS:     844789
LLC LOAD      ACCESS:     538844  HIT:      63218  MISS:     475626
LLC RFO       ACCESS:     369138  HIT:          0  MISS:     369138
LLC PREFETCH  ACCESS:          0  HIT:          0  MISS:          0
LLC WRITEBACK ACCESS:     369418  HIT:     369403  MISS:         15
Heartbeat CPU 0 instructions: 114000001 cycles: 159380164 heartbeat IPC: 0.444311 cumulative IPC: 0.43573 (Simulation time: 2 hr 19 min 25 sec) 

Region of Interest Statistics
cpu0_DTLB TOTAL     ACCESS:   13733868  HIT:   13650605  MISS:      83263
cpu0_DTLB LOAD      ACCESS:    8354402  HIT:    8306348  MISS:      48054
cpu0_DTLB RFO       ACCESS:    5379466  HIT:    5344257  MISS:      35209
cpu0_DTLB PREFETCH  ACCESS:          0  HIT:          0  MISS:          0
cpu0_DTLB WRITEBACK ACCESS:          0  HIT:          0  MISS:          0
cpu0_ITLB TOTAL     ACCESS:    3766324  HIT:    3766324  MISS:          0
cpu0_ITLB LOAD      ACCESS:    3766324  HIT:    3766324  MISS:          0
cpu0_ITLB RFO       ACCESS:          0  HIT:          0  MISS:          0
cpu0_ITLB PREFETCH  ACCESS:          0  HIT:          0  MISS:          0
cpu0_ITLB WRITEBACK ACCESS:          0  HIT:          0  MISS:          0
cpu0_STLB TOTAL     ACCESS:      83263  HIT:      69623  MISS:      13640
cpu0_STLB LOAD      ACCESS:      48054  HIT:      40371  MISS:       7683
cpu0_STLB RFO       ACCESS:      35209  HIT:      29252  MISS:       5957
cpu0_STLB PREFETCH  ACCESS:          0  HIT:          0  MISS:          0
cpu0_STLB WRITEBACK ACCESS:          0  HIT:          0  MISS:          0
cpu0_L1D TOTAL     ACCESS:   19184200  HIT:   18103367  MISS:    1080833
cpu0_L1D LOAD      ACCESS:    8613626  HIT:    7940628  MISS:     672998
cpu0_L1D RFO       ACCESS:   10556941  HIT:   10160889  MISS:     396052
cpu0_L1D PREFETCH  ACCESS:          0  HIT:          0  MISS:          0
cpu0_L1D WRITEBACK ACCESS:          0  HIT:          0  MISS:          0
cpu0_L2C TOTAL     ACCESS:    1469500  HIT:     531927  MISS:     937573
cpu0_L2C LOAD      ACCESS:     672994  HIT:     116684  MISS:     556310
cpu0_L2C RFO       ACCESS:     385015  HIT:       3970  MISS:     381045
cpu0_L2C PREFETCH  ACCESS:          0  HIT:          0  MISS:          0
cpu0_L2C WRITEBACK ACCESS:     399708  HIT:     399502  MISS:        206
LLC TOTAL     ACCESS:    1318676  HIT:     446669  MISS:     872007
LLC LOAD      ACCESS:     556310  HIT:      65375  MISS:     490935
LLC RFO       ACCESS:     381045  HIT:          0  MISS:     381045
LLC PREFETCH  ACCESS:          0  HIT:          0  MISS:          0
LLC WRITEBACK ACCESS:     381309  HIT:     381292  MISS:         17
Heartbeat CPU 0 instructions: 116000003 cycles: 164007383 heartbeat IPC: 0.432225 cumulative IPC: 0.435623 (Simulation time: 2 hr 23 min 20 sec) 

Region of Interest Statistics
cpu0_DTLB TOTAL     ACCESS:   14163130  HIT:   14078115  MISS:      85015
cpu0_DTLB LOAD      ACCESS:    8615511  HIT:    8566431  MISS:      49080
cpu0_DTLB RFO       ACCESS:    5547619  HIT:    5511684  MISS:      35935
cpu0_DTLB PREFETCH  ACCESS:          0  HIT:          0  MISS:          0
cpu0_DTLB WRITEBACK ACCESS:          0  HIT:          0  MISS:          0
[...]
cpu0_STLB WRITEBACK ACCESS:          0  HIT:          0  MISS:          0
cpu0_L1D TOTAL     ACCESS:  448433067  HIT:  423164574  MISS:   25268493
cpu0_L1D LOAD      ACCESS:  201366412  HIT:  185636870  MISS:   15729542
cpu0_L1D RFO       ACCESS:  246748069  HIT:  237492132  MISS:    9255937
cpu0_L1D PREFETCH  ACCESS:          0  HIT:          0  MISS:          0
cpu0_L1D WRITEBACK ACCESS:          0  HIT:          0  MISS:          0
cpu0_L2C TOTAL     ACCESS:   34353527  HIT:   12424037  MISS:   21929490
cpu0_L2C LOAD      ACCESS:   15729440  HIT:    2711633  MISS:   13017807
cpu0_L2C RFO       ACCESS:    8999625  HIT:      92680  MISS:    8906945
cpu0_L2C PREFETCH  ACCESS:          0  HIT:          0  MISS:          0
cpu0_L2C WRITEBACK ACCESS:    9341448  HIT:    9336907  MISS:       4541
LLC TOTAL     ACCESS:   30837645  HIT:   10448786  MISS:   20388859
LLC LOAD      ACCESS:   13017807  HIT:    1536423  MISS:   11481384
LLC RFO       ACCESS:    8906945  HIT:          0  MISS:    8906945
LLC PREFETCH  ACCESS:          0  HIT:          0  MISS:          0
LLC WRITEBACK ACCESS:    8912696  HIT:    8912331  MISS:        365
Heartbeat CPU 0 instructions: 1548000001 cycles: 3443284578 heartbeat IPC: 0.44993 cumulative IPC: 0.436635 (Simulation time: 18 hr 28 min 40 sec) 

Region of Interest Statistics
cpu0_DTLB TOTAL     ACCESS:  321486222  HIT:  319548455  MISS:    1937767
cpu0_DTLB LOAD      ACCESS:  195564329  HIT:  194445147  MISS:    1119182
cpu0_DTLB RFO       ACCESS:  125921893  HIT:  125103308  MISS:     818585
cpu0_DTLB PREFETCH  ACCESS:          0  HIT:          0  MISS:          0
cpu0_DTLB WRITEBACK ACCESS:          0  HIT:          0  MISS:          0
cpu0_ITLB TOTAL     ACCESS:   88152801  HIT:   88152801  MISS:          0
cpu0_ITLB LOAD      ACCESS:   88152801  HIT:   88152801  MISS:          0
cpu0_ITLB RFO       ACCESS:          0  HIT:          0  MISS:          0
cpu0_ITLB PREFETCH  ACCESS:          0  HIT:          0  MISS:          0
cpu0_ITLB WRITEBACK ACCESS:          0  HIT:          0  MISS:          0
cpu0_STLB TOTAL     ACCESS:    1937767  HIT:    1618590  MISS:     319177
cpu0_STLB LOAD      ACCESS:    1119182  HIT:     939361  MISS:     179821
cpu0_STLB RFO       ACCESS:     818585  HIT:     679229  MISS:     139356
cpu0_STLB PREFETCH  ACCESS:          0  HIT:          0  MISS:          0
cpu0_STLB WRITEBACK ACCESS:          0  HIT:          0  MISS:          0
cpu0_L1D TOTAL     ACCESS:  449032610  HIT:  423730314  MISS:   25302296
cpu0_L1D LOAD      ACCESS:  201635558  HIT:  185884958  MISS:   15750600
cpu0_L1D RFO       ACCESS:  247078049  HIT:  237809723  MISS:    9268326
cpu0_L1D PREFETCH  ACCESS:          0  HIT:          0  MISS:          0
cpu0_L1D WRITEBACK ACCESS:          0  HIT:          0  MISS:          0
cpu0_L2C TOTAL     ACCESS:   34399479  HIT:   12440872  MISS:   21958607
cpu0_L2C LOAD      ACCESS:   15750498  HIT:    2715488  MISS:   13035010
cpu0_L2C RFO       ACCESS:    9011665  HIT:      92812  MISS:    8918853
cpu0_L2C PREFETCH  ACCESS:          0  HIT:          0  MISS:          0
cpu0_L2C WRITEBACK ACCESS:    9353946  HIT:    9349399  MISS:       4547
LLC TOTAL     ACCESS:   30878390  HIT:   10462312  MISS:   20416078
LLC LOAD      ACCESS:   13035010  HIT:    1538317  MISS:   11496693
LLC RFO       ACCESS:    8918853  HIT:          0  MISS:    8918853
LLC PREFETCH  ACCESS:          0  HIT:          0  MISS:          0
LLC WRITEBACK ACCESS:    8924330  HIT:    8923963  MISS:        367
Heartbeat CPU 0 instructions: 1550000003 cycles: 3447866401 heartbeat IPC: 0.436508 cumulative IPC: 0.436635 (Simulation time: 18 hr 29 min 11 sec) 

Region of Interest Statistics
cpu0_DTLB TOTAL     ACCESS:  321915514  HIT:  319975842  MISS:    1939672
cpu0_DTLB LOAD      ACCESS:  195825485  HIT:  194705194  MISS:    1120291
cpu0_DTLB RFO       ACCESS:  126090029  HIT:  125270648  MISS:     819381
cpu0_DTLB PREFETCH  ACCESS:          0  HIT:          0  MISS:          0
cpu0_DTLB WRITEBACK ACCESS:          0  HIT:          0  MISS:          0
cpu0_ITLB TOTAL     ACCESS:   88270719  HIT:   88270719  MISS:          0
cpu0_ITLB LOAD      ACCESS:   88270719  HIT:   88270719  MISS:          0
cpu0_ITLB RFO       ACCESS:          0  HIT:          0  MISS:          0
cpu0_ITLB PREFETCH  ACCESS:          0  HIT:          0  MISS:          0
cpu0_ITLB WRITEBACK ACCESS:          0  HIT:          0  MISS:          0
cpu0_STLB TOTAL     ACCESS:    1939672  HIT:    1620063  MISS:     319609
cpu0_STLB LOAD      ACCESS:    1120291  HIT:     940227  MISS:     180064
cpu0_STLB RFO       ACCESS:     819381  HIT:     679836  MISS:     139545
cpu0_STLB PREFETCH  ACCESS:          0  HIT:          0  MISS:          0
cpu0_STLB WRITEBACK ACCESS:          0  HIT:          0  MISS:          0
cpu0_L1D TOTAL     ACCESS:  449632287  HIT:  424296159  MISS:   25336128
cpu0_L1D LOAD      ACCESS:  201904871  HIT:  186133203  MISS:   15771668
cpu0_L1D RFO       ACCESS:  247407981  HIT:  238127260  MISS:    9280721
cpu0_L1D PREFETCH  ACCESS:          0  HIT:          0  MISS:          0
cpu0_L1D WRITEBACK ACCESS:          0  HIT:          0  MISS:          0
cpu0_L2C TOTAL     ACCESS:   34445477  HIT:   12457506  MISS:   21987971
cpu0_L2C LOAD      ACCESS:   15771566  HIT:    2719113  MISS:   13052453
cpu0_L2C RFO       ACCESS:    9023716  HIT:      92950  MISS:    8930766
cpu0_L2C PREFETCH  ACCESS:          0  HIT:          0  MISS:          0
cpu0_L2C WRITEBACK ACCESS:    9366456  HIT:    9361902  MISS:       4554
LLC TOTAL     ACCESS:   30919924  HIT:   10476621  MISS:   20443303
LLC LOAD      ACCESS:   13052453  HIT:    1540449  MISS:   11512004
LLC RFO       ACCESS:    8930766  HIT:          0  MISS:    8930766
LLC PREFETCH  ACCESS:          0  HIT:          0  MISS:          0
LLC WRITEBACK ACCESS:    8936507  HIT:    8936140  MISS:        367
Finished CPU 0 instructions: 1500000002 cycles: 3435366324 cumulative IPC: 0.436635 (Simulation time: 18 hr 29 min 11 sec) 

ChampSim completed all CPUs

Region of Interest Statistics

CPU 0 cumulative IPC: 0.436635 instructions: 1500000002 cycles: 3435366324
cpu0_DTLB TOTAL     ACCESS:  321915514  HIT:  319975842  MISS:    1939672
cpu0_DTLB LOAD      ACCESS:  195825485  HIT:  194705194  MISS:    1120291
cpu0_DTLB RFO       ACCESS:  126090029  HIT:  125270648  MISS:     819381
cpu0_DTLB PREFETCH  ACCESS:          0  HIT:          0  MISS:          0
cpu0_DTLB WRITEBACK ACCESS:          0  HIT:          0  MISS:          0
cpu0_DTLB TRANSLATION ACCESS:          0  HIT:          0  MISS:          0
cpu0_DTLB PREFETCH  REQUESTED:          0  ISSUED:          0  USEFUL:          0  USELESS:          0
cpu0_DTLB AVERAGE MISS LATENCY: 44.0636 cycles
cpu0_ITLB TOTAL     ACCESS:   88270719  HIT:   88270719  MISS:          0
cpu0_ITLB LOAD      ACCESS:   88270719  HIT:   88270719  MISS:          0
cpu0_ITLB RFO       ACCESS:          0  HIT:          0  MISS:          0
cpu0_ITLB PREFETCH  ACCESS:          0  HIT:          0  MISS:          0
cpu0_ITLB WRITEBACK ACCESS:          0  HIT:          0  MISS:          0
cpu0_ITLB TRANSLATION ACCESS:          0  HIT:          0  MISS:          0
cpu0_ITLB PREFETCH  REQUESTED:          0  ISSUED:          0  USEFUL:          0  USELESS:          0
cpu0_ITLB AVERAGE MISS LATENCY: -nan cycles
cpu0_STLB TOTAL     ACCESS:    1939672  HIT:    1620063  MISS:     319609
cpu0_STLB LOAD      ACCESS:    1120291  HIT:     940227  MISS:     180064
cpu0_STLB RFO       ACCESS:     819381  HIT:     679836  MISS:     139545
cpu0_STLB PREFETCH  ACCESS:          0  HIT:          0  MISS:          0
cpu0_STLB WRITEBACK ACCESS:          0  HIT:          0  MISS:          0
cpu0_STLB TRANSLATION ACCESS:          0  HIT:          0  MISS:          0
cpu0_STLB PREFETCH  REQUESTED:          0  ISSUED:          0  USEFUL:          0  USELESS:          0
cpu0_STLB AVERAGE MISS LATENCY: 212.151 cycles
cpu0_L1D TOTAL     ACCESS:  449632287  HIT:  424296159  MISS:   25336128
cpu0_L1D LOAD      ACCESS:  201904871  HIT:  186133203  MISS:   15771668
cpu0_L1D RFO       ACCESS:  247407981  HIT:  238127260  MISS:    9280721
cpu0_L1D PREFETCH  ACCESS:          0  HIT:          0  MISS:          0
cpu0_L1D WRITEBACK ACCESS:          0  HIT:          0  MISS:          0
cpu0_L1D TRANSLATION ACCESS:     319435  HIT:      35696  MISS:     283739
cpu0_L1D PREFETCH  REQUESTED:          0  ISSUED:          0  USEFUL:          0  USELESS:          0
cpu0_L1D AVERAGE MISS LATENCY: 651.435 cycles
cpu0_L2C TOTAL     ACCESS:   34445477  HIT:   12457506  MISS:   21987971
cpu0_L2C LOAD      ACCESS:   15771566  HIT:    2719113  MISS:   13052453
cpu0_L2C RFO       ACCESS:    9023716  HIT:      92950  MISS:    8930766
cpu0_L2C PREFETCH  ACCESS:          0  HIT:          0  MISS:          0
cpu0_L2C WRITEBACK ACCESS:    9366456  HIT:    9361902  MISS:       4554
cpu0_L2C TRANSLATION ACCESS:     283739  HIT:     283541  MISS:        198
cpu0_L2C PREFETCH  REQUESTED:          0  ISSUED:          0  USEFUL:          0  USELESS:          0
cpu0_L2C AVERAGE MISS LATENCY: 738.02 cycles
LLC TOTAL     ACCESS:   30919924  HIT:   10476621  MISS:   20443303
LLC LOAD      ACCESS:   13052453  HIT:    1540449  MISS:   11512004
LLC RFO       ACCESS:    8930766  HIT:          0  MISS:    8930766
LLC PREFETCH  ACCESS:          0  HIT:          0  MISS:          0
LLC WRITEBACK ACCESS:    8936507  HIT:    8936140  MISS:        367
LLC TRANSLATION ACCESS:        198  HIT:         32  MISS:        166
LLC PREFETCH  REQUESTED:          0  ISSUED:          0  USEFUL:          0  USELESS:          0
LLC AVERAGE MISS LATENCY: 771.202 cycles
~~~~~~~~~~Reuse Distance Profiler output~~~~~~~~~~
0	0	0
1	0	0
2	0	0
3	0	0
4	0	0
5	0	0
6	0	0
7	0	0
8	0	0
9	0	0
10	0	0
11	0	0
12	0	0
13	0	0
14	0	0
15	0	0
16	0	0
17	0	0
18	0	0
19	0	0
20	0	0
21	0	0
22	0	0
23	0	0
24	0	0
25	0	0
26	0	0
27	0	0
28	0	0
29	0	0
30	0	0
31	0	0
32	0	0
33	0	0
34	0	0
35	0	0
36	0	0
37	0	0
38	0	0
39	0	0
40	0	0
41	0	0
42	0	0
43	0	0
44	0	0
45	0	0
46	0	0
47	0	0
48	0	0
49	0	0
50	0	0
51	0	0
52	0	0
53	0	0
54	0	0
55	0	0
56	0	0
57	0	0
58	0	0
59	0	0
60	0	0
61	0	0
62	0	0
63	0	0
64	0	0
66	0	0
68	0	0
70	0	0
72	0	0
74	0	0
76	0	0
78	0	0
80	0	0
82	0	0
84	0	0
86	0	0
88	0	0
90	0	0
92	0	0
94	0	0
96	0	0
98	0	0
100	0	0
102	0	0
104	0	0
106	0	0
108	0	0
110	0	0
112	0	0
114	0	0
116	0	0
118	0	0
120	0	0
122	0	0
124	0	0
126	0	0
128	0	0
132	0	0
136	0	0
140	0	0
144	0	0
148	0	0
152	0	0
156	0	0
160	0	0
164	0	0
168	0	0
172	0	0
176	0	0
180	0	0
184	0	0
188	0	0
192	0	0
196	0	0
200	0	0
204	0	0
208	0	0
212	0	0
216	0	0
220	0	0
224	0	0
228	0	0
232	0	0
236	0	0
240	0	0
244	0	0
248	0	0
252	0	0
256	0	0
264	0	0
272	0	0
280	0	0
288	0	0
296	0	0
304	0	0
312	0	0
320	0	0
328	0	0
336	0	0
344	0	0
352	0	0
360	0	0
368	0	0
376	0	0
384	0	0
392	0	0
400	0	0
408	0	0
416	0	0
424	0	0
432	0	0
440	0	0
448	0	0
456	0	0
464	0	0
472	0	0
480	0	0
488	0	0
496	0	0
504	0	0
512	0	0
528	0	0
544	0	0
560	0	0
576	0	0
592	0	0
608	0	0
624	0	0
640	0	0
656	0	0
672	0	0
688	0	0
704	0	0
720	0	0
736	0	0
752	0	0
768	0	0
784	0	0
800	0	0
816	0	0
832	0	0
848	0	0
864	0	0
880	0	0
896	0	0
912	0	0
928	0	0
944	0	0
960	0	0
976	0	0
992	0	0
1008	0	0
1024	0	0
1056	0	0
1088	0	0
1120	0	0
1152	0	0
1184	0	0
1216	0	0
1248	0	0
1280	0	0
1312	0	0
1344	0	0
1376	0	0
1408	0	0
1440	0	0
1472	0	0
1504	0	0
1536	0	0
1568	0	0
1600	0	0
1632	0	0
1664	0	0
1696	0	0
1728	0	0
1760	0	0
1792	0	0
1824	0	0
1856	0	0
1888	0	0
1920	0	0
1952	0	0
1984	0	0
2016	0	0
2048	0	0
2112	0	0
2176	0	0
2240	0	0
2304	0	0
2368	0	0
2432	0	0
2496	0	0
2560	0	0
2624	0	0
2688	0	0
2752	0	0
2816	0	0
2880	0	0
2944	0	0
3008	0	0
3072	0	0
3136	0	0
3200	0	0
3264	0	0
3328	0	0
3392	0	0
3456	0	0
3520	0	0
3584	0	0
3648	0	0
3712	0	0
3776	0	0
3840	0	0
3904	0	0
3968	0	0
4032	0	0
4096	0	0
4224	0	0
4352	0	0
4480	0	0
4608	0	0
4736	0	0
4864	0	0
4992	0	0
5120	0	0
5248	0	0
5376	0	0
5504	0	0
5632	0	0
5760	0	0
5888	0	0
6016	0	0
6144	0	0
6272	0	0
6400	0	0
6528	0	0
6656	0	0
6784	0	0
6912	0	0
7040	0	0
7168	0	0
7296	0	0
7424	0	0
7552	0	0
7680	0	0
7808	0	0
7936	0	0
8064	0	0
8192	0	0
8448	0	0
8704	0	0
8960	0	0
9216	0	0
9472	0	0
9728	0	0
9984	0	0
10240	0	0
10496	0	0
10752	0	0
11008	0	0
11264	0	0
11520	0	0
11776	0	0
12032	0	0
12288	0	0
12544	0	0
12800	0	0
13056	0	0
13312	0	0
13568	0	0
13824	0	0
14080	0	0
14336	0	0
14592	0	0
14848	0	0
15104	0	0
15360	0	0
15616	0	0
15872	0	0
16128	0	0
16384	0	0
16896	0	0
17408	0	0
17920	0	0
18432	0	0
18944	0	0
19456	0	0
19968	0	0
20480	0	0
20992	0	0
21504	0	0
22016	0	0
22528	0	0
23040	0	0
23552	0	0
24064	0	0
24576	0	0
25088	0	0
25600	0	0
26112	0	0
26624	0	0
27136	0	0
27648	0	0
28160	0	0
28672	0	0
29184	0	0
29696	0	0
30208	0	0
30720	0	0
31232	0	0
31744	0	0
32256	0	0
32768	0	0
33792	0	0
34816	0	0
35840	0	0
36864	0	0
37888	0	0
38912	0	0
39936	0	0
40960	0	0
41984	0	0
43008	0	0
44032	0	0
45056	0	0
46080	0	0
47104	0	0
48128	0	0
49152	0	0
50176	0	0
51200	0	0
52224	0	0
53248	0	0
54272	0	0
55296	0	0
56320	0	0
57344	0	0
58368	0	0
59392	0	0
60416	0	0
61440	0	0
62464	0	0
63488	0	0
64512	0	0
65536	0	0
67584	0	0
69632	0	0
71680	0	0
73728	0	0
75776	0	0
77824	0	0
79872	0	0
81920	0	0
83968	0	0
86016	0	0
88064	0	0
90112	0	0
92160	0	0
94208	0	0
96256	0	0
98304	0	0
100352	0	0
102400	0	0
104448	0	0
106496	0	0
108544	0	0
110592	0	0
112640	0	0
114688	0	0
116736	0	0
118784	0	0
120832	0	0
122880	0	0
124928	0	0
126976	0	0
129024	0	0
131072	0	0
135168	0	0
139264	0	0
143360	0	0
147456	0	0
151552	0	0
155648	0	0
159744	0	0
163840	0	0
167936	0	0
172032	0	0
176128	0	0
180224	0	0
184320	0	0
188416	0	0
192512	0	0
196608	0	0
200704	0	0
204800	0	0
208896	0	0
212992	0	0
217088	0	0
221184	0	0
225280	0	0
229376	0	0
233472	0	0
237568	0	0
241664	0	0
245760	0	0
249856	0	0
253952	0	0
258048	0	0
262144	0	0
270336	0	0
278528	0	0
286720	0	0
294912	0	0
303104	0	0
311296	0	0
319488	0	0
327680	0	0
335872	0	0
344064	0	0
352256	0	0
360448	0	0
368640	0	0
376832	0	0
385024	0	0
393216	0	0
401408	0	0
409600	0	0
417792	0	0
425984	0	0
434176	0	0
442368	0	0
450560	0	0
458752	0	0
466944	0	0
475136	0	0
483328	0	0
491520	0	0
499712	0	0
507904	0	0
516096	0	0
524288	0	0
540672	0	0
557056	0	0
573440	0	0
589824	0	0
606208	0	0
622592	0	0
638976	0	0
655360	0	0
671744	0	0
688128	0	0
704512	0	0
720896	0	0
737280	0	0
753664	0	0
770048	0	0
786432	0	0
802816	0	0
819200	0	0
835584	0	0
851968	0	0
868352	0	0
884736	0	0
901120	0	0
917504	0	0
933888	0	0
950272	0	0
966656	0	0
983040	0	0
999424	0	0
1015808	0	0
1032192	0	0
1048576	0	0
1081344	0	0
1114112	0	0
1146880	0	0
1179648	0	0
1212416	0	0
1245184	0	0
1277952	0	0
1310720	0	0
1343488	0	0
1376256	0	0
1409024	0	0
1441792	0	0
1474560	0	0
1507328	0	0
1540096	0	0
1572864	0	0
1605632	0	0
1638400	0	0
1671168	0	0
1703936	0	0
1736704	0	0
1769472	0	0
1802240	0	0
1835008	0	0
1867776	0	0
1900544	0	0
1933312	0	0
1966080	0	0
1998848	0	0
2031616	0	0
2064384	0	0
2097152	0	0
2162688	0	0
2228224	0	0
2293760	0	0
2359296	0	0
2424832	0	0
2490368	0	0
2555904	0	0
2621440	0	0
2686976	0	0
2752512	0	0
2818048	0	0
2883584	0	0
2949120	0	0
3014656	0	0
3080192	0	0
3145728	0	0
3211264	0	0
3276800	0	0
3342336	0	0
3407872	0	0
3473408	0	0
3538944	0	0
3604480	0	0
3670016	0	0
3735552	0	0
3801088	0	0
3866624	0	0
3932160	0	0
3997696	0	0
4063232	0	0
4128768	0	0
4194304	0	0
4325376	0	0
4456448	0	0
4587520	0	0
4718592	0	0
4849664	0	0
4980736	0	0
5111808	0	0
5242880	0	0
5373952	0	0
5505024	0	0
5636096	0	0
5767168	0	0
5898240	0	0
6029312	0	0
6160384	0	0
6291456	0	0
6422528	0	0
6553600	0	0
6684672	0	0
6815744	0	0
6946816	0	0
7077888	0	0
7208960	0	0
7340032	0	0
7471104	0	0
7602176	0	0
7733248	0	0
7864320	0	0
7995392	0	0
8126464	0	0
8257536	0	0
8388608	0	0
8650752	0	0
8912896	0	0
9175040	0	0
9437184	0	0
9699328	0	0
9961472	0	0
10223616	0	0
10485760	0	0
10747904	0	0
11010048	0	0
11272192	0	0
11534336	0	0
11796480	0	0
12058624	0	0
12320768	0	0
12582912	0	0
12845056	0	0
13107200	0	0
13369344	0	0
13631488	0	0
13893632	0	0
14155776	0	0
14417920	0	0
14680064	0	0
14942208	0	0
15204352	0	0
15466496	0	0
15728640	0	0
15990784	0	0
16252928	0	0
16515072	0	0
16777216	0	0
17301504	0	0
17825792	0	0
18350080	0	0
18874368	0	0
19398656	0	0
19922944	0	0
20447232	0	0
20971520	0	0
21495808	0	0
22020096	0	0
22544384	0	0
23068672	0	0
23592960	0	0
24117248	0	0
24641536	0	0
25165824	0	0
25690112	0	0
26214400	0	0
26738688	0	0
27262976	0	0
27787264	0	0
28311552	0	0
28835840	0	0
29360128	0	0
29884416	0	0
30408704	0	0
30932992	0	0
31457280	0	0
31981568	0	0
32505856	0	0
33030144	0	0
33554432	0	0
34603008	0	0
35651584	0	0
36700160	0	0
37748736	0	0
38797312	0	0
39845888	0	0
40894464	0	0
41943040	0	0
42991616	0	0
44040192	0	0
45088768	0	0
46137344	0	0
47185920	0	0
48234496	0	0
49283072	0	0
50331648	0	0
51380224	0	0
52428800	0	0
53477376	0	0
54525952	0	0
55574528	0	0
56623104	0	0
57671680	0	0
58720256	0	0
59768832	0	0
60817408	0	0
61865984	0	0
62914560	0	0
63963136	0	0
65011712	0	0
66060288	0	0
67108864	0	0
69206016	0	0
71303168	0	0
73400320	0	0
75497472	0	0
77594624	0	0
79691776	0	0
81788928	0	0
83886080	0	0
85983232	0	0
88080384	0	0
90177536	0	0
92274688	0	0
94371840	0	0
96468992	0	0
98566144	0	0
100663296	0	0
102760448	0	0
104857600	0	0
106954752	0	0
109051904	0	0
111149056	0	0
113246208	0	0
115343360	0	0
117440512	0	0
119537664	0	0
121634816	0	0
123731968	0	0
125829120	0	0
127926272	0	0
130023424	0	0
132120576	0	0
134217728	0	0
138412032	0	0
142606336	0	0
146800640	0	0
150994944	0	0
155189248	0	0
159383552	0	0
163577856	0	0
167772160	0	0
171966464	0	0
176160768	0	0
180355072	0	0
184549376	0	0
188743680	0	0
192937984	0	0
197132288	0	0
201326592	0	0
205520896	0	0
209715200	0	0
213909504	0	0
218103808	0	0
222298112	0	0
226492416	0	0
230686720	0	0
234881024	0	0
239075328	0	0
243269632	0	0
247463936	0	0
251658240	0	0
255852544	0	0
260046848	0	0
264241152	0	0
268435456	0	0
276824064	0	0
285212672	0	0
293601280	0	0
301989888	0	0
310378496	0	0
318767104	0	0
327155712	0	0
335544320	0	0
343932928	0	0
352321536	0	0
360710144	0	0
369098752	0	0
377487360	0	0
385875968	0	0
394264576	0	0
402653184	0	0
411041792	0	0
419430400	0	0
427819008	0	0
436207616	0	0
444596224	0	0
452984832	0	0
461373440	0	0
469762048	0	0
478150656	0	0
486539264	0	0
494927872	0	0
503316480	0	0
511705088	0	0
520093696	0	0
528482304	0	0
536870912	0	0
553648128	0	0
570425344	0	0
587202560	0	0
603979776	0	0
620756992	0	0
637534208	0	0
654311424	0	0
671088640	0	0
687865856	0	0
704643072	0	0
721420288	0	0
738197504	0	0
754974720	0	0
771751936	0	0
788529152	0	0
805306368	0	0
822083584	0	0
838860800	0	0
855638016	0	0
872415232	0	0
889192448	0	0
905969664	0	0
922746880	0	0
939524096	0	0
956301312	0	0
973078528	0	0
989855744	0	0
1006632960	0	0
1023410176	0	0
1040187392	0	0
1056964608	0	0
1073741824	0	0
1107296256	0	0
1140850688	0	0
1174405120	0	0
1207959552	0	0
1241513984	0	0
1275068416	0	0
1308622848	0	0
1342177280	0	0
1375731712	0	0
1409286144	0	0
1442840576	0	0
1476395008	0	0
1509949440	0	0
1543503872	0	0
1577058304	0	0
1610612736	0	0
1644167168	0	0
1677721600	0	0
1711276032	0	0
1744830464	0	0
1778384896	0	0
1811939328	0	0
1845493760	0	0
1879048192	0	0
1912602624	0	0
1946157056	0	0
1979711488	0	0
2013265920	0	0
2046820352	0	0
2080374784	0	0
2113929216	0	0
2147483648	0	0
2214592512	0	0
2281701376	0	0
2348810240	0	0
2415919104	0	0
2483027968	0	0
2550136832	0	0
2617245696	0	0
2684354560	0	0
2751463424	0	0
2818572288	0	0
2885681152	0	0
2952790016	0	0
3019898880	0	0
3087007744	0	0
3154116608	0	0
3221225472	0	0
3288334336	0	0
3355443200	0	0
3422552064	0	0
3489660928	0	0
3556769792	0	0
3623878656	0	0
3690987520	0	0
3758096384	0	0
3825205248	0	0
3892314112	0	0
3959422976	0	0
4026531840	0	0
4093640704	0	0
4160749568	0	0
4227858432	0	0
~~~~~~~~~~Reuse Distance Profiler output end~~~~~~~~~~


DRAM Statistics
 CHANNEL 0
 RQ ROW_BUFFER_HIT:      24675  ROW_BUFFER_MISS:   20418261
 DBUS AVG_CONGESTED_CYCLE:    4.00062
 WQ ROW_BUFFER_HIT:      64253  ROW_BUFFER_MISS:    8867057  FULL:          0


CPU 0 Branch Prediction Accuracy: 61.242% MPKI: 3.27119 Average ROB Occupancy at Mispredict: 328.067
Branch type MPKI
BRANCH_DIRECT_JUMP: 0
BRANCH_INDIRECT: 0
BRANCH_CONDITIONAL: 3.27119
BRANCH_DIRECT_CALL: 0
BRANCH_INDIRECT_CALL: 0
BRANCH_RETURN: 0

