
*** ChampSim Multicore Out-of-Order Simulator ***

Warmup Instructions: 50000000
Simulation Instructions: 1500000000
Number of CPUs: 1
Off-chip DRAM Size: 4 GiB Channels: 1 Width: 64-bit Data Rate: 3200 MT/s

VirtualMemory physical capacity: 8588881920 num_ppages: 2096895
VirtualMemory page size: 4096 log2_page_size: 12

CPU 0 runs traces/603.bwaves_s-2931B.champsimtrace.xz
CPU 0 Bimodal branch predictor
Basic BTB sets: 1024 ways: 8 indirect buffer size: 4096 RAS size: 64
Initializing LRU.
Initializing LRU.
Initializing LRU.
Initializing LRU.
Initializing rdLRU.
Initializing LRU.
Initializing LRU.
Heartbeat CPU 0 instructions: 2000001 cycles: 500077 heartbeat IPC: 3.99939 cumulative IPC: 3.99939 (Simulation time: 0 hr 0 min 39 sec) 
Heartbeat CPU 0 instructions: 4000001 cycles: 1000077 heartbeat IPC: 4 cumulative IPC: 3.99969 (Simulation time: 0 hr 1 min 14 sec) 
Heartbeat CPU 0 instructions: 6000001 cycles: 1500077 heartbeat IPC: 4 cumulative IPC: 3.9998 (Simulation time: 0 hr 1 min 52 sec) 
Heartbeat CPU 0 instructions: 8000001 cycles: 2000077 heartbeat IPC: 4 cumulative IPC: 3.99985 (Simulation time: 0 hr 2 min 27 sec) 
Heartbeat CPU 0 instructions: 10000001 cycles: 2500077 heartbeat IPC: 4 cumulative IPC: 3.99988 (Simulation time: 0 hr 3 min 4 sec) 
Heartbeat CPU 0 instructions: 12000001 cycles: 3000077 heartbeat IPC: 4 cumulative IPC: 3.9999 (Simulation time: 0 hr 3 min 39 sec) 
Heartbeat CPU 0 instructions: 14000001 cycles: 3500077 heartbeat IPC: 4 cumulative IPC: 3.99991 (Simulation time: 0 hr 4 min 15 sec) 
Heartbeat CPU 0 instructions: 16000001 cycles: 4000077 heartbeat IPC: 4 cumulative IPC: 3.99992 (Simulation time: 0 hr 4 min 50 sec) 
Heartbeat CPU 0 instructions: 18000001 cycles: 4500077 heartbeat IPC: 4 cumulative IPC: 3.99993 (Simulation time: 0 hr 5 min 26 sec) 
Heartbeat CPU 0 instructions: 20000001 cycles: 5000077 heartbeat IPC: 4 cumulative IPC: 3.99994 (Simulation time: 0 hr 6 min 2 sec) 
Heartbeat CPU 0 instructions: 22000001 cycles: 5500077 heartbeat IPC: 4 cumulative IPC: 3.99994 (Simulation time: 0 hr 6 min 39 sec) 
Heartbeat CPU 0 instructions: 24000001 cycles: 6000077 heartbeat IPC: 4 cumulative IPC: 3.99995 (Simulation time: 0 hr 7 min 16 sec) 
Heartbeat CPU 0 instructions: 26000001 cycles: 6500077 heartbeat IPC: 4 cumulative IPC: 3.99995 (Simulation time: 0 hr 7 min 54 sec) 
Heartbeat CPU 0 instructions: 28000001 cycles: 7000077 heartbeat IPC: 4 cumulative IPC: 3.99996 (Simulation time: 0 hr 8 min 30 sec) 
Heartbeat CPU 0 instructions: 30000001 cycles: 7500077 heartbeat IPC: 4 cumulative IPC: 3.99996 (Simulation time: 0 hr 9 min 6 sec) 
Heartbeat CPU 0 instructions: 32000001 cycles: 8000077 heartbeat IPC: 4 cumulative IPC: 3.99996 (Simulation time: 0 hr 9 min 42 sec) 
Heartbeat CPU 0 instructions: 34000001 cycles: 8500077 heartbeat IPC: 4 cumulative IPC: 3.99996 (Simulation time: 0 hr 10 min 20 sec) 
Heartbeat CPU 0 instructions: 36000001 cycles: 9000077 heartbeat IPC: 4 cumulative IPC: 3.99997 (Simulation time: 0 hr 10 min 58 sec) 
Heartbeat CPU 0 instructions: 38000001 cycles: 9500077 heartbeat IPC: 4 cumulative IPC: 3.99997 (Simulation time: 0 hr 11 min 37 sec) 
Heartbeat CPU 0 instructions: 40000001 cycles: 10000077 heartbeat IPC: 4 cumulative IPC: 3.99997 (Simulation time: 0 hr 12 min 14 sec) 
Heartbeat CPU 0 instructions: 42000001 cycles: 10500077 heartbeat IPC: 4 cumulative IPC: 3.99997 (Simulation time: 0 hr 12 min 52 sec) 
Heartbeat CPU 0 instructions: 44000001 cycles: 11000077 heartbeat IPC: 4 cumulative IPC: 3.99997 (Simulation time: 0 hr 13 min 28 sec) 
Heartbeat CPU 0 instructions: 46000001 cycles: 11500077 heartbeat IPC: 4 cumulative IPC: 3.99997 (Simulation time: 0 hr 14 min 3 sec) 
Heartbeat CPU 0 instructions: 48000001 cycles: 12000077 heartbeat IPC: 4 cumulative IPC: 3.99997 (Simulation time: 0 hr 14 min 39 sec) 
Heartbeat CPU 0 instructions: 50000001 cycles: 12500077 heartbeat IPC: 4 cumulative IPC: 3.99998 (Simulation time: 0 hr 15 min 15 sec) 

Warmup complete CPU 0 instructions: 50000001 cycles: 12500077 (Simulation time: 0 hr 15 min 15 sec) 

Heartbeat CPU 0 instructions: 52000004 cycles: 17064550 heartbeat IPC: 0.438167 cumulative IPC: 0.438167 (Simulation time: 0 hr 18 min 21 sec) 

Region of Interest Statistics
cpu0_DTLB TOTAL     ACCESS:     428589  HIT:     426265  MISS:       2324
cpu0_DTLB LOAD      ACCESS:     260853  HIT:     259543  MISS:       1310
cpu0_DTLB RFO       ACCESS:     167736  HIT:     166722  MISS:       1014
cpu0_DTLB PREFETCH  ACCESS:          0  HIT:          0  MISS:          0
cpu0_DTLB WRITEBACK ACCESS:          0  HIT:          0  MISS:          0
cpu0_ITLB TOTAL     ACCESS:     117292  HIT:     117292  MISS:          0
cpu0_ITLB LOAD      ACCESS:     117292  HIT:     117292  MISS:          0
cpu0_ITLB RFO       ACCESS:          0  HIT:          0  MISS:          0
cpu0_ITLB PREFETCH  ACCESS:          0  HIT:          0  MISS:          0
cpu0_ITLB WRITEBACK ACCESS:          0  HIT:          0  MISS:          0
cpu0_STLB TOTAL     ACCESS:       2324  HIT:       1893  MISS:        431
cpu0_STLB LOAD      ACCESS:       1310  HIT:       1068  MISS:        242
cpu0_STLB RFO       ACCESS:       1014  HIT:        825  MISS:        189
cpu0_STLB PREFETCH  ACCESS:          0  HIT:          0  MISS:          0
cpu0_STLB WRITEBACK ACCESS:          0  HIT:          0  MISS:          0
cpu0_L1D TOTAL     ACCESS:     597313  HIT:     563503  MISS:      33810
cpu0_L1D LOAD      ACCESS:     266877  HIT:     245847  MISS:      21030
cpu0_L1D RFO       ACCESS:     330005  HIT:     317598  MISS:      12407
cpu0_L1D PREFETCH  ACCESS:          0  HIT:          0  MISS:          0
cpu0_L1D WRITEBACK ACCESS:          0  HIT:          0  MISS:          0
cpu0_L2C TOTAL     ACCESS:      45947  HIT:      16461  MISS:      29486
cpu0_L2C LOAD      ACCESS:      21025  HIT:       3453  MISS:      17572
cpu0_L2C RFO       ACCESS:      12021  HIT:        114  MISS:      11907
cpu0_L2C PREFETCH  ACCESS:          0  HIT:          0  MISS:          0
cpu0_L2C WRITEBACK ACCESS:      12528  HIT:      12521  MISS:          7
LLC TOTAL     ACCESS:      41399  HIT:       3306  MISS:      38093
LLC LOAD      ACCESS:      17572  HIT:        213  MISS:      17359
LLC RFO       ACCESS:      11907  HIT:          0  MISS:      11907
LLC PREFETCH  ACCESS:          0  HIT:          0  MISS:          0
LLC WRITEBACK ACCESS:      11920  HIT:       3093  MISS:       8827
Heartbeat CPU 0 instructions: 54000004 cycles: 21670713 heartbeat IPC: 0.434201 cumulative IPC: 0.436175 (Simulation time: 0 hr 21 min 30 sec) 

Region of Interest Statistics
cpu0_DTLB TOTAL     ACCESS:     856867  HIT:     851613  MISS:       5254
cpu0_DTLB LOAD      ACCESS:     521435  HIT:     518455  MISS:       2980
cpu0_DTLB RFO       ACCESS:     335432  HIT:     333158  MISS:       2274
cpu0_DTLB PREFETCH  ACCESS:          0  HIT:          0  MISS:          0
cpu0_DTLB WRITEBACK ACCESS:          0  HIT:          0  MISS:          0
cpu0_ITLB TOTAL     ACCESS:     234483  HIT:     234483  MISS:          0
cpu0_ITLB LOAD      ACCESS:     234483  HIT:     234483  MISS:          0
cpu0_ITLB RFO       ACCESS:          0  HIT:          0  MISS:          0
cpu0_ITLB PREFETCH  ACCESS:          0  HIT:          0  MISS:          0
cpu0_ITLB WRITEBACK ACCESS:          0  HIT:          0  MISS:          0
cpu0_STLB TOTAL     ACCESS:       5254  HIT:       4406  MISS:        848
cpu0_STLB LOAD      ACCESS:       2980  HIT:       2503  MISS:        477
cpu0_STLB RFO       ACCESS:       2274  HIT:       1903  MISS:        371
cpu0_STLB PREFETCH  ACCESS:          0  HIT:          0  MISS:          0
cpu0_STLB WRITEBACK ACCESS:          0  HIT:          0  MISS:          0
cpu0_L1D TOTAL     ACCESS:    1194564  HIT:    1126996  MISS:      67568
cpu0_L1D LOAD      ACCESS:     533835  HIT:     491809  MISS:      42026
cpu0_L1D RFO       ACCESS:     659882  HIT:     635073  MISS:      24809
cpu0_L1D PREFETCH  ACCESS:          0  HIT:          0  MISS:          0
cpu0_L1D WRITEBACK ACCESS:          0  HIT:          0  MISS:          0
cpu0_L2C TOTAL     ACCESS:      91834  HIT:      33047  MISS:      58787
cpu0_L2C LOAD      ACCESS:      42018  HIT:       7061  MISS:      34957
cpu0_L2C RFO       ACCESS:      24038  HIT:        224  MISS:      23814
cpu0_L2C PREFETCH  ACCESS:          0  HIT:          0  MISS:          0
cpu0_L2C WRITEBACK ACCESS:      25045  HIT:      25029  MISS:         16
LLC TOTAL     ACCESS:      82634  HIT:       5351  MISS:      77283
LLC LOAD      ACCESS:      34957  HIT:        318  MISS:      34639
LLC RFO       ACCESS:      23814  HIT:          0  MISS:      23814
LLC PREFETCH  ACCESS:          0  HIT:          0  MISS:          0
LLC WRITEBACK ACCESS:      23863  HIT:       5033  MISS:      18830
Heartbeat CPU 0 instructions: 56000004 cycles: 26209444 heartbeat IPC: 0.440652 cumulative IPC: 0.437657 (Simulation time: 0 hr 24 min 32 sec) 

Region of Interest Statistics
cpu0_DTLB TOTAL     ACCESS:    1285099  HIT:    1277474  MISS:       7625
cpu0_DTLB LOAD      ACCESS:     782023  HIT:     777650  MISS:       4373
cpu0_DTLB RFO       ACCESS:     503076  HIT:     499824  MISS:       3252
cpu0_DTLB PREFETCH  ACCESS:          0  HIT:          0  MISS:          0
cpu0_DTLB WRITEBACK ACCESS:          0  HIT:          0  MISS:          0
cpu0_ITLB TOTAL     ACCESS:     352025  HIT:     352025  MISS:          0
cpu0_ITLB LOAD      ACCESS:     352025  HIT:     352025  MISS:          0
cpu0_ITLB RFO       ACCESS:          0  HIT:          0  MISS:          0
cpu0_ITLB PREFETCH  ACCESS:          0  HIT:          0  MISS:          0
cpu0_ITLB WRITEBACK ACCESS:          0  HIT:          0  MISS:          0
cpu0_STLB TOTAL     ACCESS:       7625  HIT:       6346  MISS:       1279
cpu0_STLB LOAD      ACCESS:       4373  HIT:       3654  MISS:        719
cpu0_STLB RFO       ACCESS:       3252  HIT:       2692  MISS:        560
cpu0_STLB PREFETCH  ACCESS:          0  HIT:          0  MISS:          0
cpu0_STLB WRITEBACK ACCESS:          0  HIT:          0  MISS:          0
cpu0_L1D TOTAL     ACCESS:    1791916  HIT:    1690575  MISS:     101341
cpu0_L1D LOAD      ACCESS:     800769  HIT:     737727  MISS:      63042
cpu0_L1D RFO       ACCESS:     989869  HIT:     952677  MISS:      37192
cpu0_L1D PREFETCH  ACCESS:          0  HIT:          0  MISS:          0
cpu0_L1D WRITEBACK ACCESS:          0  HIT:          0  MISS:          0
cpu0_L2C TOTAL     ACCESS:     137752  HIT:      49900  MISS:      87852
cpu0_L2C LOAD      ACCESS:      63030  HIT:      10922  MISS:      52108
cpu0_L2C RFO       ACCESS:      36060  HIT:        339  MISS:      35721
cpu0_L2C PREFETCH  ACCESS:          0  HIT:          0  MISS:          0
cpu0_L2C WRITEBACK ACCESS:      37555  HIT:      37532  MISS:         23
LLC TOTAL     ACCESS:     123671  HIT:       7112  MISS:     116559
LLC LOAD      ACCESS:      52108  HIT:        324  MISS:      51784
LLC RFO       ACCESS:      35721  HIT:          0  MISS:      35721
LLC PREFETCH  ACCESS:          0  HIT:          0  MISS:          0
LLC WRITEBACK ACCESS:      35842  HIT:       6788  MISS:      29054
Heartbeat CPU 0 instructions: 58000001 cycles: 30847646 heartbeat IPC: 0.431201 cumulative IPC: 0.436025 (Simulation time: 0 hr 27 min 35 sec) 

Region of Interest Statistics
cpu0_DTLB TOTAL     ACCESS:    1713147  HIT:    1703178  MISS:       9969
cpu0_DTLB LOAD      ACCESS:    1042444  HIT:    1036733  MISS:       5711
cpu0_DTLB RFO       ACCESS:     670703  HIT:     666445  MISS:       4258
cpu0_DTLB PREFETCH  ACCESS:          0  HIT:          0  MISS:          0
cpu0_DTLB WRITEBACK ACCESS:          0  HIT:          0  MISS:          0
cpu0_ITLB TOTAL     ACCESS:     469412  HIT:     469412  MISS:          0
cpu0_ITLB LOAD      ACCESS:     469412  HIT:     469412  MISS:          0
cpu0_ITLB RFO       ACCESS:          0  HIT:          0  MISS:          0
cpu0_ITLB PREFETCH  ACCESS:          0  HIT:          0  MISS:          0
cpu0_ITLB WRITEBACK ACCESS:          0  HIT:          0  MISS:          0
cpu0_STLB TOTAL     ACCESS:       9969  HIT:       8259  MISS:       1710
cpu0_STLB LOAD      ACCESS:       5711  HIT:       4750  MISS:        961
cpu0_STLB RFO       ACCESS:       4258  HIT:       3509  MISS:        749
cpu0_STLB PREFETCH  ACCESS:          0  HIT:          0  MISS:          0
cpu0_STLB WRITEBACK ACCESS:          0  HIT:          0  MISS:          0
cpu0_L1D TOTAL     ACCESS:    2389283  HIT:    2254170  MISS:     135113
cpu0_L1D LOAD      ACCESS:    1067825  HIT:     983770  MISS:      84055
cpu0_L1D RFO       ACCESS:    1319749  HIT:    1270171  MISS:      49578
cpu0_L1D PREFETCH  ACCESS:          0  HIT:          0  MISS:          0
cpu0_L1D WRITEBACK ACCESS:          0  HIT:          0  MISS:          0
cpu0_L2C TOTAL     ACCESS:     183652  HIT:      66779  MISS:     116873
cpu0_L2C LOAD      ACCESS:      84039  HIT:      14825  MISS:      69214
cpu0_L2C RFO       ACCESS:      48081  HIT:        453  MISS:      47628
cpu0_L2C PREFETCH  ACCESS:          0  HIT:          0  MISS:          0
cpu0_L2C WRITEBACK ACCESS:      50052  HIT:      50022  MISS:         30
LLC TOTAL     ACCESS:     164318  HIT:      10484  MISS:     153834
LLC LOAD      ACCESS:      69214  HIT:        400  MISS:      68814
LLC RFO       ACCESS:      47628  HIT:          0  MISS:      47628
LLC PREFETCH  ACCESS:          0  HIT:          0  MISS:          0
LLC WRITEBACK ACCESS:      47475  HIT:      10084  MISS:      37391
Heartbeat CPU 0 instructions: 60000004 cycles: 35367999 heartbeat IPC: 0.442444 cumulative IPC: 0.437294 (Simulation time: 0 hr 30 min 41 sec) 

Region of Interest Statistics
cpu0_DTLB TOTAL     ACCESS:    2141297  HIT:    2128378  MISS:      12919
cpu0_DTLB LOAD      ACCESS:    1302979  HIT:    1295577  MISS:       7402
cpu0_DTLB RFO       ACCESS:     838318  HIT:     832801  MISS:       5517
cpu0_DTLB PREFETCH  ACCESS:          0  HIT:          0  MISS:          0
cpu0_DTLB WRITEBACK ACCESS:          0  HIT:          0  MISS:          0
cpu0_ITLB TOTAL     ACCESS:     586615  HIT:     586615  MISS:          0
cpu0_ITLB LOAD      ACCESS:     586615  HIT:     586615  MISS:          0
cpu0_ITLB RFO       ACCESS:          0  HIT:          0  MISS:          0
cpu0_ITLB PREFETCH  ACCESS:          0  HIT:          0  MISS:          0
cpu0_ITLB WRITEBACK ACCESS:          0  HIT:          0  MISS:          0
cpu0_STLB TOTAL     ACCESS:      12919  HIT:      10791  MISS:       2128
cpu0_STLB LOAD      ACCESS:       7402  HIT:       6205  MISS:       1197
cpu0_STLB RFO       ACCESS:       5517  HIT:       4586  MISS:        931
cpu0_STLB PREFETCH  ACCESS:          0  HIT:          0  MISS:          0
cpu0_STLB WRITEBACK ACCESS:          0  HIT:          0  MISS:          0
cpu0_L1D TOTAL     ACCESS:    2986354  HIT:    2817488  MISS:     168866
cpu0_L1D LOAD      ACCESS:    1334615  HIT:    1229563  MISS:     105052
cpu0_L1D RFO       ACCESS:    1649612  HIT:    1587639  MISS:      61973
cpu0_L1D PREFETCH  ACCESS:          0  HIT:          0  MISS:          0
cpu0_L1D WRITEBACK ACCESS:          0  HIT:          0  MISS:          0
cpu0_L2C TOTAL     ACCESS:     229528  HIT:      83502  MISS:     146026
cpu0_L2C LOAD      ACCESS:     105033  HIT:      18582  MISS:      86451
cpu0_L2C RFO       ACCESS:      60090  HIT:        554  MISS:      59536
cpu0_L2C PREFETCH  ACCESS:          0  HIT:          0  MISS:          0
cpu0_L2C WRITEBACK ACCESS:      62564  HIT:      62526  MISS:         38
LLC TOTAL     ACCESS:     205685  HIT:      13280  MISS:     192405
LLC LOAD      ACCESS:      86451  HIT:        416  MISS:      86035
LLC RFO       ACCESS:      59536  HIT:          0  MISS:      59536
LLC PREFETCH  ACCESS:          0  HIT:          0  MISS:          0
LLC WRITEBACK ACCESS:      59697  HIT:      12864  MISS:      46833
Heartbeat CPU 0 instructions: 62000003 cycles: 39932756 heartbeat IPC: 0.438139 cumulative IPC: 0.437435 (Simulation time: 0 hr 33 min 33 sec) 

Region of Interest Statistics
cpu0_DTLB TOTAL     ACCESS:    2569271  HIT:    2554002  MISS:      15269
cpu0_DTLB LOAD      ACCESS:    1563337  HIT:    1554555  MISS:       8782
cpu0_DTLB RFO       ACCESS:    1005934  HIT:     999447  MISS:       6487
cpu0_DTLB PREFETCH  ACCESS:          0  HIT:          0  MISS:          0
cpu0_DTLB WRITEBACK ACCESS:          0  HIT:          0  MISS:          0
cpu0_ITLB TOTAL     ACCESS:     704020  HIT:     704020  MISS:          0
cpu0_ITLB LOAD      ACCESS:     704020  HIT:     704020  MISS:          0
cpu0_ITLB RFO       ACCESS:          0  HIT:          0  MISS:          0
cpu0_ITLB PREFETCH  ACCESS:          0  HIT:          0  MISS:          0
cpu0_ITLB WRITEBACK ACCESS:          0  HIT:          0  MISS:          0
cpu0_STLB TOTAL     ACCESS:      15269  HIT:      12710  MISS:       2559
cpu0_STLB LOAD      ACCESS:       8782  HIT:       7343  MISS:       1439
cpu0_STLB RFO       ACCESS:       6487  HIT:       5367  MISS:       1120
cpu0_STLB PREFETCH  ACCESS:          0  HIT:          0  MISS:          0
cpu0_STLB WRITEBACK ACCESS:          0  HIT:          0  MISS:          0
cpu0_L1D TOTAL     ACCESS:    3583451  HIT:    3380784  MISS:     202667
cpu0_L1D LOAD      ACCESS:    1601339  HIT:    1475271  MISS:     126068
cpu0_L1D RFO       ACCESS:    1979554  HIT:    1905168  MISS:      74386
cpu0_L1D PREFETCH  ACCESS:          0  HIT:          0  MISS:          0
cpu0_L1D WRITEBACK ACCESS:          0  HIT:          0  MISS:          0
cpu0_L2C TOTAL     ACCESS:     275457  HIT:     100307  MISS:     175150
cpu0_L2C LOAD      ACCESS:     126045  HIT:      22395  MISS:     103650
cpu0_L2C RFO       ACCESS:      72109  HIT:        660  MISS:      71449
cpu0_L2C PREFETCH  ACCESS:          0  HIT:          0  MISS:          0
cpu0_L2C WRITEBACK ACCESS:      75090  HIT:      75040  MISS:         50
LLC TOTAL     ACCESS:     246654  HIT:      16293  MISS:     230361
LLC LOAD      ACCESS:     103650  HIT:        502  MISS:     103148
LLC RFO       ACCESS:      71449  HIT:          0  MISS:      71449
LLC PREFETCH  ACCESS:          0  HIT:          0  MISS:          0
LLC WRITEBACK ACCESS:      71554  HIT:      15791  MISS:      55763
Heartbeat CPU 0 instructions: 64000000 cycles: 44404128 heartbeat IPC: 0.447289 cumulative IPC: 0.438816 (Simulation time: 0 hr 36 min 27 sec) 

Region of Interest Statistics
cpu0_DTLB TOTAL     ACCESS:    2997352  HIT:    2979747  MISS:      17605
cpu0_DTLB LOAD      ACCESS:    1823805  HIT:    1813695  MISS:      10110
cpu0_DTLB RFO       ACCESS:    1173547  HIT:    1166052  MISS:       7495
cpu0_DTLB PREFETCH  ACCESS:          0  HIT:          0  MISS:          0
cpu0_DTLB WRITEBACK ACCESS:          0  HIT:          0  MISS:          0
cpu0_ITLB TOTAL     ACCESS:     821489  HIT:     821489  MISS:          0
cpu0_ITLB LOAD      ACCESS:     821489  HIT:     821489  MISS:          0
cpu0_ITLB RFO       ACCESS:          0  HIT:          0  MISS:          0
cpu0_ITLB PREFETCH  ACCESS:          0  HIT:          0  MISS:          0
cpu0_ITLB WRITEBACK ACCESS:          0  HIT:          0  MISS:          0
cpu0_STLB TOTAL     ACCESS:      17605  HIT:      14627  MISS:       2978
cpu0_STLB LOAD      ACCESS:      10110  HIT:       8434  MISS:       1676
cpu0_STLB RFO       ACCESS:       7495  HIT:       6193  MISS:       1302
cpu0_STLB PREFETCH  ACCESS:          0  HIT:          0  MISS:          0
cpu0_STLB WRITEBACK ACCESS:          0  HIT:          0  MISS:          0
cpu0_L1D TOTAL     ACCESS:    4180546  HIT:    3944160  MISS:     236386
cpu0_L1D LOAD      ACCESS:    1868050  HIT:    1720988  MISS:     147062
cpu0_L1D RFO       ACCESS:    2309519  HIT:    2222771  MISS:      86748
cpu0_L1D PREFETCH  ACCESS:          0  HIT:          0  MISS:          0
cpu0_L1D WRITEBACK ACCESS:          0  HIT:          0  MISS:          0
cpu0_L2C TOTAL     ACCESS:     321301  HIT:     116925  MISS:     204376
cpu0_L2C LOAD      ACCESS:     147033  HIT:      26071  MISS:     120962
cpu0_L2C RFO       ACCESS:      84119  HIT:        763  MISS:      83356
cpu0_L2C PREFETCH  ACCESS:          0  HIT:          0  MISS:          0
cpu0_L2C WRITEBACK ACCESS:      87573  HIT:      87517  MISS:         56
LLC TOTAL     ACCESS:     287960  HIT:      19626  MISS:     268334
LLC LOAD      ACCESS:     120962  HIT:        669  MISS:     120293
LLC RFO       ACCESS:      83356  HIT:          0  MISS:      83356
LLC PREFETCH  ACCESS:          0  HIT:          0  MISS:          0
LLC WRITEBACK ACCESS:      83640  HIT:      18957  MISS:      64683
Heartbeat CPU 0 instructions: 66000000 cycles: 49063036 heartbeat IPC: 0.429285 cumulative IPC: 0.437601 (Simulation time: 0 hr 38 min 16 sec) 

Region of Interest Statistics
cpu0_DTLB TOTAL     ACCESS:    3425642  HIT:    3405088  MISS:      20554
cpu0_DTLB LOAD      ACCESS:    2084443  HIT:    2072647  MISS:      11796
cpu0_DTLB RFO       ACCESS:    1341199  HIT:    1332441  MISS:       8758
cpu0_DTLB PREFETCH  ACCESS:          0  HIT:          0  MISS:          0
cpu0_DTLB WRITEBACK ACCESS:          0  HIT:          0  MISS:          0
cpu0_ITLB TOTAL     ACCESS:     938597  HIT:     938597  MISS:          0
cpu0_ITLB LOAD      ACCESS:     938597  HIT:     938597  MISS:          0
cpu0_ITLB RFO       ACCESS:          0  HIT:          0  MISS:          0
cpu0_ITLB PREFETCH  ACCESS:          0  HIT:          0  MISS:          0
cpu0_ITLB WRITEBACK ACCESS:          0  HIT:          0  MISS:          0
cpu0_STLB TOTAL     ACCESS:      20554  HIT:      17145  MISS:       3409
cpu0_STLB LOAD      ACCESS:      11796  HIT:       9878  MISS:       1918
cpu0_STLB RFO       ACCESS:       8758  HIT:       7267  MISS:       1491
cpu0_STLB PREFETCH  ACCESS:          0  HIT:          0  MISS:          0
cpu0_STLB WRITEBACK ACCESS:          0  HIT:          0  MISS:          0
cpu0_L1D TOTAL     ACCESS:    4777625  HIT:    4507430  MISS:     270195
cpu0_L1D LOAD      ACCESS:    2134832  HIT:    1966751  MISS:     168081
cpu0_L1D RFO       ACCESS:    2639385  HIT:    2540219  MISS:      99166
cpu0_L1D PREFETCH  ACCESS:          0  HIT:          0  MISS:          0
cpu0_L1D WRITEBACK ACCESS:          0  HIT:          0  MISS:          0
cpu0_L2C TOTAL     ACCESS:     367252  HIT:     133542  MISS:     233710
cpu0_L2C LOAD      ACCESS:     168048  HIT:      29668  MISS:     138380
cpu0_L2C RFO       ACCESS:      96143  HIT:        880  MISS:      95263
cpu0_L2C PREFETCH  ACCESS:          0  HIT:          0  MISS:          0
cpu0_L2C WRITEBACK ACCESS:     100113  HIT:     100048  MISS:         65
LLC TOTAL     ACCESS:     329116  HIT:      22602  MISS:     306514
LLC LOAD      ACCESS:     138380  HIT:        835  MISS:     137545
LLC RFO       ACCESS:      95263  HIT:          0  MISS:      95263
LLC PREFETCH  ACCESS:          0  HIT:          0  MISS:          0
LLC WRITEBACK ACCESS:      95471  HIT:      21767  MISS:      73704
Heartbeat CPU 0 instructions: 68000002 cycles: 53608434 heartbeat IPC: 0.440006 cumulative IPC: 0.437867 (Simulation time: 0 hr 41 min 11 sec) 

Region of Interest Statistics
cpu0_DTLB TOTAL     ACCESS:    3853876  HIT:    3830999  MISS:      22877
cpu0_DTLB LOAD      ACCESS:    2345035  HIT:    2331884  MISS:      13151
cpu0_DTLB RFO       ACCESS:    1508841  HIT:    1499115  MISS:       9726
cpu0_DTLB PREFETCH  ACCESS:          0  HIT:          0  MISS:          0
cpu0_DTLB WRITEBACK ACCESS:          0  HIT:          0  MISS:          0
cpu0_ITLB TOTAL     ACCESS:    1055950  HIT:    1055950  MISS:          0
cpu0_ITLB LOAD      ACCESS:    1055950  HIT:    1055950  MISS:          0
cpu0_ITLB RFO       ACCESS:          0  HIT:          0  MISS:          0
cpu0_ITLB PREFETCH  ACCESS:          0  HIT:          0  MISS:          0
cpu0_ITLB WRITEBACK ACCESS:          0  HIT:          0  MISS:          0
cpu0_STLB TOTAL     ACCESS:      22877  HIT:      19048  MISS:       3829
cpu0_STLB LOAD      ACCESS:      13151  HIT:      10995  MISS:       2156
cpu0_STLB RFO       ACCESS:       9726  HIT:       8053  MISS:       1673
cpu0_STLB PREFETCH  ACCESS:          0  HIT:          0  MISS:          0
cpu0_STLB WRITEBACK ACCESS:          0  HIT:          0  MISS:          0
cpu0_L1D TOTAL     ACCESS:    5374692  HIT:    5070771  MISS:     303921
cpu0_L1D LOAD      ACCESS:    2401557  HIT:    2212490  MISS:     189067
cpu0_L1D RFO       ACCESS:    2969307  HIT:    2857765  MISS:     111542
cpu0_L1D PREFETCH  ACCESS:          0  HIT:          0  MISS:          0
cpu0_L1D WRITEBACK ACCESS:          0  HIT:          0  MISS:          0
cpu0_L2C TOTAL     ACCESS:     413098  HIT:     150222  MISS:     262876
cpu0_L2C LOAD      ACCESS:     189030  HIT:      33399  MISS:     155631
cpu0_L2C RFO       ACCESS:     108154  HIT:        984  MISS:     107170
cpu0_L2C PREFETCH  ACCESS:          0  HIT:          0  MISS:          0
cpu0_L2C WRITEBACK ACCESS:     112602  HIT:     112529  MISS:         73
LLC TOTAL     ACCESS:     370089  HIT:      24892  MISS:     345197
LLC LOAD      ACCESS:     155631  HIT:        840  MISS:     154791
LLC RFO       ACCESS:     107170  HIT:          0  MISS:     107170
LLC PREFETCH  ACCESS:          0  HIT:          0  MISS:          0
LLC WRITEBACK ACCESS:     107286  HIT:      24052  MISS:      83234
Heartbeat CPU 0 instructions: 70000004 cycles: 58282756 heartbeat IPC: 0.42787 cumulative IPC: 0.436846 (Simulation time: 0 hr 44 min 58 sec) 

Region of Interest Statistics
cpu0_DTLB TOTAL     ACCESS:    4282319  HIT:    4257101  MISS:      25218
cpu0_DTLB LOAD      ACCESS:    2605844  HIT:    2591367  MISS:      14477
cpu0_DTLB RFO       ACCESS:    1676475  HIT:    1665734  MISS:      10741
cpu0_DTLB PREFETCH  ACCESS:          0  HIT:          0  MISS:          0
cpu0_DTLB WRITEBACK ACCESS:          0  HIT:          0  MISS:          0
cpu0_ITLB TOTAL     ACCESS:    1173337  HIT:    1173337  MISS:          0
cpu0_ITLB LOAD      ACCESS:    1173337  HIT:    1173337  MISS:          0
cpu0_ITLB RFO       ACCESS:          0  HIT:          0  MISS:          0
cpu0_ITLB PREFETCH  ACCESS:          0  HIT:          0  MISS:          0
cpu0_ITLB WRITEBACK ACCESS:          0  HIT:          0  MISS:          0
cpu0_STLB TOTAL     ACCESS:      25218  HIT:      20961  MISS:       4257
cpu0_STLB LOAD      ACCESS:      14477  HIT:      12082  MISS:       2395
cpu0_STLB RFO       ACCESS:      10741  HIT:       8879  MISS:       1862
cpu0_STLB PREFETCH  ACCESS:          0  HIT:          0  MISS:          0
cpu0_STLB WRITEBACK ACCESS:          0  HIT:          0  MISS:          0
cpu0_L1D TOTAL     ACCESS:    5971673  HIT:    5633971  MISS:     337702
cpu0_L1D LOAD      ACCESS:    2668115  HIT:    2458029  MISS:     210086
cpu0_L1D RFO       ACCESS:    3299302  HIT:    3175365  MISS:     123937
cpu0_L1D PREFETCH  ACCESS:          0  HIT:          0  MISS:          0
cpu0_L1D WRITEBACK ACCESS:          0  HIT:          0  MISS:          0
cpu0_L2C TOTAL     ACCESS:     459027  HIT:     166670  MISS:     292357
cpu0_L2C LOAD      ACCESS:     210044  HIT:      36846  MISS:     173198
cpu0_L2C RFO       ACCESS:     120175  HIT:       1098  MISS:     119077
cpu0_L2C PREFETCH  ACCESS:          0  HIT:          0  MISS:          0
cpu0_L2C WRITEBACK ACCESS:     125129  HIT:     125049  MISS:         80
LLC TOTAL     ACCESS:     411433  HIT:      27561  MISS:     383872
LLC LOAD      ACCESS:     173198  HIT:        980  MISS:     172218
LLC RFO       ACCESS:     119077  HIT:          0  MISS:     119077
LLC PREFETCH  ACCESS:          0  HIT:          0  MISS:          0
LLC WRITEBACK ACCESS:     119156  HIT:      26581  MISS:      92575
Heartbeat CPU 0 instructions: 72000001 cycles: 62861547 heartbeat IPC: 0.436796 cumulative IPC: 0.436842 (Simulation time: 0 hr 47 min 43 sec) 

Region of Interest Statistics
cpu0_DTLB TOTAL     ACCESS:    4710630  HIT:    4682452  MISS:      28178
cpu0_DTLB LOAD      ACCESS:    2866400  HIT:    2850227  MISS:      16173
cpu0_DTLB RFO       ACCESS:    1844230  HIT:    1832225  MISS:      12005
cpu0_DTLB PREFETCH  ACCESS:          0  HIT:          0  MISS:          0
cpu0_DTLB WRITEBACK ACCESS:          0  HIT:          0  MISS:          0
cpu0_ITLB TOTAL     ACCESS:    1290649  HIT:    1290649  MISS:          0
cpu0_ITLB LOAD      ACCESS:    1290649  HIT:    1290649  MISS:          0
cpu0_ITLB RFO       ACCESS:          0  HIT:          0  MISS:          0
cpu0_ITLB PREFETCH  ACCESS:          0  HIT:          0  MISS:          0
cpu0_ITLB WRITEBACK ACCESS:          0  HIT:          0  MISS:          0
cpu0_STLB TOTAL     ACCESS:      28178  HIT:      23492  MISS:       4686
cpu0_STLB LOAD      ACCESS:      16173  HIT:      13538  MISS:       2635
cpu0_STLB RFO       ACCESS:      12005  HIT:       9954  MISS:       2051
cpu0_STLB PREFETCH  ACCESS:          0  HIT:          0  MISS:          0
cpu0_STLB WRITEBACK ACCESS:          0  HIT:          0  MISS:          0
cpu0_L1D TOTAL     ACCESS:    6569543  HIT:    6198037  MISS:     371506
cpu0_L1D LOAD      ACCESS:    2935589  HIT:    2704481  MISS:     231108
cpu0_L1D RFO       ACCESS:    3629269  HIT:    3492921  MISS:     136348
cpu0_L1D PREFETCH  ACCESS:          0  HIT:          0  MISS:          0
cpu0_L1D WRITEBACK ACCESS:          0  HIT:          0  MISS:          0
cpu0_L2C TOTAL     ACCESS:     504977  HIT:     183723  MISS:     321254
cpu0_L2C LOAD      ACCESS:     231063  HIT:      40880  MISS:     190183
cpu0_L2C RFO       ACCESS:     132203  HIT:       1219  MISS:     130984
cpu0_L2C PREFETCH  ACCESS:          0  HIT:          0  MISS:          0
cpu0_L2C WRITEBACK ACCESS:     137661  HIT:     137576  MISS:         85
LLC TOTAL     ACCESS:     452400  HIT:      29610  MISS:     422790
LLC LOAD      ACCESS:     190183  HIT:       1047  MISS:     189136
LLC RFO       ACCESS:     130984  HIT:          0  MISS:     130984
LLC PREFETCH  ACCESS:          0  HIT:          0  MISS:          0
LLC WRITEBACK ACCESS:     131231  HIT:      28563  MISS:     102668
Heartbeat CPU 0 instructions: 74000002 cycles: 67526268 heartbeat IPC: 0.42875 cumulative IPC: 0.436156 (Simulation time: 0 hr 50 min 49 sec) 

Region of Interest Statistics
cpu0_DTLB TOTAL     ACCESS:    5138829  HIT:    5108557  MISS:      30272
cpu0_DTLB LOAD      ACCESS:    3126738  HIT:    3109337  MISS:      17401
cpu0_DTLB RFO       ACCESS:    2012091  HIT:    1999220  MISS:      12871
cpu0_DTLB PREFETCH  ACCESS:          0  HIT:          0  MISS:          0
cpu0_DTLB WRITEBACK ACCESS:          0  HIT:          0  MISS:          0
cpu0_ITLB TOTAL     ACCESS:    1408428  HIT:    1408428  MISS:          0
cpu0_ITLB LOAD      ACCESS:    1408428  HIT:    1408428  MISS:          0
cpu0_ITLB RFO       ACCESS:          0  HIT:          0  MISS:          0
cpu0_ITLB PREFETCH  ACCESS:          0  HIT:          0  MISS:          0
cpu0_ITLB WRITEBACK ACCESS:          0  HIT:          0  MISS:          0
cpu0_STLB TOTAL     ACCESS:      30272  HIT:      25148  MISS:       5124
cpu0_STLB LOAD      ACCESS:      17401  HIT:      14510  MISS:       2891
cpu0_STLB RFO       ACCESS:      12871  HIT:      10638  MISS:       2233
cpu0_STLB PREFETCH  ACCESS:          0  HIT:          0  MISS:          0
cpu0_STLB WRITEBACK ACCESS:          0  HIT:          0  MISS:          0
cpu0_L1D TOTAL     ACCESS:    7166625  HIT:    6761360  MISS:     405265
cpu0_L1D LOAD      ACCESS:    3202233  HIT:    2950125  MISS:     252108
cpu0_L1D RFO       ACCESS:    3959269  HIT:    3810530  MISS:     148739
cpu0_L1D PREFETCH  ACCESS:          0  HIT:          0  MISS:          0
cpu0_L1D WRITEBACK ACCESS:          0  HIT:          0  MISS:          0
cpu0_L2C TOTAL     ACCESS:     550853  HIT:     200217  MISS:     350636
cpu0_L2C LOAD      ACCESS:     252060  HIT:      44411  MISS:     207649
cpu0_L2C RFO       ACCESS:     144212  HIT:       1321  MISS:     142891
cpu0_L2C PREFETCH  ACCESS:          0  HIT:          0  MISS:          0
cpu0_L2C WRITEBACK ACCESS:     150163  HIT:     150070  MISS:         93
LLC TOTAL     ACCESS:     493743  HIT:      32387  MISS:     461356
LLC LOAD      ACCESS:     207649  HIT:       1091  MISS:     206558
LLC RFO       ACCESS:     142891  HIT:          0  MISS:     142891
LLC PREFETCH  ACCESS:          0  HIT:          0  MISS:          0
LLC WRITEBACK ACCESS:     143200  HIT:      31296  MISS:     111904
Heartbeat CPU 0 instructions: 76000004 cycles: 72048523 heartbeat IPC: 0.442258 cumulative IPC: 0.436619 (Simulation time: 0 hr 53 min 45 sec) 

Region of Interest Statistics
cpu0_DTLB TOTAL     ACCESS:    5567074  HIT:    5534197  MISS:      32877
cpu0_DTLB LOAD      ACCESS:    3387372  HIT:    3368489  MISS:      18883
cpu0_DTLB RFO       ACCESS:    2179702  HIT:    2165708  MISS:      13994
cpu0_DTLB PREFETCH  ACCESS:          0  HIT:          0  MISS:          0
cpu0_DTLB WRITEBACK ACCESS:          0  HIT:          0  MISS:          0
cpu0_ITLB TOTAL     ACCESS:    1525779  HIT:    1525779  MISS:          0
cpu0_ITLB LOAD      ACCESS:    1525779  HIT:    1525779  MISS:          0
cpu0_ITLB RFO       ACCESS:          0  HIT:          0  MISS:          0
cpu0_ITLB PREFETCH  ACCESS:          0  HIT:          0  MISS:          0
cpu0_ITLB WRITEBACK ACCESS:          0  HIT:          0  MISS:          0
cpu0_STLB TOTAL     ACCESS:      32877  HIT:      27320  MISS:       5557
cpu0_STLB LOAD      ACCESS:      18883  HIT:      15748  MISS:       3135
cpu0_STLB RFO       ACCESS:      13994  HIT:      11572  MISS:       2422
cpu0_STLB PREFETCH  ACCESS:          0  HIT:          0  MISS:          0
cpu0_STLB WRITEBACK ACCESS:          0  HIT:          0  MISS:          0
cpu0_L1D TOTAL     ACCESS:    7763806  HIT:    7324750  MISS:     439056
cpu0_L1D LOAD      ACCESS:    3468925  HIT:    3195784  MISS:     273141
cpu0_L1D RFO       ACCESS:    4289325  HIT:    4128201  MISS:     161124
cpu0_L1D PREFETCH  ACCESS:          0  HIT:          0  MISS:          0
cpu0_L1D WRITEBACK ACCESS:          0  HIT:          0  MISS:          0
cpu0_L2C TOTAL     ACCESS:     596803  HIT:     216750  MISS:     380053
cpu0_L2C LOAD      ACCESS:     273089  HIT:      47938  MISS:     225151
cpu0_L2C RFO       ACCESS:     156235  HIT:       1437  MISS:     154798
cpu0_L2C PREFETCH  ACCESS:          0  HIT:          0  MISS:          0
cpu0_L2C WRITEBACK ACCESS:     162688  HIT:     162588  MISS:        100
LLC TOTAL     ACCESS:     535044  HIT:      34847  MISS:     500197
LLC LOAD      ACCESS:     225151  HIT:       1233  MISS:     223918
LLC RFO       ACCESS:     154798  HIT:          0  MISS:     154798
LLC PREFETCH  ACCESS:          0  HIT:          0  MISS:          0
LLC WRITEBACK ACCESS:     155091  HIT:      33614  MISS:     121477
Heartbeat CPU 0 instructions: 78000002 cycles: 76703362 heartbeat IPC: 0.42966 cumulative IPC: 0.436115 (Simulation time: 0 hr 56 min 52 sec) 

Region of Interest Statistics
cpu0_DTLB TOTAL     ACCESS:    5995280  HIT:    5959458  MISS:      35822
cpu0_DTLB LOAD      ACCESS:    3647879  HIT:    3627307  MISS:      20572
cpu0_DTLB RFO       ACCESS:    2347401  HIT:    2332151  MISS:      15250
cpu0_DTLB PREFETCH  ACCESS:          0  HIT:          0  MISS:          0
cpu0_DTLB WRITEBACK ACCESS:          0  HIT:          0  MISS:          0
cpu0_ITLB TOTAL     ACCESS:    1642878  HIT:    1642878  MISS:          0
cpu0_ITLB LOAD      ACCESS:    1642878  HIT:    1642878  MISS:          0
cpu0_ITLB RFO       ACCESS:          0  HIT:          0  MISS:          0
cpu0_ITLB PREFETCH  ACCESS:          0  HIT:          0  MISS:          0
cpu0_ITLB WRITEBACK ACCESS:          0  HIT:          0  MISS:          0
cpu0_STLB TOTAL     ACCESS:      35822  HIT:      29847  MISS:       5975
cpu0_STLB LOAD      ACCESS:      20572  HIT:      17201  MISS:       3371
cpu0_STLB RFO       ACCESS:      15250  HIT:      12646  MISS:       2604
cpu0_STLB PREFETCH  ACCESS:          0  HIT:          0  MISS:          0
cpu0_STLB WRITEBACK ACCESS:          0  HIT:          0  MISS:          0
cpu0_L1D TOTAL     ACCESS:    8361020  HIT:    7888217  MISS:     472803
cpu0_L1D LOAD      ACCESS:    3735858  HIT:    3441701  MISS:     294157
cpu0_L1D RFO       ACCESS:    4619188  HIT:    4445695  MISS:     173493
cpu0_L1D PREFETCH  ACCESS:          0  HIT:          0  MISS:          0
cpu0_L1D WRITEBACK ACCESS:          0  HIT:          0  MISS:          0
cpu0_L2C TOTAL     ACCESS:     642673  HIT:     233397  MISS:     409276
cpu0_L2C LOAD      ACCESS:     294101  HIT:      51643  MISS:     242458
cpu0_L2C RFO       ACCESS:     168251  HIT:       1546  MISS:     166705
cpu0_L2C PREFETCH  ACCESS:          0  HIT:          0  MISS:          0
cpu0_L2C WRITEBACK ACCESS:     175168  HIT:     175059  MISS:        109
LLC TOTAL     ACCESS:     576054  HIT:      36855  MISS:     539199
LLC LOAD      ACCESS:     242458  HIT:       1377  MISS:     241081
LLC RFO       ACCESS:     166705  HIT:          0  MISS:     166705
LLC PREFETCH  ACCESS:          0  HIT:          0  MISS:          0
LLC WRITEBACK ACCESS:     166887  HIT:      35478  MISS:     131409
Heartbeat CPU 0 instructions: 80000004 cycles: 81414702 heartbeat IPC: 0.424508 cumulative IPC: 0.435321 (Simulation time: 1 hr 0 min 2 sec) 

Region of Interest Statistics
cpu0_DTLB TOTAL     ACCESS:    6423900  HIT:    6386218  MISS:      37682
cpu0_DTLB LOAD      ACCESS:    3908803  HIT:    3887151  MISS:      21652
cpu0_DTLB RFO       ACCESS:    2515097  HIT:    2499067  MISS:      16030
cpu0_DTLB PREFETCH  ACCESS:          0  HIT:          0  MISS:          0
cpu0_DTLB WRITEBACK ACCESS:          0  HIT:          0  MISS:          0
cpu0_ITLB TOTAL     ACCESS:    1760464  HIT:    1760464  MISS:          0
cpu0_ITLB LOAD      ACCESS:    1760464  HIT:    1760464  MISS:          0
cpu0_ITLB RFO       ACCESS:          0  HIT:          0  MISS:          0
cpu0_ITLB PREFETCH  ACCESS:          0  HIT:          0  MISS:          0
cpu0_ITLB WRITEBACK ACCESS:          0  HIT:          0  MISS:          0
cpu0_STLB TOTAL     ACCESS:      37682  HIT:      31276  MISS:       6406
cpu0_STLB LOAD      ACCESS:      21652  HIT:      18039  MISS:       3613
cpu0_STLB RFO       ACCESS:      16030  HIT:      13237  MISS:       2793
cpu0_STLB PREFETCH  ACCESS:          0  HIT:          0  MISS:          0
cpu0_STLB WRITEBACK ACCESS:          0  HIT:          0  MISS:          0
cpu0_L1D TOTAL     ACCESS:    8958051  HIT:    8451456  MISS:     506595
cpu0_L1D LOAD      ACCESS:    4002539  HIT:    3687356  MISS:     315183
cpu0_L1D RFO       ACCESS:    4949107  HIT:    4763218  MISS:     185889
cpu0_L1D PREFETCH  ACCESS:          0  HIT:          0  MISS:          0
cpu0_L1D WRITEBACK ACCESS:          0  HIT:          0  MISS:          0
cpu0_L2C TOTAL     ACCESS:     688601  HIT:     249868  MISS:     438733
cpu0_L2C LOAD      ACCESS:     315123  HIT:      55123  MISS:     260000
cpu0_L2C RFO       ACCESS:     180268  HIT:       1656  MISS:     178612
cpu0_L2C PREFETCH  ACCESS:          0  HIT:          0  MISS:          0
cpu0_L2C WRITEBACK ACCESS:     187687  HIT:     187570  MISS:        117
LLC TOTAL     ACCESS:     617710  HIT:      39601  MISS:     578109
LLC LOAD      ACCESS:     260000  HIT:       1440  MISS:     258560
LLC RFO       ACCESS:     178612  HIT:          0  MISS:     178612
LLC PREFETCH  ACCESS:          0  HIT:          0  MISS:          0
LLC WRITEBACK ACCESS:     179094  HIT:      38161  MISS:     140933
Heartbeat CPU 0 instructions: 82000001 cycles: 85928781 heartbeat IPC: 0.443058 cumulative IPC: 0.435797 (Simulation time: 1 hr 3 min 5 sec) 

Region of Interest Statistics
cpu0_DTLB TOTAL     ACCESS:    6851981  HIT:    6811468  MISS:      40513
cpu0_DTLB LOAD      ACCESS:    4169284  HIT:    4146010  MISS:      23274
cpu0_DTLB RFO       ACCESS:    2682697  HIT:    2665458  MISS:      17239
cpu0_DTLB PREFETCH  ACCESS:          0  HIT:          0  MISS:          0
cpu0_DTLB WRITEBACK ACCESS:          0  HIT:          0  MISS:          0
cpu0_ITLB TOTAL     ACCESS:    1877752  HIT:    1877752  MISS:          0
cpu0_ITLB LOAD      ACCESS:    1877752  HIT:    1877752  MISS:          0
cpu0_ITLB RFO       ACCESS:          0  HIT:          0  MISS:          0
cpu0_ITLB PREFETCH  ACCESS:          0  HIT:          0  MISS:          0
cpu0_ITLB WRITEBACK ACCESS:          0  HIT:          0  MISS:          0
cpu0_STLB TOTAL     ACCESS:      40513  HIT:      33677  MISS:       6836
cpu0_STLB LOAD      ACCESS:      23274  HIT:      19420  MISS:       3854
cpu0_STLB RFO       ACCESS:      17239  HIT:      14257  MISS:       2982
cpu0_STLB PREFETCH  ACCESS:          0  HIT:          0  MISS:          0
cpu0_STLB WRITEBACK ACCESS:          0  HIT:          0  MISS:          0
cpu0_L1D TOTAL     ACCESS:    9555121  HIT:    9014752  MISS:     540369
cpu0_L1D LOAD      ACCESS:    4269184  HIT:    3932995  MISS:     336189
cpu0_L1D RFO       ACCESS:    5279103  HIT:    5080819  MISS:     198284
cpu0_L1D PREFETCH  ACCESS:          0  HIT:          0  MISS:          0
cpu0_L1D WRITEBACK ACCESS:          0  HIT:          0  MISS:          0
cpu0_L2C TOTAL     ACCESS:     734503  HIT:     266364  MISS:     468139
cpu0_L2C LOAD      ACCESS:     336125  HIT:      58642  MISS:     277483
cpu0_L2C RFO       ACCESS:     192296  HIT:       1770  MISS:     190526
cpu0_L2C PREFETCH  ACCESS:          0  HIT:          0  MISS:          0
cpu0_L2C WRITEBACK ACCESS:     200186  HIT:     200060  MISS:        126
LLC TOTAL     ACCESS:     658567  HIT:      41800  MISS:     616767
LLC LOAD      ACCESS:     277483  HIT:       1578  MISS:     275905
LLC RFO       ACCESS:     190526  HIT:          0  MISS:     190526
LLC PREFETCH  ACCESS:          0  HIT:          0  MISS:          0
LLC WRITEBACK ACCESS:     190554  HIT:      40222  MISS:     150332
Heartbeat CPU 0 instructions: 84000001 cycles: 90540560 heartbeat IPC: 0.433672 cumulative IPC: 0.435671 (Simulation time: 1 hr 6 min 12 sec) 

Region of Interest Statistics
cpu0_DTLB TOTAL     ACCESS:    7280280  HIT:    7236819  MISS:      43461
cpu0_DTLB LOAD      ACCESS:    4429977  HIT:    4404999  MISS:      24978
cpu0_DTLB RFO       ACCESS:    2850303  HIT:    2831820  MISS:      18483
cpu0_DTLB PREFETCH  ACCESS:          0  HIT:          0  MISS:          0
cpu0_DTLB WRITEBACK ACCESS:          0  HIT:          0  MISS:          0
cpu0_ITLB TOTAL     ACCESS:    1994892  HIT:    1994892  MISS:          0
cpu0_ITLB LOAD      ACCESS:    1994892  HIT:    1994892  MISS:          0
cpu0_ITLB RFO       ACCESS:          0  HIT:          0  MISS:          0
cpu0_ITLB PREFETCH  ACCESS:          0  HIT:          0  MISS:          0
cpu0_ITLB WRITEBACK ACCESS:          0  HIT:          0  MISS:          0
cpu0_STLB TOTAL     ACCESS:      43461  HIT:      36207  MISS:       7254
cpu0_STLB LOAD      ACCESS:      24978  HIT:      20888  MISS:       4090
cpu0_STLB RFO       ACCESS:      18483  HIT:      15319  MISS:       3164
cpu0_STLB PREFETCH  ACCESS:          0  HIT:          0  MISS:          0
cpu0_STLB WRITEBACK ACCESS:          0  HIT:          0  MISS:          0
cpu0_L1D TOTAL     ACCESS:   10152203  HIT:    9578037  MISS:     574166
cpu0_L1D LOAD      ACCESS:    4535915  HIT:    4178709  MISS:     357206
cpu0_L1D RFO       ACCESS:    5609036  HIT:    5398333  MISS:     210703
cpu0_L1D PREFETCH  ACCESS:          0  HIT:          0  MISS:          0
cpu0_L1D WRITEBACK ACCESS:          0  HIT:          0  MISS:          0
cpu0_L2C TOTAL     ACCESS:     780433  HIT:     282974  MISS:     497459
cpu0_L2C LOAD      ACCESS:     357136  HIT:      62249  MISS:     294887
cpu0_L2C RFO       ACCESS:     204311  HIT:       1878  MISS:     202433
cpu0_L2C PREFETCH  ACCESS:          0  HIT:          0  MISS:          0
cpu0_L2C WRITEBACK ACCESS:     212729  HIT:     212594  MISS:        135
LLC TOTAL     ACCESS:     700079  HIT:      43791  MISS:     656288
LLC LOAD      ACCESS:     294887  HIT:       1585  MISS:     293302
LLC RFO       ACCESS:     202433  HIT:          0  MISS:     202433
LLC PREFETCH  ACCESS:          0  HIT:          0  MISS:          0
LLC WRITEBACK ACCESS:     202755  HIT:      42206  MISS:     160549
Heartbeat CPU 0 instructions: 86000003 cycles: 95149704 heartbeat IPC: 0.43392 cumulative IPC: 0.435574 (Simulation time: 1 hr 9 min 12 sec) 

Region of Interest Statistics
cpu0_DTLB TOTAL     ACCESS:    7708620  HIT:    7663424  MISS:      45196
cpu0_DTLB LOAD      ACCESS:    4690633  HIT:    4664640  MISS:      25993
cpu0_DTLB RFO       ACCESS:    3017987  HIT:    2998784  MISS:      19203
cpu0_DTLB PREFETCH  ACCESS:          0  HIT:          0  MISS:          0
cpu0_DTLB WRITEBACK ACCESS:          0  HIT:          0  MISS:          0
cpu0_ITLB TOTAL     ACCESS:    2112613  HIT:    2112613  MISS:          0
cpu0_ITLB LOAD      ACCESS:    2112613  HIT:    2112613  MISS:          0
cpu0_ITLB RFO       ACCESS:          0  HIT:          0  MISS:          0
cpu0_ITLB PREFETCH  ACCESS:          0  HIT:          0  MISS:          0
cpu0_ITLB WRITEBACK ACCESS:          0  HIT:          0  MISS:          0
cpu0_STLB TOTAL     ACCESS:      45196  HIT:      37511  MISS:       7685
cpu0_STLB LOAD      ACCESS:      25993  HIT:      21661  MISS:       4332
cpu0_STLB RFO       ACCESS:      19203  HIT:      15850  MISS:       3353
cpu0_STLB PREFETCH  ACCESS:          0  HIT:          0  MISS:          0
cpu0_STLB WRITEBACK ACCESS:          0  HIT:          0  MISS:          0
cpu0_L1D TOTAL     ACCESS:   10749118  HIT:   10141139  MISS:     607979
cpu0_L1D LOAD      ACCESS:    4802474  HIT:    4424252  MISS:     378222
cpu0_L1D RFO       ACCESS:    5938962  HIT:    5715834  MISS:     223128
cpu0_L1D PREFETCH  ACCESS:          0  HIT:          0  MISS:          0
cpu0_L1D WRITEBACK ACCESS:          0  HIT:          0  MISS:          0
cpu0_L2C TOTAL     ACCESS:     826376  HIT:     299453  MISS:     526923
cpu0_L2C LOAD      ACCESS:     378147  HIT:      65711  MISS:     312436
cpu0_L2C RFO       ACCESS:     216330  HIT:       1990  MISS:     214340
cpu0_L2C PREFETCH  ACCESS:          0  HIT:          0  MISS:          0
cpu0_L2C WRITEBACK ACCESS:     225270  HIT:     225127  MISS:        143
LLC TOTAL     ACCESS:     741289  HIT:      45566  MISS:     695723
LLC LOAD      ACCESS:     312436  HIT:       1800  MISS:     310636
LLC RFO       ACCESS:     214340  HIT:          0  MISS:     214340
LLC PREFETCH  ACCESS:          0  HIT:          0  MISS:          0
LLC WRITEBACK ACCESS:     214509  HIT:      43766  MISS:     170743
Heartbeat CPU 0 instructions: 88000000 cycles: 99764279 heartbeat IPC: 0.433409 cumulative IPC: 0.435459 (Simulation time: 1 hr 12 min 15 sec) 

Region of Interest Statistics
cpu0_DTLB TOTAL     ACCESS:    8136994  HIT:    8088829  MISS:      48165
cpu0_DTLB LOAD      ACCESS:    4951399  HIT:    4923688  MISS:      27711
cpu0_DTLB RFO       ACCESS:    3185595  HIT:    3165141  MISS:      20454
cpu0_DTLB PREFETCH  ACCESS:          0  HIT:          0  MISS:          0
cpu0_DTLB WRITEBACK ACCESS:          0  HIT:          0  MISS:          0
cpu0_ITLB TOTAL     ACCESS:    2229807  HIT:    2229807  MISS:          0
cpu0_ITLB LOAD      ACCESS:    2229807  HIT:    2229807  MISS:          0
cpu0_ITLB RFO       ACCESS:          0  HIT:          0  MISS:          0
cpu0_ITLB PREFETCH  ACCESS:          0  HIT:          0  MISS:          0
cpu0_ITLB WRITEBACK ACCESS:          0  HIT:          0  MISS:          0
cpu0_STLB TOTAL     ACCESS:      48165  HIT:      40062  MISS:       8103
cpu0_STLB LOAD      ACCESS:      27711  HIT:      23143  MISS:       4568
cpu0_STLB RFO       ACCESS:      20454  HIT:      16919  MISS:       3535
cpu0_STLB PREFETCH  ACCESS:          0  HIT:          0  MISS:          0
cpu0_STLB WRITEBACK ACCESS:          0  HIT:          0  MISS:          0
cpu0_L1D TOTAL     ACCESS:   11346166  HIT:   10704450  MISS:     641716
cpu0_L1D LOAD      ACCESS:    5069143  HIT:    4669921  MISS:     399222
cpu0_L1D RFO       ACCESS:    6268923  HIT:    6033421  MISS:     235502
cpu0_L1D PREFETCH  ACCESS:          0  HIT:          0  MISS:          0
cpu0_L1D WRITEBACK ACCESS:          0  HIT:          0  MISS:          0
cpu0_L2C TOTAL     ACCESS:     872251  HIT:     315882  MISS:     556369
cpu0_L2C LOAD      ACCESS:     399143  HIT:      69175  MISS:     329968
cpu0_L2C RFO       ACCESS:     228352  HIT:       2105  MISS:     226247
cpu0_L2C PREFETCH  ACCESS:          0  HIT:          0  MISS:          0
cpu0_L2C WRITEBACK ACCESS:     237764  HIT:     237614  MISS:        150
LLC TOTAL     ACCESS:     782633  HIT:      48686  MISS:     733947
LLC LOAD      ACCESS:     329968  HIT:       1968  MISS:     328000
LLC RFO       ACCESS:     226247  HIT:          0  MISS:     226247
LLC PREFETCH  ACCESS:          0  HIT:          0  MISS:          0
LLC WRITEBACK ACCESS:     226414  HIT:      46718  MISS:     179696
Heartbeat CPU 0 instructions: 90000000 cycles: 104282960 heartbeat IPC: 0.442607 cumulative IPC: 0.435811 (Simulation time: 1 hr 15 min 17 sec) 

Region of Interest Statistics
cpu0_DTLB TOTAL     ACCESS:    8565251  HIT:    8514133  MISS:      51118
cpu0_DTLB LOAD      ACCESS:    5212047  HIT:    5182643  MISS:      29404
cpu0_DTLB RFO       ACCESS:    3353204  HIT:    3331490  MISS:      21714
cpu0_DTLB PREFETCH  ACCESS:          0  HIT:          0  MISS:          0
cpu0_DTLB WRITEBACK ACCESS:          0  HIT:          0  MISS:          0
cpu0_ITLB TOTAL     ACCESS:    2346965  HIT:    2346965  MISS:          0
cpu0_ITLB LOAD      ACCESS:    2346965  HIT:    2346965  MISS:          0
cpu0_ITLB RFO       ACCESS:          0  HIT:          0  MISS:          0
cpu0_ITLB PREFETCH  ACCESS:          0  HIT:          0  MISS:          0
cpu0_ITLB WRITEBACK ACCESS:          0  HIT:          0  MISS:          0
cpu0_STLB TOTAL     ACCESS:      51118  HIT:      42584  MISS:       8534
cpu0_STLB LOAD      ACCESS:      29404  HIT:      24594  MISS:       4810
cpu0_STLB RFO       ACCESS:      21714  HIT:      17990  MISS:       3724
cpu0_STLB PREFETCH  ACCESS:          0  HIT:          0  MISS:          0
cpu0_STLB WRITEBACK ACCESS:          0  HIT:          0  MISS:          0
cpu0_L1D TOTAL     ACCESS:   11943322  HIT:   11267798  MISS:     675524
cpu0_L1D LOAD      ACCESS:    5335917  HIT:    4915689  MISS:     420228
cpu0_L1D RFO       ACCESS:    6598874  HIT:    6350943  MISS:     247931
cpu0_L1D PREFETCH  ACCESS:          0  HIT:          0  MISS:          0
cpu0_L1D WRITEBACK ACCESS:          0  HIT:          0  MISS:          0
cpu0_L2C TOTAL     ACCESS:     918192  HIT:     332406  MISS:     585786
cpu0_L2C LOAD      ACCESS:     420144  HIT:      72673  MISS:     347471
cpu0_L2C RFO       ACCESS:     240371  HIT:       2217  MISS:     238154
cpu0_L2C PREFETCH  ACCESS:          0  HIT:          0  MISS:          0
cpu0_L2C WRITEBACK ACCESS:     250312  HIT:     250155  MISS:        157
LLC TOTAL     ACCESS:     823936  HIT:      51413  MISS:     772523
LLC LOAD      ACCESS:     347471  HIT:       2068  MISS:     345403
LLC RFO       ACCESS:     238154  HIT:          0  MISS:     238154
LLC PREFETCH  ACCESS:          0  HIT:          0  MISS:          0
LLC WRITEBACK ACCESS:     238307  HIT:      49345  MISS:     188962
Heartbeat CPU 0 instructions: 92000002 cycles: 108861019 heartbeat IPC: 0.436867 cumulative IPC: 0.435861 (Simulation time: 1 hr 18 min 17 sec) 

Region of Interest Statistics
cpu0_DTLB TOTAL     ACCESS:    8993672  HIT:    8940837  MISS:      52835
cpu0_DTLB LOAD      ACCESS:    5472745  HIT:    5442346  MISS:      30399
cpu0_DTLB RFO       ACCESS:    3520927  HIT:    3498491  MISS:      22436
cpu0_DTLB PREFETCH  ACCESS:          0  HIT:          0  MISS:          0
cpu0_DTLB WRITEBACK ACCESS:          0  HIT:          0  MISS:          0
cpu0_ITLB TOTAL     ACCESS:    2464662  HIT:    2464662  MISS:          0
cpu0_ITLB LOAD      ACCESS:    2464662  HIT:    2464662  MISS:          0
cpu0_ITLB RFO       ACCESS:          0  HIT:          0  MISS:          0
cpu0_ITLB PREFETCH  ACCESS:          0  HIT:          0  MISS:          0
cpu0_ITLB WRITEBACK ACCESS:          0  HIT:          0  MISS:          0
cpu0_STLB TOTAL     ACCESS:      52835  HIT:      43883  MISS:       8952
cpu0_STLB LOAD      ACCESS:      30399  HIT:      25353  MISS:       5046
cpu0_STLB RFO       ACCESS:      22436  HIT:      18530  MISS:       3906
cpu0_STLB PREFETCH  ACCESS:          0  HIT:          0  MISS:          0
cpu0_STLB WRITEBACK ACCESS:          0  HIT:          0  MISS:          0
cpu0_L1D TOTAL     ACCESS:   12540539  HIT:   11831231  MISS:     709308
cpu0_L1D LOAD      ACCESS:    5602706  HIT:    5161460  MISS:     441246
cpu0_L1D RFO       ACCESS:    6928885  HIT:    6668550  MISS:     260335
cpu0_L1D PREFETCH  ACCESS:          0  HIT:          0  MISS:          0
cpu0_L1D WRITEBACK ACCESS:          0  HIT:          0  MISS:          0
cpu0_L2C TOTAL     ACCESS:     964104  HIT:     348943  MISS:     615161
cpu0_L2C LOAD      ACCESS:     441157  HIT:      76232  MISS:     364925
cpu0_L2C RFO       ACCESS:     252383  HIT:       2322  MISS:     250061
cpu0_L2C PREFETCH  ACCESS:          0  HIT:          0  MISS:          0
cpu0_L2C WRITEBACK ACCESS:     262837  HIT:     262670  MISS:        167
LLC TOTAL     ACCESS:     865255  HIT:      53600  MISS:     811655
LLC LOAD      ACCESS:     364925  HIT:       2211  MISS:     362714
LLC RFO       ACCESS:     250061  HIT:          0  MISS:     250061
LLC PREFETCH  ACCESS:          0  HIT:          0  MISS:          0
LLC WRITEBACK ACCESS:     250261  HIT:      51389  MISS:     198872
Heartbeat CPU 0 instructions: 94000001 cycles: 113537193 heartbeat IPC: 0.4277 cumulative IPC: 0.435484 (Simulation time: 1 hr 21 min 24 sec) 

Region of Interest Statistics
cpu0_DTLB TOTAL     ACCESS:    9422074  HIT:    9366305  MISS:      55769
cpu0_DTLB LOAD      ACCESS:    5733540  HIT:    5701478  MISS:      32062
cpu0_DTLB RFO       ACCESS:    3688534  HIT:    3664827  MISS:      23707
cpu0_DTLB PREFETCH  ACCESS:          0  HIT:          0  MISS:          0
cpu0_DTLB WRITEBACK ACCESS:          0  HIT:          0  MISS:          0
cpu0_ITLB TOTAL     ACCESS:    2581658  HIT:    2581658  MISS:          0
cpu0_ITLB LOAD      ACCESS:    2581658  HIT:    2581658  MISS:          0
cpu0_ITLB RFO       ACCESS:          0  HIT:          0  MISS:          0
cpu0_ITLB PREFETCH  ACCESS:          0  HIT:          0  MISS:          0
cpu0_ITLB WRITEBACK ACCESS:          0  HIT:          0  MISS:          0
cpu0_STLB TOTAL     ACCESS:      55769  HIT:      46387  MISS:       9382
cpu0_STLB LOAD      ACCESS:      32062  HIT:      26775  MISS:       5287
cpu0_STLB RFO       ACCESS:      23707  HIT:      19612  MISS:       4095
cpu0_STLB PREFETCH  ACCESS:          0  HIT:          0  MISS:          0
cpu0_STLB WRITEBACK ACCESS:          0  HIT:          0  MISS:          0
cpu0_L1D TOTAL     ACCESS:   13137299  HIT:   12394173  MISS:     743126
cpu0_L1D LOAD      ACCESS:    5869193  HIT:    5406919  MISS:     462274
cpu0_L1D RFO       ACCESS:    7258728  HIT:    6985975  MISS:     272753
cpu0_L1D PREFETCH  ACCESS:          0  HIT:          0  MISS:          0
cpu0_L1D WRITEBACK ACCESS:          0  HIT:          0  MISS:          0
cpu0_L2C TOTAL     ACCESS:    1010062  HIT:     365248  MISS:     644814
cpu0_L2C LOAD      ACCESS:     462180  HIT:      79516  MISS:     382664
cpu0_L2C RFO       ACCESS:     264402  HIT:       2434  MISS:     261968
cpu0_L2C PREFETCH  ACCESS:          0  HIT:          0  MISS:          0
cpu0_L2C WRITEBACK ACCESS:     275381  HIT:     275207  MISS:        174
LLC TOTAL     ACCESS:     906914  HIT:      56583  MISS:     850331
LLC LOAD      ACCESS:     382664  HIT:       2346  MISS:     380318
LLC RFO       ACCESS:     261968  HIT:          0  MISS:     261968
LLC PREFETCH  ACCESS:          0  HIT:          0  MISS:          0
LLC WRITEBACK ACCESS:     262274  HIT:      54237  MISS:     208037
Heartbeat CPU 0 instructions: 96000004 cycles: 118102409 heartbeat IPC: 0.438096 cumulative IPC: 0.435596 (Simulation time: 1 hr 24 min 23 sec) 

Region of Interest Statistics
cpu0_DTLB TOTAL     ACCESS:    9850518  HIT:    9791807  MISS:      58711
cpu0_DTLB LOAD      ACCESS:    5994345  HIT:    5960615  MISS:      33730
cpu0_DTLB RFO       ACCESS:    3856173  HIT:    3831192  MISS:      24981
cpu0_DTLB PREFETCH  ACCESS:          0  HIT:          0  MISS:          0
cpu0_DTLB WRITEBACK ACCESS:          0  HIT:          0  MISS:          0
cpu0_ITLB TOTAL     ACCESS:    2698708  HIT:    2698708  MISS:          0
cpu0_ITLB LOAD      ACCESS:    2698708  HIT:    2698708  MISS:          0
cpu0_ITLB RFO       ACCESS:          0  HIT:          0  MISS:          0
cpu0_ITLB PREFETCH  ACCESS:          0  HIT:          0  MISS:          0
cpu0_ITLB WRITEBACK ACCESS:          0  HIT:          0  MISS:          0
cpu0_STLB TOTAL     ACCESS:      58711  HIT:      48899  MISS:       9812
cpu0_STLB LOAD      ACCESS:      33730  HIT:      28202  MISS:       5528
cpu0_STLB RFO       ACCESS:      24981  HIT:      20697  MISS:       4284
cpu0_STLB PREFETCH  ACCESS:          0  HIT:          0  MISS:          0
cpu0_STLB WRITEBACK ACCESS:          0  HIT:          0  MISS:          0
cpu0_L1D TOTAL     ACCESS:   13734347  HIT:   12957404  MISS:     776943
cpu0_L1D LOAD      ACCESS:    6135796  HIT:    5652492  MISS:     483304
cpu0_L1D RFO       ACCESS:    7588744  HIT:    7303576  MISS:     285168
cpu0_L1D PREFETCH  ACCESS:          0  HIT:          0  MISS:          0
cpu0_L1D WRITEBACK ACCESS:          0  HIT:          0  MISS:          0
cpu0_L2C TOTAL     ACCESS:    1056009  HIT:     381611  MISS:     674398
cpu0_L2C LOAD      ACCESS:     483203  HIT:      82869  MISS:     400334
cpu0_L2C RFO       ACCESS:     276426  HIT:       2551  MISS:     273875
cpu0_L2C PREFETCH  ACCESS:          0  HIT:          0  MISS:          0
cpu0_L2C WRITEBACK ACCESS:     287909  HIT:     287728  MISS:        181
LLC TOTAL     ACCESS:     948458  HIT:      58256  MISS:     890202
LLC LOAD      ACCESS:     400334  HIT:       2488  MISS:     397846
LLC RFO       ACCESS:     273875  HIT:          0  MISS:     273875
LLC PREFETCH  ACCESS:          0  HIT:          0  MISS:          0
LLC WRITEBACK ACCESS:     274241  HIT:      55768  MISS:     218473
Heartbeat CPU 0 instructions: 98000001 cycles: 122754183 heartbeat IPC: 0.429943 cumulative IPC: 0.435358 (Simulation time: 1 hr 27 min 26 sec) 

Region of Interest Statistics
cpu0_DTLB TOTAL     ACCESS:   10279076  HIT:   10218630  MISS:      60446
cpu0_DTLB LOAD      ACCESS:    6255276  HIT:    6220536  MISS:      34740
cpu0_DTLB RFO       ACCESS:    4023800  HIT:    3998094  MISS:      25706
cpu0_DTLB PREFETCH  ACCESS:          0  HIT:          0  MISS:          0
cpu0_DTLB WRITEBACK ACCESS:          0  HIT:          0  MISS:          0
cpu0_ITLB TOTAL     ACCESS:    2816306  HIT:    2816306  MISS:          0
cpu0_ITLB LOAD      ACCESS:    2816306  HIT:    2816306  MISS:          0
cpu0_ITLB RFO       ACCESS:          0  HIT:          0  MISS:          0
cpu0_ITLB PREFETCH  ACCESS:          0  HIT:          0  MISS:          0
cpu0_ITLB WRITEBACK ACCESS:          0  HIT:          0  MISS:          0
cpu0_STLB TOTAL     ACCESS:      60446  HIT:      50216  MISS:      10230
cpu0_STLB LOAD      ACCESS:      34740  HIT:      28976  MISS:       5764
cpu0_STLB RFO       ACCESS:      25706  HIT:      21240  MISS:       4466
cpu0_STLB PREFETCH  ACCESS:          0  HIT:          0  MISS:          0
cpu0_STLB WRITEBACK ACCESS:          0  HIT:          0  MISS:          0
cpu0_L1D TOTAL     ACCESS:   14330974  HIT:   13520292  MISS:     810682
cpu0_L1D LOAD      ACCESS:    6402250  HIT:    5897944  MISS:     504306
cpu0_L1D RFO       ACCESS:    7918499  HIT:    7620956  MISS:     297543
cpu0_L1D PREFETCH  ACCESS:          0  HIT:          0  MISS:          0
cpu0_L1D WRITEBACK ACCESS:          0  HIT:          0  MISS:          0
cpu0_L2C TOTAL     ACCESS:    1101878  HIT:     398015  MISS:     703863
cpu0_L2C LOAD      ACCESS:     504201  HIT:      86318  MISS:     417883
cpu0_L2C RFO       ACCESS:     288441  HIT:       2659  MISS:     285782
cpu0_L2C PREFETCH  ACCESS:          0  HIT:          0  MISS:          0
cpu0_L2C WRITEBACK ACCESS:     300403  HIT:     300214  MISS:        189
LLC TOTAL     ACCESS:     989755  HIT:      62032  MISS:     927723
LLC LOAD      ACCESS:     417883  HIT:       2517  MISS:     415366
LLC RFO       ACCESS:     285782  HIT:          0  MISS:     285782
LLC PREFETCH  ACCESS:          0  HIT:          0  MISS:          0
LLC WRITEBACK ACCESS:     286081  HIT:      59515  MISS:     226566
Heartbeat CPU 0 instructions: 100000001 cycles: 127252559 heartbeat IPC: 0.444605 cumulative IPC: 0.43572 (Simulation time: 1 hr 30 min 23 sec) 

Region of Interest Statistics
cpu0_DTLB TOTAL     ACCESS:   10707265  HIT:   10643815  MISS:      63450
cpu0_DTLB LOAD      ACCESS:    6515789  HIT:    6479329  MISS:      36460
cpu0_DTLB RFO       ACCESS:    4191476  HIT:    4164486  MISS:      26990
cpu0_DTLB PREFETCH  ACCESS:          0  HIT:          0  MISS:          0
cpu0_DTLB WRITEBACK ACCESS:          0  HIT:          0  MISS:          0
cpu0_ITLB TOTAL     ACCESS:    2933611  HIT:    2933611  MISS:          0
cpu0_ITLB LOAD      ACCESS:    2933611  HIT:    2933611  MISS:          0
cpu0_ITLB RFO       ACCESS:          0  HIT:          0  MISS:          0
cpu0_ITLB PREFETCH  ACCESS:          0  HIT:          0  MISS:          0
cpu0_ITLB WRITEBACK ACCESS:          0  HIT:          0  MISS:          0
cpu0_STLB TOTAL     ACCESS:      63450  HIT:      52789  MISS:      10661
cpu0_STLB LOAD      ACCESS:      36460  HIT:      30454  MISS:       6006
cpu0_STLB RFO       ACCESS:      26990  HIT:      22335  MISS:       4655
cpu0_STLB PREFETCH  ACCESS:          0  HIT:          0  MISS:          0
cpu0_STLB WRITEBACK ACCESS:          0  HIT:          0  MISS:          0
cpu0_L1D TOTAL     ACCESS:   14928395  HIT:   14083893  MISS:     844502
cpu0_L1D LOAD      ACCESS:    6669258  HIT:    6143930  MISS:     525328
cpu0_L1D RFO       ACCESS:    8248482  HIT:    7938513  MISS:     309969
cpu0_L1D PREFETCH  ACCESS:          0  HIT:          0  MISS:          0
cpu0_L1D WRITEBACK ACCESS:          0  HIT:          0  MISS:          0
cpu0_L2C TOTAL     ACCESS:    1147831  HIT:     414876  MISS:     732955
cpu0_L2C LOAD      ACCESS:     525217  HIT:      90159  MISS:     435058
cpu0_L2C RFO       ACCESS:     300461  HIT:       2771  MISS:     297690
cpu0_L2C PREFETCH  ACCESS:          0  HIT:          0  MISS:          0
cpu0_L2C WRITEBACK ACCESS:     312948  HIT:     312750  MISS:        198
LLC TOTAL     ACCESS:    1030649  HIT:      64560  MISS:     966089
LLC LOAD      ACCESS:     435058  HIT:       2671  MISS:     432387
LLC RFO       ACCESS:     297690  HIT:          0  MISS:     297690
LLC PREFETCH  ACCESS:          0  HIT:          0  MISS:          0
LLC WRITEBACK ACCESS:     297892  HIT:      61889  MISS:     236003
Heartbeat CPU 0 instructions: 102000003 cycles: 131783413 heartbeat IPC: 0.441418 cumulative IPC: 0.435937 (Simulation time: 1 hr 33 min 19 sec) 

Region of Interest Statistics
cpu0_DTLB TOTAL     ACCESS:   11135546  HIT:   11069145  MISS:      66401
cpu0_DTLB LOAD      ACCESS:    6776454  HIT:    6738302  MISS:      38152
cpu0_DTLB RFO       ACCESS:    4359092  HIT:    4330843  MISS:      28249
cpu0_DTLB PREFETCH  ACCESS:          0  HIT:          0  MISS:          0
cpu0_DTLB WRITEBACK ACCESS:          0  HIT:          0  MISS:          0
cpu0_ITLB TOTAL     ACCESS:    3050822  HIT:    3050822  MISS:          0
cpu0_ITLB LOAD      ACCESS:    3050822  HIT:    3050822  MISS:          0
cpu0_ITLB RFO       ACCESS:          0  HIT:          0  MISS:          0
cpu0_ITLB PREFETCH  ACCESS:          0  HIT:          0  MISS:          0
cpu0_ITLB WRITEBACK ACCESS:          0  HIT:          0  MISS:          0
cpu0_STLB TOTAL     ACCESS:      66401  HIT:      55322  MISS:      11079
cpu0_STLB LOAD      ACCESS:      38152  HIT:      31910  MISS:       6242
cpu0_STLB RFO       ACCESS:      28249  HIT:      23412  MISS:       4837
cpu0_STLB PREFETCH  ACCESS:          0  HIT:          0  MISS:          0
cpu0_STLB WRITEBACK ACCESS:          0  HIT:          0  MISS:          0
cpu0_L1D TOTAL     ACCESS:   15525482  HIT:   14647202  MISS:     878280
cpu0_L1D LOAD      ACCESS:    6935950  HIT:    6389608  MISS:     546342
cpu0_L1D RFO       ACCESS:    8578459  HIT:    8256088  MISS:     322371
cpu0_L1D PREFETCH  ACCESS:          0  HIT:          0  MISS:          0
cpu0_L1D WRITEBACK ACCESS:          0  HIT:          0  MISS:          0
cpu0_L2C TOTAL     ACCESS:    1193738  HIT:     431381  MISS:     762357
cpu0_L2C LOAD      ACCESS:     546227  HIT:      93682  MISS:     452545
cpu0_L2C RFO       ACCESS:     312474  HIT:       2877  MISS:     309597
cpu0_L2C PREFETCH  ACCESS:          0  HIT:          0  MISS:          0
cpu0_L2C WRITEBACK ACCESS:     325470  HIT:     325264  MISS:        206
LLC TOTAL     ACCESS:    1071876  HIT:      66082  MISS:    1005794
LLC LOAD      ACCESS:     452545  HIT:       2741  MISS:     449804
LLC RFO       ACCESS:     309597  HIT:          0  MISS:     309597
LLC PREFETCH  ACCESS:          0  HIT:          0  MISS:          0
LLC WRITEBACK ACCESS:     309725  HIT:      63341  MISS:     246384
Heartbeat CPU 0 instructions: 104000000 cycles: 136414493 heartbeat IPC: 0.431864 cumulative IPC: 0.435785 (Simulation time: 1 hr 36 min 24 sec) 

Region of Interest Statistics
cpu0_DTLB TOTAL     ACCESS:   11563914  HIT:   11495780  MISS:      68134
cpu0_DTLB LOAD      ACCESS:    7037181  HIT:    6998016  MISS:      39165
cpu0_DTLB RFO       ACCESS:    4526733  HIT:    4497764  MISS:      28969
cpu0_DTLB PREFETCH  ACCESS:          0  HIT:          0  MISS:          0
cpu0_DTLB WRITEBACK ACCESS:          0  HIT:          0  MISS:          0
cpu0_ITLB TOTAL     ACCESS:    3168516  HIT:    3168516  MISS:          0
cpu0_ITLB LOAD      ACCESS:    3168516  HIT:    3168516  MISS:          0
cpu0_ITLB RFO       ACCESS:          0  HIT:          0  MISS:          0
cpu0_ITLB PREFETCH  ACCESS:          0  HIT:          0  MISS:          0
cpu0_ITLB WRITEBACK ACCESS:          0  HIT:          0  MISS:          0
cpu0_STLB TOTAL     ACCESS:      68134  HIT:      56624  MISS:      11510
cpu0_STLB LOAD      ACCESS:      39165  HIT:      32681  MISS:       6484
cpu0_STLB RFO       ACCESS:      28969  HIT:      23943  MISS:       5026
cpu0_STLB PREFETCH  ACCESS:          0  HIT:          0  MISS:          0
cpu0_STLB WRITEBACK ACCESS:          0  HIT:          0  MISS:          0
cpu0_L1D TOTAL     ACCESS:   16122504  HIT:   15210397  MISS:     912107
cpu0_L1D LOAD      ACCESS:    7202544  HIT:    6635171  MISS:     567373
cpu0_L1D RFO       ACCESS:    8908457  HIT:    8573663  MISS:     334794
cpu0_L1D PREFETCH  ACCESS:          0  HIT:          0  MISS:          0
cpu0_L1D WRITEBACK ACCESS:          0  HIT:          0  MISS:          0
cpu0_L2C TOTAL     ACCESS:    1239705  HIT:     447915  MISS:     791790
cpu0_L2C LOAD      ACCESS:     567254  HIT:      97199  MISS:     470055
cpu0_L2C RFO       ACCESS:     324500  HIT:       2990  MISS:     321510
cpu0_L2C PREFETCH  ACCESS:          0  HIT:          0  MISS:          0
cpu0_L2C WRITEBACK ACCESS:     338011  HIT:     337795  MISS:        216
LLC TOTAL     ACCESS:    1113398  HIT:      68010  MISS:    1045388
LLC LOAD      ACCESS:     470055  HIT:       2811  MISS:     467244
LLC RFO       ACCESS:     321510  HIT:          0  MISS:     321510
LLC PREFETCH  ACCESS:          0  HIT:          0  MISS:          0
LLC WRITEBACK ACCESS:     321824  HIT:      65199  MISS:     256625
Heartbeat CPU 0 instructions: 106000000 cycles: 141041928 heartbeat IPC: 0.432205 cumulative IPC: 0.435656 (Simulation time: 1 hr 39 min 29 sec) 

Region of Interest Statistics
cpu0_DTLB TOTAL     ACCESS:   11992530  HIT:   11921415  MISS:      71115
cpu0_DTLB LOAD      ACCESS:    7298184  HIT:    7257319  MISS:      40865
cpu0_DTLB RFO       ACCESS:    4694346  HIT:    4664096  MISS:      30250
cpu0_DTLB PREFETCH  ACCESS:          0  HIT:          0  MISS:          0
cpu0_DTLB WRITEBACK ACCESS:          0  HIT:          0  MISS:          0
cpu0_ITLB TOTAL     ACCESS:    3285655  HIT:    3285655  MISS:          0
cpu0_ITLB LOAD      ACCESS:    3285655  HIT:    3285655  MISS:          0
cpu0_ITLB RFO       ACCESS:          0  HIT:          0  MISS:          0
cpu0_ITLB PREFETCH  ACCESS:          0  HIT:          0  MISS:          0
cpu0_ITLB WRITEBACK ACCESS:          0  HIT:          0  MISS:          0
cpu0_STLB TOTAL     ACCESS:      71115  HIT:      59174  MISS:      11941
cpu0_STLB LOAD      ACCESS:      40865  HIT:      34139  MISS:       6726
cpu0_STLB RFO       ACCESS:      30250  HIT:      25035  MISS:       5215
cpu0_STLB PREFETCH  ACCESS:          0  HIT:          0  MISS:          0
cpu0_STLB WRITEBACK ACCESS:          0  HIT:          0  MISS:          0
cpu0_L1D TOTAL     ACCESS:   16719749  HIT:   15773855  MISS:     945894
cpu0_L1D LOAD      ACCESS:    7469319  HIT:    6880927  MISS:     588392
cpu0_L1D RFO       ACCESS:    9238496  HIT:    8891308  MISS:     347188
cpu0_L1D PREFETCH  ACCESS:          0  HIT:          0  MISS:          0
cpu0_L1D WRITEBACK ACCESS:          0  HIT:          0  MISS:          0
cpu0_L2C TOTAL     ACCESS:    1285629  HIT:     464348  MISS:     821281
cpu0_L2C LOAD      ACCESS:     588268  HIT:     100638  MISS:     487630
cpu0_L2C RFO       ACCESS:     336521  HIT:       3104  MISS:     333417
cpu0_L2C PREFETCH  ACCESS:          0  HIT:          0  MISS:          0
cpu0_L2C WRITEBACK ACCESS:     350526  HIT:     350302  MISS:        224
LLC TOTAL     ACCESS:    1154730  HIT:      70118  MISS:    1084612
LLC LOAD      ACCESS:     487630  HIT:       2928  MISS:     484702
LLC RFO       ACCESS:     333417  HIT:          0  MISS:     333417
LLC PREFETCH  ACCESS:          0  HIT:          0  MISS:          0
LLC WRITEBACK ACCESS:     333673  HIT:      67190  MISS:     266483
Heartbeat CPU 0 instructions: 108000002 cycles: 145616845 heartbeat IPC: 0.437167 cumulative IPC: 0.435708 (Simulation time: 1 hr 42 min 36 sec) 

Region of Interest Statistics
cpu0_DTLB TOTAL     ACCESS:   12420417  HIT:   12346338  MISS:      74079
cpu0_DTLB LOAD      ACCESS:    7558470  HIT:    7515895  MISS:      42575
cpu0_DTLB RFO       ACCESS:    4861947  HIT:    4830443  MISS:      31504
cpu0_DTLB PREFETCH  ACCESS:          0  HIT:          0  MISS:          0
cpu0_DTLB WRITEBACK ACCESS:          0  HIT:          0  MISS:          0
cpu0_ITLB TOTAL     ACCESS:    3402914  HIT:    3402914  MISS:          0
cpu0_ITLB LOAD      ACCESS:    3402914  HIT:    3402914  MISS:          0
cpu0_ITLB RFO       ACCESS:          0  HIT:          0  MISS:          0
cpu0_ITLB PREFETCH  ACCESS:          0  HIT:          0  MISS:          0
cpu0_ITLB WRITEBACK ACCESS:          0  HIT:          0  MISS:          0
cpu0_STLB TOTAL     ACCESS:      74079  HIT:      61720  MISS:      12359
cpu0_STLB LOAD      ACCESS:      42575  HIT:      35613  MISS:       6962
cpu0_STLB RFO       ACCESS:      31504  HIT:      26107  MISS:       5397
cpu0_STLB PREFETCH  ACCESS:          0  HIT:          0  MISS:          0
cpu0_STLB WRITEBACK ACCESS:          0  HIT:          0  MISS:          0
cpu0_L1D TOTAL     ACCESS:   17317004  HIT:   16337328  MISS:     979676
cpu0_L1D LOAD      ACCESS:    7736144  HIT:    7126737  MISS:     609407
cpu0_L1D RFO       ACCESS:    9568508  HIT:    9208913  MISS:     359595
cpu0_L1D PREFETCH  ACCESS:          0  HIT:          0  MISS:          0
cpu0_L1D WRITEBACK ACCESS:          0  HIT:          0  MISS:          0
cpu0_L2C TOTAL     ACCESS:    1331539  HIT:     481142  MISS:     850397
cpu0_L2C LOAD      ACCESS:     609278  HIT:     104446  MISS:     504832
cpu0_L2C RFO       ACCESS:     348533  HIT:       3209  MISS:     345324
cpu0_L2C PREFETCH  ACCESS:          0  HIT:          0  MISS:          0
cpu0_L2C WRITEBACK ACCESS:     363054  HIT:     362823  MISS:        231
LLC TOTAL     ACCESS:    1195676  HIT:      71965  MISS:    1123711
LLC LOAD      ACCESS:     504832  HIT:       2962  MISS:     501870
LLC RFO       ACCESS:     345324  HIT:          0  MISS:     345324
LLC PREFETCH  ACCESS:          0  HIT:          0  MISS:          0
LLC WRITEBACK ACCESS:     345510  HIT:      69003  MISS:     276507
Heartbeat CPU 0 instructions: 110000004 cycles: 150211420 heartbeat IPC: 0.435296 cumulative IPC: 0.435694 (Simulation time: 1 hr 45 min 38 sec) 

Region of Interest Statistics
cpu0_DTLB TOTAL     ACCESS:   12848795  HIT:   12772985  MISS:      75810
cpu0_DTLB LOAD      ACCESS:    7819124  HIT:    7775544  MISS:      43580
cpu0_DTLB RFO       ACCESS:    5029671  HIT:    4997441  MISS:      32230
cpu0_DTLB PREFETCH  ACCESS:          0  HIT:          0  MISS:          0
cpu0_DTLB WRITEBACK ACCESS:          0  HIT:          0  MISS:          0
cpu0_ITLB TOTAL     ACCESS:    3520682  HIT:    3520682  MISS:          0
cpu0_ITLB LOAD      ACCESS:    3520682  HIT:    3520682  MISS:          0
cpu0_ITLB RFO       ACCESS:          0  HIT:          0  MISS:          0
cpu0_ITLB PREFETCH  ACCESS:          0  HIT:          0  MISS:          0
cpu0_ITLB WRITEBACK ACCESS:          0  HIT:          0  MISS:          0
cpu0_STLB TOTAL     ACCESS:      75810  HIT:      63021  MISS:      12789
cpu0_STLB LOAD      ACCESS:      43580  HIT:      36377  MISS:       7203
cpu0_STLB RFO       ACCESS:      32230  HIT:      26644  MISS:       5586
cpu0_STLB PREFETCH  ACCESS:          0  HIT:          0  MISS:          0
cpu0_STLB WRITEBACK ACCESS:          0  HIT:          0  MISS:          0
cpu0_L1D TOTAL     ACCESS:   17914572  HIT:   16901082  MISS:    1013490
cpu0_L1D LOAD      ACCESS:    8003349  HIT:    7372912  MISS:     630437
cpu0_L1D RFO       ACCESS:    9898441  HIT:    9526436  MISS:     372005
cpu0_L1D PREFETCH  ACCESS:          0  HIT:          0  MISS:          0
cpu0_L1D WRITEBACK ACCESS:          0  HIT:          0  MISS:          0
cpu0_L2C TOTAL     ACCESS:    1377490  HIT:     498022  MISS:     879468
cpu0_L2C LOAD      ACCESS:     630304  HIT:     108314  MISS:     521990
cpu0_L2C RFO       ACCESS:     360559  HIT:       3328  MISS:     357231
cpu0_L2C PREFETCH  ACCESS:          0  HIT:          0  MISS:          0
cpu0_L2C WRITEBACK ACCESS:     375579  HIT:     375342  MISS:        237
LLC TOTAL     ACCESS:    1236882  HIT:      75538  MISS:    1161344
LLC LOAD      ACCESS:     521990  HIT:       3104  MISS:     518886
LLC RFO       ACCESS:     357231  HIT:          0  MISS:     357231
LLC PREFETCH  ACCESS:          0  HIT:          0  MISS:          0
LLC WRITEBACK ACCESS:     357651  HIT:      72434  MISS:     285217
Heartbeat CPU 0 instructions: 112000001 cycles: 154739759 heartbeat IPC: 0.441662 cumulative IPC: 0.435884 (Simulation time: 1 hr 48 min 39 sec) 

Region of Interest Statistics
cpu0_DTLB TOTAL     ACCESS:   13276955  HIT:   13198210  MISS:      78745
cpu0_DTLB LOAD      ACCESS:    8079629  HIT:    8034372  MISS:      45257
cpu0_DTLB RFO       ACCESS:    5197326  HIT:    5163838  MISS:      33488
cpu0_DTLB PREFETCH  ACCESS:          0  HIT:          0  MISS:          0
cpu0_DTLB WRITEBACK ACCESS:          0  HIT:          0  MISS:          0
cpu0_ITLB TOTAL     ACCESS:    3637719  HIT:    3637719  MISS:          0
cpu0_ITLB LOAD      ACCESS:    3637719  HIT:    3637719  MISS:          0
cpu0_ITLB RFO       ACCESS:          0  HIT:          0  MISS:          0
cpu0_ITLB PREFETCH  ACCESS:          0  HIT:          0  MISS:          0
cpu0_ITLB WRITEBACK ACCESS:          0  HIT:          0  MISS:          0
cpu0_STLB TOTAL     ACCESS:      78745  HIT:      65535  MISS:      13210
cpu0_STLB LOAD      ACCESS:      45257  HIT:      37815  MISS:       7442
cpu0_STLB RFO       ACCESS:      33488  HIT:      27720  MISS:       5768
cpu0_STLB PREFETCH  ACCESS:          0  HIT:          0  MISS:          0
cpu0_STLB WRITEBACK ACCESS:          0  HIT:          0  MISS:          0
cpu0_L1D TOTAL     ACCESS:   18511795  HIT:   17464532  MISS:    1047263
cpu0_L1D LOAD      ACCESS:    8270198  HIT:    7618742  MISS:     651456
cpu0_L1D RFO       ACCESS:   10228394  HIT:    9843997  MISS:     384397
cpu0_L1D PREFETCH  ACCESS:          0  HIT:          0  MISS:          0
cpu0_L1D WRITEBACK ACCESS:          0  HIT:          0  MISS:          0
cpu0_L2C TOTAL     ACCESS:    1423393  HIT:     514637  MISS:     908756
cpu0_L2C LOAD      ACCESS:     651317  HIT:     111955  MISS:     539362
cpu0_L2C RFO       ACCESS:     372572  HIT:       3434  MISS:     369138
cpu0_L2C PREFETCH  ACCESS:          0  HIT:          0  MISS:          0
cpu0_L2C WRITEBACK ACCESS:     388094  HIT:     387848  MISS:        246
LLC TOTAL     ACCESS:    1277983  HIT:      77891  MISS:    1200092
LLC LOAD      ACCESS:     539362  HIT:       3242  MISS:     536120
LLC RFO       ACCESS:     369138  HIT:          0  MISS:     369138
LLC PREFETCH  ACCESS:          0  HIT:          0  MISS:          0
LLC WRITEBACK ACCESS:     369473  HIT:      74649  MISS:     294824
Heartbeat CPU 0 instructions: 114000001 cycles: 159441601 heartbeat IPC: 0.425365 cumulative IPC: 0.435547 (Simulation time: 1 hr 51 min 37 sec) 

Region of Interest Statistics
cpu0_DTLB TOTAL     ACCESS:   13705292  HIT:   13623599  MISS:      81693
cpu0_DTLB LOAD      ACCESS:    8340314  HIT:    8293363  MISS:      46951
cpu0_DTLB RFO       ACCESS:    5364978  HIT:    5330236  MISS:      34742
cpu0_DTLB PREFETCH  ACCESS:          0  HIT:          0  MISS:          0
cpu0_DTLB WRITEBACK ACCESS:          0  HIT:          0  MISS:          0
cpu0_ITLB TOTAL     ACCESS:    3754838  HIT:    3754838  MISS:          0
cpu0_ITLB LOAD      ACCESS:    3754838  HIT:    3754838  MISS:          0
cpu0_ITLB RFO       ACCESS:          0  HIT:          0  MISS:          0
cpu0_ITLB PREFETCH  ACCESS:          0  HIT:          0  MISS:          0
cpu0_ITLB WRITEBACK ACCESS:          0  HIT:          0  MISS:          0
cpu0_STLB TOTAL     ACCESS:      81693  HIT:      68055  MISS:      13638
cpu0_STLB LOAD      ACCESS:      46951  HIT:      39270  MISS:       7681
cpu0_STLB RFO       ACCESS:      34742  HIT:      28785  MISS:       5957
cpu0_STLB PREFETCH  ACCESS:          0  HIT:          0  MISS:          0
cpu0_STLB WRITEBACK ACCESS:          0  HIT:          0  MISS:          0
cpu0_L1D TOTAL     ACCESS:   19108957  HIT:   18027886  MISS:    1081071
cpu0_L1D LOAD      ACCESS:    8536951  HIT:    7864461  MISS:     672490
cpu0_L1D RFO       ACCESS:   10558375  HIT:   10161575  MISS:     396800
cpu0_L1D PREFETCH  ACCESS:          0  HIT:          0  MISS:          0
cpu0_L1D WRITEBACK ACCESS:          0  HIT:          0  MISS:          0
cpu0_L2C TOTAL     ACCESS:    1469342  HIT:     531205  MISS:     938137
cpu0_L2C LOAD      ACCESS:     672346  HIT:     115518  MISS:     556828
cpu0_L2C RFO       ACCESS:     384597  HIT:       3552  MISS:     381045
cpu0_L2C PREFETCH  ACCESS:          0  HIT:          0  MISS:          0
cpu0_L2C WRITEBACK ACCESS:     400618  HIT:     400364  MISS:        254
LLC TOTAL     ACCESS:    1319195  HIT:      79949  MISS:    1239246
LLC LOAD      ACCESS:     556828  HIT:       3373  MISS:     553455
LLC RFO       ACCESS:     381045  HIT:          0  MISS:     381045
LLC PREFETCH  ACCESS:          0  HIT:          0  MISS:          0
LLC WRITEBACK ACCESS:     381312  HIT:      76576  MISS:     304736
Heartbeat CPU 0 instructions: 116000003 cycles: 164005348 heartbeat IPC: 0.438237 cumulative IPC: 0.435628 (Simulation time: 1 hr 54 min 37 sec) 

Region of Interest Statistics
cpu0_DTLB TOTAL     ACCESS:   14133747  HIT:   14050343  MISS:      83404
cpu0_DTLB LOAD      ACCESS:    8601108  HIT:    8553164  MISS:      47944
cpu0_DTLB RFO       ACCESS:    5532639  HIT:    5497179  MISS:      35460
cpu0_DTLB PREFETCH  ACCESS:          0  HIT:          0  MISS:          0
cpu0_DTLB WRITEBACK ACCESS:          0  HIT:          0  MISS:          0
[...]
cpu0_STLB WRITEBACK ACCESS:          0  HIT:          0  MISS:          0
cpu0_L1D TOTAL     ACCESS:  446703693  HIT:  421431777  MISS:   25271916
cpu0_L1D LOAD      ACCESS:  199580333  HIT:  183861462  MISS:   15718871
cpu0_L1D RFO       ACCESS:  246804795  HIT:  237534745  MISS:    9270050
cpu0_L1D PREFETCH  ACCESS:          0  HIT:          0  MISS:          0
cpu0_L1D WRITEBACK ACCESS:          0  HIT:          0  MISS:          0
cpu0_L2C TOTAL     ACCESS:   34348790  HIT:   12414980  MISS:   21933810
cpu0_L2C LOAD      ACCESS:   15715739  HIT:    2694637  MISS:   13021102
cpu0_L2C RFO       ACCESS:    8990964  HIT:      84019  MISS:    8906945
cpu0_L2C PREFETCH  ACCESS:          0  HIT:          0  MISS:          0
cpu0_L2C WRITEBACK ACCESS:    9359092  HIT:    9353505  MISS:       5587
LLC TOTAL     ACCESS:   30841911  HIT:    2080040  MISS:   28761871
LLC LOAD      ACCESS:   13021102  HIT:      92456  MISS:   12928646
LLC RFO       ACCESS:    8906945  HIT:          0  MISS:    8906945
LLC PREFETCH  ACCESS:          0  HIT:          0  MISS:          0
LLC WRITEBACK ACCESS:    8913688  HIT:    1987584  MISS:    6926104
Heartbeat CPU 0 instructions: 1548000001 cycles: 3455527020 heartbeat IPC: 0.440234 cumulative IPC: 0.435082 (Simulation time: 19 hr 48 min 5 sec) 

Region of Interest Statistics
cpu0_DTLB TOTAL     ACCESS:  320829407  HIT:  318927300  MISS:    1902107
cpu0_DTLB LOAD      ACCESS:  195244070  HIT:  194150664  MISS:    1093406
cpu0_DTLB RFO       ACCESS:  125585337  HIT:  124776636  MISS:     808701
cpu0_DTLB PREFETCH  ACCESS:          0  HIT:          0  MISS:          0
cpu0_DTLB WRITEBACK ACCESS:          0  HIT:          0  MISS:          0
cpu0_ITLB TOTAL     ACCESS:   87882913  HIT:   87882913  MISS:          0
cpu0_ITLB LOAD      ACCESS:   87882913  HIT:   87882913  MISS:          0
cpu0_ITLB RFO       ACCESS:          0  HIT:          0  MISS:          0
cpu0_ITLB PREFETCH  ACCESS:          0  HIT:          0  MISS:          0
cpu0_ITLB WRITEBACK ACCESS:          0  HIT:          0  MISS:          0
cpu0_STLB TOTAL     ACCESS:    1902107  HIT:    1582949  MISS:     319158
cpu0_STLB LOAD      ACCESS:    1093406  HIT:     913604  MISS:     179802
cpu0_STLB RFO       ACCESS:     808701  HIT:     669345  MISS:     139356
cpu0_STLB PREFETCH  ACCESS:          0  HIT:          0  MISS:          0
cpu0_STLB WRITEBACK ACCESS:          0  HIT:          0  MISS:          0
cpu0_L1D TOTAL     ACCESS:  447300927  HIT:  421995228  MISS:   25305699
cpu0_L1D LOAD      ACCESS:  199847275  HIT:  184107376  MISS:   15739899
cpu0_L1D RFO       ACCESS:  247134670  HIT:  237852221  MISS:    9282449
cpu0_L1D PREFETCH  ACCESS:          0  HIT:          0  MISS:          0
cpu0_L1D WRITEBACK ACCESS:          0  HIT:          0  MISS:          0
cpu0_L2C TOTAL     ACCESS:   34394704  HIT:   12431655  MISS:   21963049
cpu0_L2C LOAD      ACCESS:   15736763  HIT:    2698337  MISS:   13038426
cpu0_L2C RFO       ACCESS:    9002984  HIT:      84131  MISS:    8918853
cpu0_L2C PREFETCH  ACCESS:          0  HIT:          0  MISS:          0
cpu0_L2C WRITEBACK ACCESS:    9371606  HIT:    9366012  MISS:       5594
LLC TOTAL     ACCESS:   30882905  HIT:    2082500  MISS:   28800405
LLC LOAD      ACCESS:   13038426  HIT:      92626  MISS:   12945800
LLC RFO       ACCESS:    8918853  HIT:          0  MISS:    8918853
LLC PREFETCH  ACCESS:          0  HIT:          0  MISS:          0
LLC WRITEBACK ACCESS:    8925450  HIT:    1989874  MISS:    6935576
Heartbeat CPU 0 instructions: 1550000003 cycles: 3460152151 heartbeat IPC: 0.432421 cumulative IPC: 0.435079 (Simulation time: 19 hr 48 min 36 sec) 

Region of Interest Statistics
cpu0_DTLB TOTAL     ACCESS:  321257881  HIT:  319353891  MISS:    1903990
cpu0_DTLB LOAD      ACCESS:  195504867  HIT:  194410363  MISS:    1094504
cpu0_DTLB RFO       ACCESS:  125753014  HIT:  124943528  MISS:     809486
cpu0_DTLB PREFETCH  ACCESS:          0  HIT:          0  MISS:          0
cpu0_DTLB WRITEBACK ACCESS:          0  HIT:          0  MISS:          0
cpu0_ITLB TOTAL     ACCESS:   88000376  HIT:   88000376  MISS:          0
cpu0_ITLB LOAD      ACCESS:   88000376  HIT:   88000376  MISS:          0
cpu0_ITLB RFO       ACCESS:          0  HIT:          0  MISS:          0
cpu0_ITLB PREFETCH  ACCESS:          0  HIT:          0  MISS:          0
cpu0_ITLB WRITEBACK ACCESS:          0  HIT:          0  MISS:          0
cpu0_STLB TOTAL     ACCESS:    1903990  HIT:    1584400  MISS:     319590
cpu0_STLB LOAD      ACCESS:    1094504  HIT:     914459  MISS:     180045
cpu0_STLB RFO       ACCESS:     809486  HIT:     669941  MISS:     139545
cpu0_STLB PREFETCH  ACCESS:          0  HIT:          0  MISS:          0
cpu0_STLB WRITEBACK ACCESS:          0  HIT:          0  MISS:          0
cpu0_L1D TOTAL     ACCESS:  447898268  HIT:  422558714  MISS:   25339554
cpu0_L1D LOAD      ACCESS:  200114154  HIT:  184353192  MISS:   15760962
cpu0_L1D RFO       ACCESS:  247464700  HIT:  238169828  MISS:    9294872
cpu0_L1D PREFETCH  ACCESS:          0  HIT:          0  MISS:          0
cpu0_L1D WRITEBACK ACCESS:          0  HIT:          0  MISS:          0
cpu0_L2C TOTAL     ACCESS:   34440713  HIT:   12448235  MISS:   21992478
cpu0_L2C LOAD      ACCESS:   15757822  HIT:    2701889  MISS:   13055933
cpu0_L2C RFO       ACCESS:    9015024  HIT:      84258  MISS:    8930766
cpu0_L2C PREFETCH  ACCESS:          0  HIT:          0  MISS:          0
cpu0_L2C WRITEBACK ACCESS:    9384147  HIT:    9378545  MISS:       5602
LLC TOTAL     ACCESS:   30924398  HIT:    2085349  MISS:   28839049
LLC LOAD      ACCESS:   13055933  HIT:      92825  MISS:   12963108
LLC RFO       ACCESS:    8930766  HIT:          0  MISS:    8930766
LLC PREFETCH  ACCESS:          0  HIT:          0  MISS:          0
LLC WRITEBACK ACCESS:    8937522  HIT:    1992524  MISS:    6944998
Finished CPU 0 instructions: 1500000002 cycles: 3447652074 cumulative IPC: 0.435079 (Simulation time: 19 hr 48 min 36 sec) 

ChampSim completed all CPUs

Region of Interest Statistics

CPU 0 cumulative IPC: 0.435079 instructions: 1500000002 cycles: 3447652074
cpu0_DTLB TOTAL     ACCESS:  321257881  HIT:  319353891  MISS:    1903990
cpu0_DTLB LOAD      ACCESS:  195504867  HIT:  194410363  MISS:    1094504
cpu0_DTLB RFO       ACCESS:  125753014  HIT:  124943528  MISS:     809486
cpu0_DTLB PREFETCH  ACCESS:          0  HIT:          0  MISS:          0
cpu0_DTLB WRITEBACK ACCESS:          0  HIT:          0  MISS:          0
cpu0_DTLB TRANSLATION ACCESS:          0  HIT:          0  MISS:          0
cpu0_DTLB PREFETCH  REQUESTED:          0  ISSUED:          0  USEFUL:          0  USELESS:          0
cpu0_DTLB AVERAGE MISS LATENCY: 44.7102 cycles
cpu0_ITLB TOTAL     ACCESS:   88000376  HIT:   88000376  MISS:          0
cpu0_ITLB LOAD      ACCESS:   88000376  HIT:   88000376  MISS:          0
cpu0_ITLB RFO       ACCESS:          0  HIT:          0  MISS:          0
cpu0_ITLB PREFETCH  ACCESS:          0  HIT:          0  MISS:          0
cpu0_ITLB WRITEBACK ACCESS:          0  HIT:          0  MISS:          0
cpu0_ITLB TRANSLATION ACCESS:          0  HIT:          0  MISS:          0
cpu0_ITLB PREFETCH  REQUESTED:          0  ISSUED:          0  USEFUL:          0  USELESS:          0
cpu0_ITLB AVERAGE MISS LATENCY: -nan cycles
cpu0_STLB TOTAL     ACCESS:    1903990  HIT:    1584400  MISS:     319590
cpu0_STLB LOAD      ACCESS:    1094504  HIT:     914459  MISS:     180045
cpu0_STLB RFO       ACCESS:     809486  HIT:     669941  MISS:     139545
cpu0_STLB PREFETCH  ACCESS:          0  HIT:          0  MISS:          0
cpu0_STLB WRITEBACK ACCESS:          0  HIT:          0  MISS:          0
cpu0_STLB TRANSLATION ACCESS:          0  HIT:          0  MISS:          0
cpu0_STLB PREFETCH  REQUESTED:          0  ISSUED:          0  USEFUL:          0  USELESS:          0
cpu0_STLB AVERAGE MISS LATENCY: 212.105 cycles
cpu0_L1D TOTAL     ACCESS:  447898268  HIT:  422558714  MISS:   25339554
cpu0_L1D LOAD      ACCESS:  200114154  HIT:  184353192  MISS:   15760962
cpu0_L1D RFO       ACCESS:  247464700  HIT:  238169828  MISS:    9294872
cpu0_L1D PREFETCH  ACCESS:          0  HIT:          0  MISS:          0
cpu0_L1D WRITEBACK ACCESS:          0  HIT:          0  MISS:          0
cpu0_L1D TRANSLATION ACCESS:     319414  HIT:      35694  MISS:     283720
cpu0_L1D PREFETCH  REQUESTED:          0  ISSUED:          0  USEFUL:          0  USELESS:          0
cpu0_L1D AVERAGE MISS LATENCY: 706.204 cycles
cpu0_L2C TOTAL     ACCESS:   34440713  HIT:   12448235  MISS:   21992478
cpu0_L2C LOAD      ACCESS:   15757822  HIT:    2701889  MISS:   13055933
cpu0_L2C RFO       ACCESS:    9015024  HIT:      84258  MISS:    8930766
cpu0_L2C PREFETCH  ACCESS:          0  HIT:          0  MISS:          0
cpu0_L2C WRITEBACK ACCESS:    9384147  HIT:    9378545  MISS:       5602
cpu0_L2C TRANSLATION ACCESS:     283720  HIT:     283543  MISS:        177
cpu0_L2C PREFETCH  REQUESTED:          0  ISSUED:          0  USEFUL:          0  USELESS:          0
cpu0_L2C AVERAGE MISS LATENCY: 801.092 cycles
LLC TOTAL     ACCESS:   30924398  HIT:    2085349  MISS:   28839049
LLC LOAD      ACCESS:   13055933  HIT:      92825  MISS:   12963108
LLC RFO       ACCESS:    8930766  HIT:          0  MISS:    8930766
LLC PREFETCH  ACCESS:          0  HIT:          0  MISS:          0
LLC WRITEBACK ACCESS:    8937522  HIT:    1992524  MISS:    6944998
LLC TRANSLATION ACCESS:        177  HIT:          0  MISS:        177
LLC PREFETCH  REQUESTED:          0  ISSUED:          0  USEFUL:          0  USELESS:          0
LLC AVERAGE MISS LATENCY: 594.897 cycles
~~~~~~~~~~Reuse Distance Profiler output~~~~~~~~~~
0	0	0
1	0	0
2	0	0
3	0	0
4	0	0
5	0	0
6	0	0
7	0	0
8	0	0
9	0	0
10	0	0
11	0	0
12	0	0
13	0	0
14	0	0
15	0	0
16	0	0
17	0	0
18	0	0
19	0	0
20	0	0
21	0	0
22	0	0
23	0	0
24	0	0
25	0	0
26	0	0
27	0	0
28	0	0
29	0	0
30	0	0
31	0	0
32	0	0
33	0	0
34	0	0
35	0	0
36	0	0
37	0	0
38	0	0
39	0	0
40	0	0
41	0	0
42	0	0
43	0	0
44	0	0
45	0	0
46	0	0
47	0	0
48	0	0
49	0	0
50	0	0
51	0	0
52	0	0
53	0	0
54	0	0
55	0	0
56	0	0
57	0	0
58	0	0
59	0	0
60	0	0
61	0	0
62	0	0
63	0	0
64	0	0
66	0	0
68	0	0
70	0	0
72	0	0
74	0	0
76	0	0
78	0	0
80	0	0
82	0	0
84	0	0
86	0	0
88	0	0
90	0	0
92	0	0
94	0	0
96	0	0
98	0	0
100	0	0
102	0	0
104	0	0
106	0	0
108	0	0
110	0	0
112	0	0
114	0	0
116	0	0
118	0	0
120	0	0
122	0	0
124	0	0
126	0	0
128	0	0
132	0	0
136	0	0
140	0	0
144	0	0
148	0	0
152	0	0
156	0	0
160	0	0
164	0	0
168	0	0
172	0	0
176	0	0
180	0	0
184	0	0
188	0	0
192	0	0
196	0	0
200	0	0
204	0	0
208	0	0
212	0	0
216	0	0
220	0	0
224	0	0
228	0	0
232	0	0
236	0	0
240	0	0
244	0	0
248	0	0
252	0	0
256	0	0
264	0	0
272	0	0
280	0	0
288	0	0
296	0	0
304	0	0
312	0	0
320	0	0
328	0	0
336	0	0
344	0	0
352	0	0
360	0	0
368	0	0
376	0	0
384	0	0
392	0	0
400	0	0
408	0	0
416	0	0
424	0	0
432	0	0
440	0	0
448	0	0
456	0	0
464	0	0
472	0	0
480	0	0
488	0	0
496	0	0
504	0	0
512	0	0
528	0	0
544	0	0
560	0	0
576	0	0
592	0	0
608	0	0
624	0	0
640	0	0
656	0	0
672	0	0
688	0	0
704	0	0
720	0	0
736	0	0
752	0	0
768	0	0
784	0	0
800	0	0
816	0	0
832	0	0
848	0	0
864	0	0
880	0	0
896	0	0
912	0	0
928	0	0
944	0	0
960	0	0
976	0	0
992	0	0
1008	0	0
1024	0	0
1056	0	0
1088	0	0
1120	0	0
1152	0	0
1184	0	0
1216	0	0
1248	0	0
1280	0	0
1312	0	0
1344	0	0
1376	0	0
1408	0	0
1440	0	0
1472	0	0
1504	0	0
1536	0	0
1568	0	0
1600	0	0
1632	0	0
1664	0	0
1696	0	0
1728	0	0
1760	0	0
1792	0	0
1824	0	0
1856	0	0
1888	0	0
1920	0	0
1952	0	0
1984	0	0
2016	0	0
2048	0	0
2112	0	0
2176	0	0
2240	0	0
2304	0	0
2368	0	0
2432	0	0
2496	0	0
2560	0	0
2624	0	0
2688	0	0
2752	0	0
2816	0	0
2880	0	0
2944	0	0
3008	0	0
3072	0	0
3136	0	0
3200	0	0
3264	0	0
3328	0	0
3392	0	0
3456	0	0
3520	0	0
3584	0	0
3648	0	0
3712	0	0
3776	0	0
3840	0	0
3904	0	0
3968	0	0
4032	0	0
4096	0	0
4224	0	0
4352	0	0
4480	0	0
4608	0	0
4736	0	0
4864	0	0
4992	0	0
5120	0	0
5248	0	0
5376	0	0
5504	0	0
5632	0	0
5760	0	0
5888	0	0
6016	0	0
6144	0	0
6272	0	0
6400	0	0
6528	0	0
6656	0	0
6784	0	0
6912	0	0
7040	0	0
7168	0	0
7296	0	0
7424	0	0
7552	0	0
7680	0	0
7808	0	0
7936	0	0
8064	0	0
8192	0	0
8448	0	0
8704	0	0
8960	0	0
9216	0	0
9472	0	0
9728	0	0
9984	0	0
10240	0	0
10496	0	0
10752	0	0
11008	0	0
11264	0	0
11520	0	0
11776	0	0
12032	0	0
12288	0	0
12544	0	0
12800	0	0
13056	0	0
13312	0	0
13568	0	0
13824	0	0
14080	0	0
14336	0	0
14592	0	0
14848	0	0
15104	0	0
15360	0	0
15616	0	0
15872	0	0
16128	0	0
16384	0	0
16896	0	0
17408	0	0
17920	0	0
18432	0	0
18944	0	0
19456	0	0
19968	0	0
20480	0	0
20992	0	0
21504	0	0
22016	0	0
22528	0	0
23040	0	0
23552	0	0
24064	0	0
24576	0	0
25088	0	0
25600	0	0
26112	0	0
26624	0	0
27136	0	0
27648	0	0
28160	0	0
28672	0	0
29184	0	0
29696	0	0
30208	0	0
30720	0	0
31232	0	0
31744	0	0
32256	0	0
32768	0	0
33792	0	0
34816	0	0
35840	0	0
36864	0	0
37888	0	0
38912	0	0
39936	0	0
40960	0	0
41984	0	0
43008	0	0
44032	0	0
45056	0	0
46080	0	0
47104	0	0
48128	0	0
49152	0	0
50176	0	0
51200	0	0
52224	0	0
53248	0	0
54272	0	0
55296	0	0
56320	0	0
57344	0	0
58368	0	0
59392	0	0
60416	0	0
61440	0	0
62464	0	0
63488	0	0
64512	0	0
65536	0	0
67584	0	0
69632	0	0
71680	0	0
73728	0	0
75776	0	0
77824	0	0
79872	0	0
81920	0	0
83968	0	0
86016	0	0
88064	0	0
90112	0	0
92160	0	0
94208	0	0
96256	0	0
98304	0	0
100352	0	0
102400	0	0
104448	0	0
106496	0	0
108544	0	0
110592	0	0
112640	0	0
114688	0	0
116736	0	0
118784	0	0
120832	0	0
122880	0	0
124928	0	0
126976	0	0
129024	0	0
131072	0	0
135168	0	0
139264	0	0
143360	0	0
147456	0	0
151552	0	0
155648	0	0
159744	0	0
163840	0	0
167936	0	0
172032	0	0
176128	0	0
180224	0	0
184320	0	0
188416	0	0
192512	0	0
196608	0	0
200704	0	0
204800	0	0
208896	0	0
212992	0	0
217088	0	0
221184	0	0
225280	0	0
229376	0	0
233472	0	0
237568	0	0
241664	0	0
245760	0	0
249856	0	0
253952	0	0
258048	0	0
262144	0	0
270336	0	0
278528	0	0
286720	0	0
294912	0	0
303104	0	0
311296	0	0
319488	0	0
327680	0	0
335872	0	0
344064	0	0
352256	0	0
360448	0	0
368640	0	0
376832	0	0
385024	0	0
393216	0	0
401408	0	0
409600	0	0
417792	0	0
425984	0	0
434176	0	0
442368	0	0
450560	0	0
458752	0	0
466944	0	0
475136	0	0
483328	0	0
491520	0	0
499712	0	0
507904	0	0
516096	0	0
524288	0	0
540672	0	0
557056	0	0
573440	0	0
589824	0	0
606208	0	0
622592	0	0
638976	0	0
655360	0	0
671744	0	0
688128	0	0
704512	0	0
720896	0	0
737280	0	0
753664	0	0
770048	0	0
786432	0	0
802816	0	0
819200	0	0
835584	0	0
851968	0	0
868352	0	0
884736	0	0
901120	0	0
917504	0	0
933888	0	0
950272	0	0
966656	0	0
983040	0	0
999424	0	0
1015808	0	0
1032192	0	0
1048576	0	0
1081344	0	0
1114112	0	0
1146880	0	0
1179648	0	0
1212416	0	0
1245184	0	0
1277952	0	0
1310720	0	0
1343488	0	0
1376256	0	0
1409024	0	0
1441792	0	0
1474560	0	0
1507328	0	0
1540096	0	0
1572864	0	0
1605632	0	0
1638400	0	0
1671168	0	0
1703936	0	0
1736704	0	0
1769472	0	0
1802240	0	0
1835008	0	0
1867776	0	0
1900544	0	0
1933312	0	0
1966080	0	0
1998848	0	0
2031616	0	0
2064384	0	0
2097152	0	0
2162688	0	0
2228224	0	0
2293760	0	0
2359296	0	0
2424832	0	0
2490368	0	0
2555904	0	0
2621440	0	0
2686976	0	0
2752512	0	0
2818048	0	0
2883584	0	0
2949120	0	0
3014656	0	0
3080192	0	0
3145728	0	0
3211264	0	0
3276800	0	0
3342336	0	0
3407872	0	0
3473408	0	0
3538944	0	0
3604480	0	0
3670016	0	0
3735552	0	0
3801088	0	0
3866624	0	0
3932160	0	0
3997696	0	0
4063232	0	0
4128768	0	0
4194304	0	0
4325376	0	0
4456448	0	0
4587520	0	0
4718592	0	0
4849664	0	0
4980736	0	0
5111808	0	0
5242880	0	0
5373952	0	0
5505024	0	0
5636096	0	0
5767168	0	0
5898240	0	0
6029312	0	0
6160384	0	0
6291456	0	0
6422528	0	0
6553600	0	0
6684672	0	0
6815744	0	0
6946816	0	0
7077888	0	0
7208960	0	0
7340032	0	0
7471104	0	0
7602176	0	0
7733248	0	0
7864320	0	0
7995392	0	0
8126464	0	0
8257536	0	0
8388608	0	0
8650752	0	0
8912896	0	0
9175040	0	0
9437184	0	0
9699328	0	0
9961472	0	0
10223616	0	0
10485760	0	0
10747904	0	0
11010048	0	0
11272192	0	0
11534336	0	0
11796480	0	0
12058624	0	0
12320768	0	0
12582912	0	0
12845056	0	0
13107200	0	0
13369344	0	0
13631488	0	0
13893632	0	0
14155776	0	0
14417920	0	0
14680064	0	0
14942208	0	0
15204352	0	0
15466496	0	0
15728640	0	0
15990784	0	0
16252928	0	0
16515072	0	0
16777216	0	0
17301504	0	0
17825792	0	0
18350080	0	0
18874368	0	0
19398656	0	0
19922944	0	0
20447232	0	0
20971520	0	0
21495808	0	0
22020096	0	0
22544384	0	0
23068672	0	0
23592960	0	0
24117248	0	0
24641536	0	0
25165824	0	0
25690112	0	0
26214400	0	0
26738688	0	0
27262976	0	0
27787264	0	0
28311552	0	0
28835840	0	0
29360128	0	0
29884416	0	0
30408704	0	0
30932992	0	0
31457280	0	0
31981568	0	0
32505856	0	0
33030144	0	0
33554432	0	0
34603008	0	0
35651584	0	0
36700160	0	0
37748736	0	0
38797312	0	0
39845888	0	0
40894464	0	0
41943040	0	0
42991616	0	0
44040192	0	0
45088768	0	0
46137344	0	0
47185920	0	0
48234496	0	0
49283072	0	0
50331648	0	0
51380224	0	0
52428800	0	0
53477376	0	0
54525952	0	0
55574528	0	0
56623104	0	0
57671680	0	0
58720256	0	0
59768832	0	0
60817408	0	0
61865984	0	0
62914560	0	0
63963136	0	0
65011712	0	0
66060288	0	0
67108864	0	0
69206016	0	0
71303168	0	0
73400320	0	0
75497472	0	0
77594624	0	0
79691776	0	0
81788928	0	0
83886080	0	0
85983232	0	0
88080384	0	0
90177536	0	0
92274688	0	0
94371840	0	0
96468992	0	0
98566144	0	0
100663296	0	0
102760448	0	0
104857600	0	0
106954752	0	0
109051904	0	0
111149056	0	0
113246208	0	0
115343360	0	0
117440512	0	0
119537664	0	0
121634816	0	0
123731968	0	0
125829120	0	0
127926272	0	0
130023424	0	0
132120576	0	0
134217728	0	0
138412032	0	0
142606336	0	0
146800640	0	0
150994944	0	0
155189248	0	0
159383552	0	0
163577856	0	0
167772160	0	0
171966464	0	0
176160768	0	0
180355072	0	0
184549376	0	0
188743680	0	0
192937984	0	0
197132288	0	0
201326592	0	0
205520896	0	0
209715200	0	0
213909504	0	0
218103808	0	0
222298112	0	0
226492416	0	0
230686720	0	0
234881024	0	0
239075328	0	0
243269632	0	0
247463936	0	0
251658240	0	0
255852544	0	0
260046848	0	0
264241152	0	0
268435456	0	0
276824064	0	0
285212672	0	0
293601280	0	0
301989888	0	0
310378496	0	0
318767104	0	0
327155712	0	0
335544320	0	0
343932928	0	0
352321536	0	0
360710144	0	0
369098752	0	0
377487360	0	0
385875968	0	0
394264576	0	0
402653184	0	0
411041792	0	0
419430400	0	0
427819008	0	0
436207616	0	0
444596224	0	0
452984832	0	0
461373440	0	0
469762048	0	0
478150656	0	0
486539264	0	0
494927872	0	0
503316480	0	0
511705088	0	0
520093696	0	0
528482304	0	0
536870912	0	0
553648128	0	0
570425344	0	0
587202560	0	0
603979776	0	0
620756992	0	0
637534208	0	0
654311424	0	0
671088640	0	0
687865856	0	0
704643072	0	0
721420288	0	0
738197504	0	0
754974720	0	0
771751936	0	0
788529152	0	0
805306368	0	0
822083584	0	0
838860800	0	0
855638016	0	0
872415232	0	0
889192448	0	0
905969664	0	0
922746880	0	0
939524096	0	0
956301312	0	0
973078528	0	0
989855744	0	0
1006632960	0	0
1023410176	0	0
1040187392	0	0
1056964608	0	0
1073741824	0	0
1107296256	0	0
1140850688	0	0
1174405120	0	0
1207959552	0	0
1241513984	0	0
1275068416	0	0
1308622848	0	0
1342177280	0	0
1375731712	0	0
1409286144	0	0
1442840576	0	0
1476395008	0	0
1509949440	0	0
1543503872	0	0
1577058304	0	0
1610612736	0	0
1644167168	0	0
1677721600	0	0
1711276032	0	0
1744830464	0	0
1778384896	0	0
1811939328	0	0
1845493760	0	0
1879048192	0	0
1912602624	0	0
1946157056	0	0
1979711488	0	0
2013265920	0	0
2046820352	0	0
2080374784	0	0
2113929216	0	0
2147483648	0	0
2214592512	0	0
2281701376	0	0
2348810240	0	0
2415919104	0	0
2483027968	0	0
2550136832	0	0
2617245696	0	0
2684354560	0	0
2751463424	0	0
2818572288	0	0
2885681152	0	0
2952790016	0	0
3019898880	0	0
3087007744	0	0
3154116608	0	0
3221225472	0	0
3288334336	0	0
3355443200	0	0
3422552064	0	0
3489660928	0	0
3556769792	0	0
3623878656	0	0
3690987520	0	0
3758096384	0	0
3825205248	0	0
3892314112	0	0
3959422976	0	0
4026531840	0	0
4093640704	0	0
4160749568	0	0
4227858432	0	0
~~~~~~~~~~Reuse Distance Profiler output end~~~~~~~~~~


DRAM Statistics
 CHANNEL 0
 RQ ROW_BUFFER_HIT:      35330  ROW_BUFFER_MISS:   21858716
 DBUS AVG_CONGESTED_CYCLE:    4.00075
 WQ ROW_BUFFER_HIT:      60449  ROW_BUFFER_MISS:    8876579  FULL:          0


CPU 0 Branch Prediction Accuracy: 61.242% MPKI: 3.27119 Average ROB Occupancy at Mispredict: 327.787
Branch type MPKI
BRANCH_DIRECT_JUMP: 0
BRANCH_INDIRECT: 0
BRANCH_CONDITIONAL: 3.27119
BRANCH_DIRECT_CALL: 0
BRANCH_INDIRECT_CALL: 0
BRANCH_RETURN: 0

