
*** ChampSim Multicore Out-of-Order Simulator ***

Warmup Instructions: 50000000
Simulation Instructions: 1500000000
Number of CPUs: 1
Off-chip DRAM Size: 4 GiB Channels: 1 Width: 64-bit Data Rate: 3200 MT/s

VirtualMemory physical capacity: 8588881920 num_ppages: 2096895
VirtualMemory page size: 4096 log2_page_size: 12

CPU 0 runs traces/605.mcf_s-665B.champsimtrace.xz
CPU 0 Bimodal branch predictor
Basic BTB sets: 1024 ways: 8 indirect buffer size: 4096 RAS size: 64
Initializing LRU.
Initializing LRU.
Initializing LRU.
Initializing LRU.
Initializing rdLRU.
Initializing LRU.
Initializing LRU.
Heartbeat CPU 0 instructions: 2000001 cycles: 575741 heartbeat IPC: 3.47379 cumulative IPC: 3.47379 (Simulation time: 0 hr 0 min 57 sec) 
Heartbeat CPU 0 instructions: 4000001 cycles: 1154130 heartbeat IPC: 3.45788 cumulative IPC: 3.46581 (Simulation time: 0 hr 1 min 50 sec) 
Heartbeat CPU 0 instructions: 6000002 cycles: 1728039 heartbeat IPC: 3.48487 cumulative IPC: 3.47215 (Simulation time: 0 hr 2 min 46 sec) 
Heartbeat CPU 0 instructions: 8000002 cycles: 2305491 heartbeat IPC: 3.46349 cumulative IPC: 3.46998 (Simulation time: 0 hr 3 min 39 sec) 
Heartbeat CPU 0 instructions: 10000003 cycles: 2879931 heartbeat IPC: 3.48165 cumulative IPC: 3.47231 (Simulation time: 0 hr 4 min 34 sec) 
Heartbeat CPU 0 instructions: 12000003 cycles: 3457724 heartbeat IPC: 3.46145 cumulative IPC: 3.47049 (Simulation time: 0 hr 5 min 32 sec) 
Heartbeat CPU 0 instructions: 14000000 cycles: 4033707 heartbeat IPC: 3.47232 cumulative IPC: 3.47075 (Simulation time: 0 hr 6 min 33 sec) 
Heartbeat CPU 0 instructions: 16000003 cycles: 4612474 heartbeat IPC: 3.45563 cumulative IPC: 3.46885 (Simulation time: 0 hr 7 min 34 sec) 
Heartbeat CPU 0 instructions: 18000003 cycles: 5191690 heartbeat IPC: 3.45294 cumulative IPC: 3.46708 (Simulation time: 0 hr 8 min 34 sec) 
Heartbeat CPU 0 instructions: 20000004 cycles: 5770055 heartbeat IPC: 3.45803 cumulative IPC: 3.46617 (Simulation time: 0 hr 9 min 36 sec) 
Heartbeat CPU 0 instructions: 22000003 cycles: 6343811 heartbeat IPC: 3.4858 cumulative IPC: 3.46795 (Simulation time: 0 hr 10 min 35 sec) 
Heartbeat CPU 0 instructions: 24000003 cycles: 6920508 heartbeat IPC: 3.46803 cumulative IPC: 3.46795 (Simulation time: 0 hr 11 min 34 sec) 
Heartbeat CPU 0 instructions: 26000000 cycles: 7496780 heartbeat IPC: 3.47058 cumulative IPC: 3.46816 (Simulation time: 0 hr 12 min 35 sec) 
Heartbeat CPU 0 instructions: 28000002 cycles: 8076063 heartbeat IPC: 3.45255 cumulative IPC: 3.46704 (Simulation time: 0 hr 13 min 35 sec) 
Heartbeat CPU 0 instructions: 30000002 cycles: 8653311 heartbeat IPC: 3.46472 cumulative IPC: 3.46688 (Simulation time: 0 hr 14 min 34 sec) 
Heartbeat CPU 0 instructions: 32000002 cycles: 9229989 heartbeat IPC: 3.46814 cumulative IPC: 3.46696 (Simulation time: 0 hr 15 min 36 sec) 
Heartbeat CPU 0 instructions: 34000002 cycles: 9804902 heartbeat IPC: 3.47879 cumulative IPC: 3.46765 (Simulation time: 0 hr 16 min 33 sec) 
Heartbeat CPU 0 instructions: 36000001 cycles: 10381578 heartbeat IPC: 3.46815 cumulative IPC: 3.46768 (Simulation time: 0 hr 17 min 33 sec) 
Heartbeat CPU 0 instructions: 38000003 cycles: 10959217 heartbeat IPC: 3.46237 cumulative IPC: 3.4674 (Simulation time: 0 hr 18 min 36 sec) 
Heartbeat CPU 0 instructions: 40000001 cycles: 11535319 heartbeat IPC: 3.4716 cumulative IPC: 3.46761 (Simulation time: 0 hr 19 min 38 sec) 
Heartbeat CPU 0 instructions: 42000002 cycles: 12110640 heartbeat IPC: 3.47632 cumulative IPC: 3.46802 (Simulation time: 0 hr 20 min 38 sec) 
Heartbeat CPU 0 instructions: 44000001 cycles: 12683977 heartbeat IPC: 3.48835 cumulative IPC: 3.46894 (Simulation time: 0 hr 21 min 41 sec) 
Heartbeat CPU 0 instructions: 46000002 cycles: 13255528 heartbeat IPC: 3.49925 cumulative IPC: 3.47025 (Simulation time: 0 hr 22 min 44 sec) 
Heartbeat CPU 0 instructions: 48000000 cycles: 13831360 heartbeat IPC: 3.47323 cumulative IPC: 3.47037 (Simulation time: 0 hr 23 min 42 sec) 
Heartbeat CPU 0 instructions: 50000000 cycles: 14407082 heartbeat IPC: 3.4739 cumulative IPC: 3.47052 (Simulation time: 0 hr 24 min 37 sec) 

Warmup complete CPU 0 instructions: 50000005 cycles: 14407083 (Simulation time: 0 hr 24 min 37 sec) 

Heartbeat CPU 0 instructions: 52000000 cycles: 21095155 heartbeat IPC: 0.29904 cumulative IPC: 0.299039 (Simulation time: 0 hr 26 min 23 sec) 

Region of Interest Statistics
cpu0_DTLB TOTAL     ACCESS:     537120  HIT:     501077  MISS:      36043
cpu0_DTLB LOAD      ACCESS:     412486  HIT:     380312  MISS:      32174
cpu0_DTLB RFO       ACCESS:     124634  HIT:     120765  MISS:       3869
cpu0_DTLB PREFETCH  ACCESS:          0  HIT:          0  MISS:          0
cpu0_DTLB WRITEBACK ACCESS:          0  HIT:          0  MISS:          0
cpu0_ITLB TOTAL     ACCESS:     311143  HIT:     311143  MISS:          0
cpu0_ITLB LOAD      ACCESS:     311143  HIT:     311143  MISS:          0
cpu0_ITLB RFO       ACCESS:          0  HIT:          0  MISS:          0
cpu0_ITLB PREFETCH  ACCESS:          0  HIT:          0  MISS:          0
cpu0_ITLB WRITEBACK ACCESS:          0  HIT:          0  MISS:          0
cpu0_L1I TOTAL     ACCESS:        806  HIT:        806  MISS:          0
cpu0_L1I LOAD      ACCESS:        806  HIT:        806  MISS:          0
cpu0_L1I RFO       ACCESS:          0  HIT:          0  MISS:          0
cpu0_L1I PREFETCH  ACCESS:          0  HIT:          0  MISS:          0
cpu0_L1I WRITEBACK ACCESS:          0  HIT:          0  MISS:          0
cpu0_STLB TOTAL     ACCESS:      36043  HIT:      35470  MISS:        573
cpu0_STLB LOAD      ACCESS:      32174  HIT:      31609  MISS:        565
cpu0_STLB RFO       ACCESS:       3869  HIT:       3861  MISS:          8
cpu0_STLB PREFETCH  ACCESS:          0  HIT:          0  MISS:          0
cpu0_STLB WRITEBACK ACCESS:          0  HIT:          0  MISS:          0
cpu0_L1D TOTAL     ACCESS:     723490  HIT:     646182  MISS:      77308
cpu0_L1D LOAD      ACCESS:     508542  HIT:     438773  MISS:      69769
cpu0_L1D RFO       ACCESS:     214376  HIT:     206904  MISS:       7472
cpu0_L1D PREFETCH  ACCESS:          0  HIT:          0  MISS:          0
cpu0_L1D WRITEBACK ACCESS:          0  HIT:          0  MISS:          0
cpu0_L2C TOTAL     ACCESS:      87315  HIT:      34135  MISS:      53180
cpu0_L2C LOAD      ACCESS:      69769  HIT:      20015  MISS:      49754
cpu0_L2C RFO       ACCESS:       7472  HIT:       4076  MISS:       3396
cpu0_L2C PREFETCH  ACCESS:          0  HIT:          0  MISS:          0
cpu0_L2C WRITEBACK ACCESS:      10007  HIT:      10000  MISS:          7
LLC TOTAL     ACCESS:      58476  HIT:       7182  MISS:      51294
LLC LOAD      ACCESS:      49753  HIT:       3263  MISS:      46490
LLC RFO       ACCESS:       3396  HIT:       2140  MISS:       1256
LLC PREFETCH  ACCESS:          0  HIT:          0  MISS:          0
LLC WRITEBACK ACCESS:       5304  HIT:       1778  MISS:       3526
Heartbeat CPU 0 instructions: 54000004 cycles: 27853830 heartbeat IPC: 0.295917 cumulative IPC: 0.29747 (Simulation time: 0 hr 28 min 16 sec) 

Region of Interest Statistics
cpu0_DTLB TOTAL     ACCESS:    1078366  HIT:    1006136  MISS:      72230
cpu0_DTLB LOAD      ACCESS:     828286  HIT:     763857  MISS:      64429
cpu0_DTLB RFO       ACCESS:     250080  HIT:     242279  MISS:       7801
cpu0_DTLB PREFETCH  ACCESS:          0  HIT:          0  MISS:          0
cpu0_DTLB WRITEBACK ACCESS:          0  HIT:          0  MISS:          0
cpu0_ITLB TOTAL     ACCESS:     623719  HIT:     623719  MISS:          0
cpu0_ITLB LOAD      ACCESS:     623719  HIT:     623719  MISS:          0
cpu0_ITLB RFO       ACCESS:          0  HIT:          0  MISS:          0
cpu0_ITLB PREFETCH  ACCESS:          0  HIT:          0  MISS:          0
cpu0_ITLB WRITEBACK ACCESS:          0  HIT:          0  MISS:          0
cpu0_L1I TOTAL     ACCESS:       1695  HIT:       1695  MISS:          0
cpu0_L1I LOAD      ACCESS:       1695  HIT:       1695  MISS:          0
cpu0_L1I RFO       ACCESS:          0  HIT:          0  MISS:          0
cpu0_L1I PREFETCH  ACCESS:          0  HIT:          0  MISS:          0
cpu0_L1I WRITEBACK ACCESS:          0  HIT:          0  MISS:          0
cpu0_STLB TOTAL     ACCESS:      72230  HIT:      71077  MISS:       1153
cpu0_STLB LOAD      ACCESS:      64429  HIT:      63297  MISS:       1132
cpu0_STLB RFO       ACCESS:       7801  HIT:       7780  MISS:         21
cpu0_STLB PREFETCH  ACCESS:          0  HIT:          0  MISS:          0
cpu0_STLB WRITEBACK ACCESS:          0  HIT:          0  MISS:          0
cpu0_L1D TOTAL     ACCESS:    1448602  HIT:    1292942  MISS:     155660
cpu0_L1D LOAD      ACCESS:    1019788  HIT:     879524  MISS:     140264
cpu0_L1D RFO       ACCESS:     427663  HIT:     412416  MISS:      15247
cpu0_L1D PREFETCH  ACCESS:          0  HIT:          0  MISS:          0
cpu0_L1D WRITEBACK ACCESS:          0  HIT:          0  MISS:          0
cpu0_L2C TOTAL     ACCESS:     176056  HIT:      69338  MISS:     106718
cpu0_L2C LOAD      ACCESS:     140264  HIT:      40546  MISS:      99718
cpu0_L2C RFO       ACCESS:      15247  HIT:       8311  MISS:       6936
cpu0_L2C PREFETCH  ACCESS:          0  HIT:          0  MISS:          0
cpu0_L2C WRITEBACK ACCESS:      20396  HIT:      20381  MISS:         15
LLC TOTAL     ACCESS:     117400  HIT:      14905  MISS:     102495
LLC LOAD      ACCESS:      99717  HIT:       6652  MISS:      93065
LLC RFO       ACCESS:       6936  HIT:       4334  MISS:       2602
LLC PREFETCH  ACCESS:          0  HIT:          0  MISS:          0
LLC WRITEBACK ACCESS:      10698  HIT:       3918  MISS:       6780
Heartbeat CPU 0 instructions: 56000004 cycles: 34709621 heartbeat IPC: 0.291724 cumulative IPC: 0.29553 (Simulation time: 0 hr 30 min 8 sec) 

Region of Interest Statistics
cpu0_DTLB TOTAL     ACCESS:    1619780  HIT:    1510915  MISS:     108865
cpu0_DTLB LOAD      ACCESS:    1244875  HIT:    1147939  MISS:      96936
cpu0_DTLB RFO       ACCESS:     374905  HIT:     362976  MISS:      11929
cpu0_DTLB PREFETCH  ACCESS:          0  HIT:          0  MISS:          0
cpu0_DTLB WRITEBACK ACCESS:          0  HIT:          0  MISS:          0
cpu0_ITLB TOTAL     ACCESS:     933730  HIT:     933730  MISS:          0
cpu0_ITLB LOAD      ACCESS:     933730  HIT:     933730  MISS:          0
cpu0_ITLB RFO       ACCESS:          0  HIT:          0  MISS:          0
cpu0_ITLB PREFETCH  ACCESS:          0  HIT:          0  MISS:          0
cpu0_ITLB WRITEBACK ACCESS:          0  HIT:          0  MISS:          0
cpu0_L1I TOTAL     ACCESS:       2558  HIT:       2558  MISS:          0
cpu0_L1I LOAD      ACCESS:       2558  HIT:       2558  MISS:          0
cpu0_L1I RFO       ACCESS:          0  HIT:          0  MISS:          0
cpu0_L1I PREFETCH  ACCESS:          0  HIT:          0  MISS:          0
cpu0_L1I WRITEBACK ACCESS:          0  HIT:          0  MISS:          0
cpu0_STLB TOTAL     ACCESS:     108865  HIT:     107137  MISS:       1728
cpu0_STLB LOAD      ACCESS:      96936  HIT:      95241  MISS:       1695
cpu0_STLB RFO       ACCESS:      11929  HIT:      11896  MISS:         33
cpu0_STLB PREFETCH  ACCESS:          0  HIT:          0  MISS:          0
cpu0_STLB WRITEBACK ACCESS:          0  HIT:          0  MISS:          0
cpu0_L1D TOTAL     ACCESS:    2172535  HIT:    1937337  MISS:     235198
cpu0_L1D LOAD      ACCESS:    1530513  HIT:    1318436  MISS:     212077
cpu0_L1D RFO       ACCESS:     640300  HIT:     617398  MISS:      22902
cpu0_L1D PREFETCH  ACCESS:          0  HIT:          0  MISS:          0
cpu0_L1D WRITEBACK ACCESS:          0  HIT:          0  MISS:          0
cpu0_L2C TOTAL     ACCESS:     266156  HIT:     105057  MISS:     161099
cpu0_L2C LOAD      ACCESS:     212077  HIT:      61620  MISS:     150457
cpu0_L2C RFO       ACCESS:      22902  HIT:      12358  MISS:      10544
cpu0_L2C PREFETCH  ACCESS:          0  HIT:          0  MISS:          0
cpu0_L2C WRITEBACK ACCESS:      30958  HIT:      30935  MISS:         23
LLC TOTAL     ACCESS:     177616  HIT:      22618  MISS:     154998
LLC LOAD      ACCESS:     150456  HIT:       9997  MISS:     140459
LLC RFO       ACCESS:      10544  HIT:       6573  MISS:       3971
LLC PREFETCH  ACCESS:          0  HIT:          0  MISS:          0
LLC WRITEBACK ACCESS:      16541  HIT:       6046  MISS:      10495
Heartbeat CPU 0 instructions: 58000002 cycles: 41464221 heartbeat IPC: 0.296094 cumulative IPC: 0.29567 (Simulation time: 0 hr 31 min 55 sec) 

Region of Interest Statistics
cpu0_DTLB TOTAL     ACCESS:    2158116  HIT:    2012624  MISS:     145492
cpu0_DTLB LOAD      ACCESS:    1659418  HIT:    1530008  MISS:     129410
cpu0_DTLB RFO       ACCESS:     498698  HIT:     482616  MISS:      16082
cpu0_DTLB PREFETCH  ACCESS:          0  HIT:          0  MISS:          0
cpu0_DTLB WRITEBACK ACCESS:          0  HIT:          0  MISS:          0
cpu0_ITLB TOTAL     ACCESS:    1245867  HIT:    1245867  MISS:          0
cpu0_ITLB LOAD      ACCESS:    1245867  HIT:    1245867  MISS:          0
cpu0_ITLB RFO       ACCESS:          0  HIT:          0  MISS:          0
cpu0_ITLB PREFETCH  ACCESS:          0  HIT:          0  MISS:          0
cpu0_ITLB WRITEBACK ACCESS:          0  HIT:          0  MISS:          0
cpu0_L1I TOTAL     ACCESS:       3306  HIT:       3306  MISS:          0
cpu0_L1I LOAD      ACCESS:       3306  HIT:       3306  MISS:          0
cpu0_L1I RFO       ACCESS:          0  HIT:          0  MISS:          0
cpu0_L1I PREFETCH  ACCESS:          0  HIT:          0  MISS:          0
cpu0_L1I WRITEBACK ACCESS:          0  HIT:          0  MISS:          0
cpu0_STLB TOTAL     ACCESS:     145492  HIT:     143187  MISS:       2305
cpu0_STLB LOAD      ACCESS:     129410  HIT:     127149  MISS:       2261
cpu0_STLB RFO       ACCESS:      16082  HIT:      16038  MISS:         44
cpu0_STLB PREFETCH  ACCESS:          0  HIT:          0  MISS:          0
cpu0_STLB WRITEBACK ACCESS:          0  HIT:          0  MISS:          0
cpu0_L1D TOTAL     ACCESS:    2891278  HIT:    2576542  MISS:     314736
cpu0_L1D LOAD      ACCESS:    2038724  HIT:    1754824  MISS:     283900
cpu0_L1D RFO       ACCESS:     850258  HIT:     819707  MISS:      30551
cpu0_L1D PREFETCH  ACCESS:          0  HIT:          0  MISS:          0
cpu0_L1D WRITEBACK ACCESS:          0  HIT:          0  MISS:          0
cpu0_L2C TOTAL     ACCESS:     356322  HIT:     140946  MISS:     215376
cpu0_L2C LOAD      ACCESS:     283900  HIT:      82807  MISS:     201093
cpu0_L2C RFO       ACCESS:      30551  HIT:      16400  MISS:      14151
cpu0_L2C PREFETCH  ACCESS:          0  HIT:          0  MISS:          0
cpu0_L2C WRITEBACK ACCESS:      41586  HIT:      41555  MISS:         31
LLC TOTAL     ACCESS:     237663  HIT:      30141  MISS:     207522
LLC LOAD      ACCESS:     201092  HIT:      13266  MISS:     187826
LLC RFO       ACCESS:      14151  HIT:       8722  MISS:       5429
LLC PREFETCH  ACCESS:          0  HIT:          0  MISS:          0
LLC WRITEBACK ACCESS:      22319  HIT:       8150  MISS:      14169
Heartbeat CPU 0 instructions: 60000001 cycles: 48050195 heartbeat IPC: 0.303676 cumulative IPC: 0.297238 (Simulation time: 0 hr 33 min 46 sec) 

Region of Interest Statistics
cpu0_DTLB TOTAL     ACCESS:    2694272  HIT:    2512736  MISS:     181536
cpu0_DTLB LOAD      ACCESS:    2071480  HIT:    1909898  MISS:     161582
cpu0_DTLB RFO       ACCESS:     622792  HIT:     602838  MISS:      19954
cpu0_DTLB PREFETCH  ACCESS:          0  HIT:          0  MISS:          0
cpu0_DTLB WRITEBACK ACCESS:          0  HIT:          0  MISS:          0
cpu0_ITLB TOTAL     ACCESS:    1556484  HIT:    1556484  MISS:          0
cpu0_ITLB LOAD      ACCESS:    1556484  HIT:    1556484  MISS:          0
cpu0_ITLB RFO       ACCESS:          0  HIT:          0  MISS:          0
cpu0_ITLB PREFETCH  ACCESS:          0  HIT:          0  MISS:          0
cpu0_ITLB WRITEBACK ACCESS:          0  HIT:          0  MISS:          0
cpu0_L1I TOTAL     ACCESS:       4129  HIT:       4129  MISS:          0
cpu0_L1I LOAD      ACCESS:       4129  HIT:       4129  MISS:          0
cpu0_L1I RFO       ACCESS:          0  HIT:          0  MISS:          0
cpu0_L1I PREFETCH  ACCESS:          0  HIT:          0  MISS:          0
cpu0_L1I WRITEBACK ACCESS:          0  HIT:          0  MISS:          0
cpu0_STLB TOTAL     ACCESS:     181536  HIT:     178640  MISS:       2896
cpu0_STLB LOAD      ACCESS:     161582  HIT:     158740  MISS:       2842
cpu0_STLB RFO       ACCESS:      19954  HIT:      19900  MISS:         54
cpu0_STLB PREFETCH  ACCESS:          0  HIT:          0  MISS:          0
cpu0_STLB WRITEBACK ACCESS:          0  HIT:          0  MISS:          0
cpu0_L1D TOTAL     ACCESS:    3610612  HIT:    3218110  MISS:     392502
cpu0_L1D LOAD      ACCESS:    2543934  HIT:    2189807  MISS:     354127
cpu0_L1D RFO       ACCESS:    1063795  HIT:    1025770  MISS:      38025
cpu0_L1D PREFETCH  ACCESS:          0  HIT:          0  MISS:          0
cpu0_L1D WRITEBACK ACCESS:          0  HIT:          0  MISS:          0
cpu0_L2C TOTAL     ACCESS:     444158  HIT:     175556  MISS:     268602
cpu0_L2C LOAD      ACCESS:     354127  HIT:     103327  MISS:     250800
cpu0_L2C RFO       ACCESS:      38025  HIT:      20393  MISS:      17632
cpu0_L2C PREFETCH  ACCESS:          0  HIT:          0  MISS:          0
cpu0_L2C WRITEBACK ACCESS:      51656  HIT:      51618  MISS:         38
LLC TOTAL     ACCESS:     296211  HIT:      37268  MISS:     258943
LLC LOAD      ACCESS:     250799  HIT:      16350  MISS:     234449
LLC RFO       ACCESS:      17632  HIT:      10971  MISS:       6661
LLC PREFETCH  ACCESS:          0  HIT:          0  MISS:          0
LLC WRITEBACK ACCESS:      27648  HIT:       9943  MISS:      17705
Heartbeat CPU 0 instructions: 62000002 cycles: 54907130 heartbeat IPC: 0.291676 cumulative IPC: 0.296296 (Simulation time: 0 hr 35 min 52 sec) 

Region of Interest Statistics
cpu0_DTLB TOTAL     ACCESS:    3232600  HIT:    3014313  MISS:     218287
cpu0_DTLB LOAD      ACCESS:    2485004  HIT:    2290845  MISS:     194159
cpu0_DTLB RFO       ACCESS:     747596  HIT:     723468  MISS:      24128
cpu0_DTLB PREFETCH  ACCESS:          0  HIT:          0  MISS:          0
cpu0_DTLB WRITEBACK ACCESS:          0  HIT:          0  MISS:          0
cpu0_ITLB TOTAL     ACCESS:    1868036  HIT:    1868036  MISS:          0
cpu0_ITLB LOAD      ACCESS:    1868036  HIT:    1868036  MISS:          0
cpu0_ITLB RFO       ACCESS:          0  HIT:          0  MISS:          0
cpu0_ITLB PREFETCH  ACCESS:          0  HIT:          0  MISS:          0
cpu0_ITLB WRITEBACK ACCESS:          0  HIT:          0  MISS:          0
cpu0_L1I TOTAL     ACCESS:       4963  HIT:       4963  MISS:          0
cpu0_L1I LOAD      ACCESS:       4963  HIT:       4963  MISS:          0
cpu0_L1I RFO       ACCESS:          0  HIT:          0  MISS:          0
cpu0_L1I PREFETCH  ACCESS:          0  HIT:          0  MISS:          0
cpu0_L1I WRITEBACK ACCESS:          0  HIT:          0  MISS:          0
cpu0_STLB TOTAL     ACCESS:     218287  HIT:     214829  MISS:       3458
cpu0_STLB LOAD      ACCESS:     194159  HIT:     190765  MISS:       3394
cpu0_STLB RFO       ACCESS:      24128  HIT:      24064  MISS:         64
cpu0_STLB PREFETCH  ACCESS:          0  HIT:          0  MISS:          0
cpu0_STLB WRITEBACK ACCESS:          0  HIT:          0  MISS:          0
cpu0_L1D TOTAL     ACCESS:    4336306  HIT:    3864528  MISS:     471778
cpu0_L1D LOAD      ACCESS:    3054433  HIT:    2628668  MISS:     425765
cpu0_L1D RFO       ACCESS:    1278428  HIT:    1232844  MISS:      45584
cpu0_L1D PREFETCH  ACCESS:          0  HIT:          0  MISS:          0
cpu0_L1D WRITEBACK ACCESS:          0  HIT:          0  MISS:          0
cpu0_L2C TOTAL     ACCESS:     533980  HIT:     211137  MISS:     322843
cpu0_L2C LOAD      ACCESS:     425764  HIT:     124236  MISS:     301528
cpu0_L2C RFO       ACCESS:      45584  HIT:      24476  MISS:      21108
cpu0_L2C PREFETCH  ACCESS:          0  HIT:          0  MISS:          0
cpu0_L2C WRITEBACK ACCESS:      62203  HIT:      62156  MISS:         47
LLC TOTAL     ACCESS:     356192  HIT:      44668  MISS:     311524
LLC LOAD      ACCESS:     301527  HIT:      19464  MISS:     282063
LLC RFO       ACCESS:      21108  HIT:      13158  MISS:       7950
LLC PREFETCH  ACCESS:          0  HIT:          0  MISS:          0
LLC WRITEBACK ACCESS:      33397  HIT:      12041  MISS:      21356
Heartbeat CPU 0 instructions: 64000002 cycles: 61733457 heartbeat IPC: 0.292983 cumulative IPC: 0.295818 (Simulation time: 0 hr 38 min 28 sec) 

Region of Interest Statistics
cpu0_DTLB TOTAL     ACCESS:    3774187  HIT:    3519287  MISS:     254900
cpu0_DTLB LOAD      ACCESS:    2901208  HIT:    2674565  MISS:     226643
cpu0_DTLB RFO       ACCESS:     872979  HIT:     844722  MISS:      28257
cpu0_DTLB PREFETCH  ACCESS:          0  HIT:          0  MISS:          0
cpu0_DTLB WRITEBACK ACCESS:          0  HIT:          0  MISS:          0
cpu0_ITLB TOTAL     ACCESS:    2177971  HIT:    2177971  MISS:          0
cpu0_ITLB LOAD      ACCESS:    2177971  HIT:    2177971  MISS:          0
cpu0_ITLB RFO       ACCESS:          0  HIT:          0  MISS:          0
cpu0_ITLB PREFETCH  ACCESS:          0  HIT:          0  MISS:          0
cpu0_ITLB WRITEBACK ACCESS:          0  HIT:          0  MISS:          0
cpu0_L1I TOTAL     ACCESS:       5765  HIT:       5765  MISS:          0
cpu0_L1I LOAD      ACCESS:       5765  HIT:       5765  MISS:          0
cpu0_L1I RFO       ACCESS:          0  HIT:          0  MISS:          0
cpu0_L1I PREFETCH  ACCESS:          0  HIT:          0  MISS:          0
cpu0_L1I WRITEBACK ACCESS:          0  HIT:          0  MISS:          0
cpu0_STLB TOTAL     ACCESS:     254900  HIT:     250871  MISS:       4029
cpu0_STLB LOAD      ACCESS:     226643  HIT:     222687  MISS:       3956
cpu0_STLB RFO       ACCESS:      28257  HIT:      28184  MISS:         73
cpu0_STLB PREFETCH  ACCESS:          0  HIT:          0  MISS:          0
cpu0_STLB WRITEBACK ACCESS:          0  HIT:          0  MISS:          0
cpu0_L1D TOTAL     ACCESS:    5060830  HIT:    4510065  MISS:     550765
cpu0_L1D LOAD      ACCESS:    3565069  HIT:    3068059  MISS:     497010
cpu0_L1D RFO       ACCESS:    1491747  HIT:    1438498  MISS:      53249
cpu0_L1D PREFETCH  ACCESS:          0  HIT:          0  MISS:          0
cpu0_L1D WRITEBACK ACCESS:          0  HIT:          0  MISS:          0
cpu0_L2C TOTAL     ACCESS:     623517  HIT:     246712  MISS:     376805
cpu0_L2C LOAD      ACCESS:     497006  HIT:     145080  MISS:     351926
cpu0_L2C RFO       ACCESS:      53249  HIT:      28614  MISS:      24635
cpu0_L2C PREFETCH  ACCESS:          0  HIT:          0  MISS:          0
cpu0_L2C WRITEBACK ACCESS:      72756  HIT:      72701  MISS:         55
LLC TOTAL     ACCESS:     415735  HIT:      52069  MISS:     363666
LLC LOAD      ACCESS:     351925  HIT:      22645  MISS:     329280
LLC RFO       ACCESS:      24635  HIT:      15366  MISS:       9269
LLC PREFETCH  ACCESS:          0  HIT:          0  MISS:          0
LLC WRITEBACK ACCESS:      38986  HIT:      14050  MISS:      24936
Heartbeat CPU 0 instructions: 66000003 cycles: 68524268 heartbeat IPC: 0.294516 cumulative IPC: 0.295655 (Simulation time: 0 hr 40 min 47 sec) 

Region of Interest Statistics
cpu0_DTLB TOTAL     ACCESS:    4313527  HIT:    4021844  MISS:     291683
cpu0_DTLB LOAD      ACCESS:    3316142  HIT:    3056852  MISS:     259290
cpu0_DTLB RFO       ACCESS:     997385  HIT:     964992  MISS:      32393
cpu0_DTLB PREFETCH  ACCESS:          0  HIT:          0  MISS:          0
cpu0_DTLB WRITEBACK ACCESS:          0  HIT:          0  MISS:          0
cpu0_ITLB TOTAL     ACCESS:    2488254  HIT:    2488254  MISS:          0
cpu0_ITLB LOAD      ACCESS:    2488254  HIT:    2488254  MISS:          0
cpu0_ITLB RFO       ACCESS:          0  HIT:          0  MISS:          0
cpu0_ITLB PREFETCH  ACCESS:          0  HIT:          0  MISS:          0
cpu0_ITLB WRITEBACK ACCESS:          0  HIT:          0  MISS:          0
cpu0_L1I TOTAL     ACCESS:       6708  HIT:       6708  MISS:          0
cpu0_L1I LOAD      ACCESS:       6708  HIT:       6708  MISS:          0
cpu0_L1I RFO       ACCESS:          0  HIT:          0  MISS:          0
cpu0_L1I PREFETCH  ACCESS:          0  HIT:          0  MISS:          0
cpu0_L1I WRITEBACK ACCESS:          0  HIT:          0  MISS:          0
cpu0_STLB TOTAL     ACCESS:     291683  HIT:     287052  MISS:       4631
cpu0_STLB LOAD      ACCESS:     259290  HIT:     254742  MISS:       4548
cpu0_STLB RFO       ACCESS:      32393  HIT:      32310  MISS:         83
cpu0_STLB PREFETCH  ACCESS:          0  HIT:          0  MISS:          0
cpu0_STLB WRITEBACK ACCESS:          0  HIT:          0  MISS:          0
cpu0_L1D TOTAL     ACCESS:    5785016  HIT:    5155814  MISS:     629202
cpu0_L1D LOAD      ACCESS:    4075805  HIT:    3508236  MISS:     567569
cpu0_L1D RFO       ACCESS:    1704595  HIT:    1643543  MISS:      61052
cpu0_L1D PREFETCH  ACCESS:          0  HIT:          0  MISS:          0
cpu0_L1D WRITEBACK ACCESS:          0  HIT:          0  MISS:          0
cpu0_L2C TOTAL     ACCESS:     712482  HIT:     281893  MISS:     430589
cpu0_L2C LOAD      ACCESS:     567565  HIT:     165349  MISS:     402216
cpu0_L2C RFO       ACCESS:      61052  HIT:      32956  MISS:      28096
cpu0_L2C PREFETCH  ACCESS:          0  HIT:          0  MISS:          0
cpu0_L2C WRITEBACK ACCESS:      83284  HIT:      83222  MISS:         62
LLC TOTAL     ACCESS:     475092  HIT:      59496  MISS:     415596
LLC LOAD      ACCESS:     402215  HIT:      25890  MISS:     376325
LLC RFO       ACCESS:      28096  HIT:      17628  MISS:      10468
LLC PREFETCH  ACCESS:          0  HIT:          0  MISS:          0
LLC WRITEBACK ACCESS:      44566  HIT:      15970  MISS:      28596
Heartbeat CPU 0 instructions: 68000002 cycles: 74591925 heartbeat IPC: 0.329616 cumulative IPC: 0.299079 (Simulation time: 0 hr 42 min 53 sec) 

Region of Interest Statistics
cpu0_DTLB TOTAL     ACCESS:    4856280  HIT:    4533771  MISS:     322509
cpu0_DTLB LOAD      ACCESS:    3732718  HIT:    3446096  MISS:     286622
cpu0_DTLB RFO       ACCESS:    1123562  HIT:    1087675  MISS:      35887
cpu0_DTLB PREFETCH  ACCESS:          0  HIT:          0  MISS:          0
cpu0_DTLB WRITEBACK ACCESS:          0  HIT:          0  MISS:          0
cpu0_ITLB TOTAL     ACCESS:    2805638  HIT:    2805638  MISS:          0
cpu0_ITLB LOAD      ACCESS:    2805638  HIT:    2805638  MISS:          0
cpu0_ITLB RFO       ACCESS:          0  HIT:          0  MISS:          0
cpu0_ITLB PREFETCH  ACCESS:          0  HIT:          0  MISS:          0
cpu0_ITLB WRITEBACK ACCESS:          0  HIT:          0  MISS:          0
cpu0_L1I TOTAL     ACCESS:       7357  HIT:       7357  MISS:          0
cpu0_L1I LOAD      ACCESS:       7357  HIT:       7357  MISS:          0
cpu0_L1I RFO       ACCESS:          0  HIT:          0  MISS:          0
cpu0_L1I PREFETCH  ACCESS:          0  HIT:          0  MISS:          0
cpu0_L1I WRITEBACK ACCESS:          0  HIT:          0  MISS:          0
cpu0_STLB TOTAL     ACCESS:     322509  HIT:     317377  MISS:       5132
cpu0_STLB LOAD      ACCESS:     286622  HIT:     281584  MISS:       5038
cpu0_STLB RFO       ACCESS:      35887  HIT:      35793  MISS:         94
cpu0_STLB PREFETCH  ACCESS:          0  HIT:          0  MISS:          0
cpu0_STLB WRITEBACK ACCESS:          0  HIT:          0  MISS:          0
cpu0_L1D TOTAL     ACCESS:    6519112  HIT:    5820493  MISS:     698619
cpu0_L1D LOAD      ACCESS:    4590889  HIT:    3960134  MISS:     630755
cpu0_L1D RFO       ACCESS:    1923109  HIT:    1855908  MISS:      67201
cpu0_L1D PREFETCH  ACCESS:          0  HIT:          0  MISS:          0
cpu0_L1D WRITEBACK ACCESS:          0  HIT:          0  MISS:          0
cpu0_L2C TOTAL     ACCESS:     791154  HIT:     315702  MISS:     475452
cpu0_L2C LOAD      ACCESS:     630751  HIT:     186619  MISS:     444132
cpu0_L2C RFO       ACCESS:      67201  HIT:      36197  MISS:      31004
cpu0_L2C PREFETCH  ACCESS:          0  HIT:          0  MISS:          0
cpu0_L2C WRITEBACK ACCESS:      92539  HIT:      92469  MISS:         70
LLC TOTAL     ACCESS:     524626  HIT:      66001  MISS:     458625
LLC LOAD      ACCESS:     444131  HIT:      28855  MISS:     415276
LLC RFO       ACCESS:      31004  HIT:      19459  MISS:      11545
LLC PREFETCH  ACCESS:          0  HIT:          0  MISS:          0
LLC WRITEBACK ACCESS:      49245  HIT:      17678  MISS:      31567
Heartbeat CPU 0 instructions: 70000000 cycles: 81291113 heartbeat IPC: 0.298543 cumulative IPC: 0.299025 (Simulation time: 0 hr 44 min 38 sec) 

Region of Interest Statistics
cpu0_DTLB TOTAL     ACCESS:    5395682  HIT:    5037839  MISS:     357843
cpu0_DTLB LOAD      ACCESS:    4147198  HIT:    3829145  MISS:     318053
cpu0_DTLB RFO       ACCESS:    1248484  HIT:    1208694  MISS:      39790
cpu0_DTLB PREFETCH  ACCESS:          0  HIT:          0  MISS:          0
cpu0_DTLB WRITEBACK ACCESS:          0  HIT:          0  MISS:          0
cpu0_ITLB TOTAL     ACCESS:    3118526  HIT:    3118526  MISS:          0
cpu0_ITLB LOAD      ACCESS:    3118526  HIT:    3118526  MISS:          0
cpu0_ITLB RFO       ACCESS:          0  HIT:          0  MISS:          0
cpu0_ITLB PREFETCH  ACCESS:          0  HIT:          0  MISS:          0
cpu0_ITLB WRITEBACK ACCESS:          0  HIT:          0  MISS:          0
cpu0_L1I TOTAL     ACCESS:       8150  HIT:       8150  MISS:          0
cpu0_L1I LOAD      ACCESS:       8150  HIT:       8150  MISS:          0
cpu0_L1I RFO       ACCESS:          0  HIT:          0  MISS:          0
cpu0_L1I PREFETCH  ACCESS:          0  HIT:          0  MISS:          0
cpu0_L1I WRITEBACK ACCESS:          0  HIT:          0  MISS:          0
cpu0_STLB TOTAL     ACCESS:     357843  HIT:     352142  MISS:       5701
cpu0_STLB LOAD      ACCESS:     318053  HIT:     312456  MISS:       5597
cpu0_STLB RFO       ACCESS:      39790  HIT:      39686  MISS:        104
cpu0_STLB PREFETCH  ACCESS:          0  HIT:          0  MISS:          0
cpu0_STLB WRITEBACK ACCESS:          0  HIT:          0  MISS:          0
cpu0_L1D TOTAL     ACCESS:    7245589  HIT:    6470532  MISS:     775057
cpu0_L1D LOAD      ACCESS:    5101494  HIT:    4401769  MISS:     699725
cpu0_L1D RFO       ACCESS:    2138415  HIT:    2063831  MISS:      74584
cpu0_L1D PREFETCH  ACCESS:          0  HIT:          0  MISS:          0
cpu0_L1D WRITEBACK ACCESS:          0  HIT:          0  MISS:          0
cpu0_L2C TOTAL     ACCESS:     877758  HIT:     350111  MISS:     527647
cpu0_L2C LOAD      ACCESS:     699721  HIT:     206987  MISS:     492734
cpu0_L2C RFO       ACCESS:      74584  HIT:      40024  MISS:      34560
cpu0_L2C PREFETCH  ACCESS:          0  HIT:          0  MISS:          0
cpu0_L2C WRITEBACK ACCESS:     102705  HIT:     102627  MISS:         78
LLC TOTAL     ACCESS:     582412  HIT:      73312  MISS:     509100
LLC LOAD      ACCESS:     492733  HIT:      32040  MISS:     460693
LLC RFO       ACCESS:      34560  HIT:      21667  MISS:      12893
LLC PREFETCH  ACCESS:          0  HIT:          0  MISS:          0
LLC WRITEBACK ACCESS:      54844  HIT:      19595  MISS:      35249
Heartbeat CPU 0 instructions: 72000000 cycles: 88052209 heartbeat IPC: 0.29581 cumulative IPC: 0.29873 (Simulation time: 0 hr 46 min 41 sec) 

Region of Interest Statistics
cpu0_DTLB TOTAL     ACCESS:    5937930  HIT:    5544722  MISS:     393208
cpu0_DTLB LOAD      ACCESS:    4564450  HIT:    4214896  MISS:     349554
cpu0_DTLB RFO       ACCESS:    1373480  HIT:    1329826  MISS:      43654
cpu0_DTLB PREFETCH  ACCESS:          0  HIT:          0  MISS:          0
cpu0_DTLB WRITEBACK ACCESS:          0  HIT:          0  MISS:          0
cpu0_ITLB TOTAL     ACCESS:    3431304  HIT:    3431304  MISS:          0
cpu0_ITLB LOAD      ACCESS:    3431304  HIT:    3431304  MISS:          0
cpu0_ITLB RFO       ACCESS:          0  HIT:          0  MISS:          0
cpu0_ITLB PREFETCH  ACCESS:          0  HIT:          0  MISS:          0
cpu0_ITLB WRITEBACK ACCESS:          0  HIT:          0  MISS:          0
cpu0_L1I TOTAL     ACCESS:       8907  HIT:       8907  MISS:          0
cpu0_L1I LOAD      ACCESS:       8907  HIT:       8907  MISS:          0
cpu0_L1I RFO       ACCESS:          0  HIT:          0  MISS:          0
cpu0_L1I PREFETCH  ACCESS:          0  HIT:          0  MISS:          0
cpu0_L1I WRITEBACK ACCESS:          0  HIT:          0  MISS:          0
cpu0_STLB TOTAL     ACCESS:     393208  HIT:     386916  MISS:       6292
cpu0_STLB LOAD      ACCESS:     349554  HIT:     343374  MISS:       6180
cpu0_STLB RFO       ACCESS:      43654  HIT:      43542  MISS:        112
cpu0_STLB PREFETCH  ACCESS:          0  HIT:          0  MISS:          0
cpu0_STLB WRITEBACK ACCESS:          0  HIT:          0  MISS:          0
cpu0_L1D TOTAL     ACCESS:    7971310  HIT:    7118331  MISS:     852979
cpu0_L1D LOAD      ACCESS:    5613388  HIT:    4843413  MISS:     769975
cpu0_L1D RFO       ACCESS:    2351653  HIT:    2269471  MISS:      82182
cpu0_L1D PREFETCH  ACCESS:          0  HIT:          0  MISS:          0
cpu0_L1D WRITEBACK ACCESS:          0  HIT:          0  MISS:          0
cpu0_L2C TOTAL     ACCESS:     965794  HIT:     385558  MISS:     580236
cpu0_L2C LOAD      ACCESS:     769971  HIT:     228248  MISS:     541723
cpu0_L2C RFO       ACCESS:      82182  HIT:      44059  MISS:      38123
cpu0_L2C PREFETCH  ACCESS:          0  HIT:          0  MISS:          0
cpu0_L2C WRITEBACK ACCESS:     112819  HIT:     112733  MISS:         86
LLC TOTAL     ACCESS:     640641  HIT:      80551  MISS:     560090
LLC LOAD      ACCESS:     541721  HIT:      35188  MISS:     506533
LLC RFO       ACCESS:      38123  HIT:      23943  MISS:      14180
LLC PREFETCH  ACCESS:          0  HIT:          0  MISS:          0
LLC WRITEBACK ACCESS:      60493  HIT:      21407  MISS:      39086
Heartbeat CPU 0 instructions: 74000000 cycles: 94769099 heartbeat IPC: 0.297757 cumulative IPC: 0.298649 (Simulation time: 0 hr 48 min 16 sec) 

Region of Interest Statistics
cpu0_DTLB TOTAL     ACCESS:    6477166  HIT:    6047778  MISS:     429388
cpu0_DTLB LOAD      ACCESS:    4979272  HIT:    4597534  MISS:     381738
cpu0_DTLB RFO       ACCESS:    1497894  HIT:    1450244  MISS:      47650
cpu0_DTLB PREFETCH  ACCESS:          0  HIT:          0  MISS:          0
cpu0_DTLB WRITEBACK ACCESS:          0  HIT:          0  MISS:          0
cpu0_ITLB TOTAL     ACCESS:    3742703  HIT:    3742703  MISS:          0
cpu0_ITLB LOAD      ACCESS:    3742703  HIT:    3742703  MISS:          0
cpu0_ITLB RFO       ACCESS:          0  HIT:          0  MISS:          0
cpu0_ITLB PREFETCH  ACCESS:          0  HIT:          0  MISS:          0
cpu0_ITLB WRITEBACK ACCESS:          0  HIT:          0  MISS:          0
cpu0_L1I TOTAL     ACCESS:      10003  HIT:      10003  MISS:          0
cpu0_L1I LOAD      ACCESS:      10003  HIT:      10003  MISS:          0
cpu0_L1I RFO       ACCESS:          0  HIT:          0  MISS:          0
cpu0_L1I PREFETCH  ACCESS:          0  HIT:          0  MISS:          0
cpu0_L1I WRITEBACK ACCESS:          0  HIT:          0  MISS:          0
cpu0_STLB TOTAL     ACCESS:     429388  HIT:     422542  MISS:       6846
cpu0_STLB LOAD      ACCESS:     381738  HIT:     375012  MISS:       6726
cpu0_STLB RFO       ACCESS:      47650  HIT:      47530  MISS:        120
cpu0_STLB PREFETCH  ACCESS:          0  HIT:          0  MISS:          0
cpu0_STLB WRITEBACK ACCESS:          0  HIT:          0  MISS:          0
cpu0_L1D TOTAL     ACCESS:    8693079  HIT:    7761879  MISS:     931200
cpu0_L1D LOAD      ACCESS:    6122231  HIT:    5281688  MISS:     840543
cpu0_L1D RFO       ACCESS:    2564026  HIT:    2474270  MISS:      89756
cpu0_L1D PREFETCH  ACCESS:          0  HIT:          0  MISS:          0
cpu0_L1D WRITEBACK ACCESS:          0  HIT:          0  MISS:          0
cpu0_L2C TOTAL     ACCESS:    1054331  HIT:     420779  MISS:     633552
cpu0_L2C LOAD      ACCESS:     840538  HIT:     248997  MISS:     591541
cpu0_L2C RFO       ACCESS:      89756  HIT:      48165  MISS:      41591
cpu0_L2C PREFETCH  ACCESS:          0  HIT:          0  MISS:          0
cpu0_L2C WRITEBACK ACCESS:     123136  HIT:     123043  MISS:         93
LLC TOTAL     ACCESS:     699355  HIT:      87601  MISS:     611754
LLC LOAD      ACCESS:     591539  HIT:      38296  MISS:     553243
LLC RFO       ACCESS:      41591  HIT:      26135  MISS:      15456
LLC PREFETCH  ACCESS:          0  HIT:          0  MISS:          0
LLC WRITEBACK ACCESS:      65898  HIT:      23156  MISS:      42742
Heartbeat CPU 0 instructions: 76000000 cycles: 101499878 heartbeat IPC: 0.297142 cumulative IPC: 0.298532 (Simulation time: 0 hr 49 min 42 sec) 

Region of Interest Statistics
cpu0_DTLB TOTAL     ACCESS:    7016421  HIT:    6550808  MISS:     465613
cpu0_DTLB LOAD      ACCESS:    5394094  HIT:    4980217  MISS:     413877
cpu0_DTLB RFO       ACCESS:    1622327  HIT:    1570591  MISS:      51736
cpu0_DTLB PREFETCH  ACCESS:          0  HIT:          0  MISS:          0
cpu0_DTLB WRITEBACK ACCESS:          0  HIT:          0  MISS:          0
cpu0_ITLB TOTAL     ACCESS:    4054042  HIT:    4054042  MISS:          0
cpu0_ITLB LOAD      ACCESS:    4054042  HIT:    4054042  MISS:          0
cpu0_ITLB RFO       ACCESS:          0  HIT:          0  MISS:          0
cpu0_ITLB PREFETCH  ACCESS:          0  HIT:          0  MISS:          0
cpu0_ITLB WRITEBACK ACCESS:          0  HIT:          0  MISS:          0
cpu0_L1I TOTAL     ACCESS:      10852  HIT:      10852  MISS:          0
cpu0_L1I LOAD      ACCESS:      10852  HIT:      10852  MISS:          0
cpu0_L1I RFO       ACCESS:          0  HIT:          0  MISS:          0
cpu0_L1I PREFETCH  ACCESS:          0  HIT:          0  MISS:          0
cpu0_L1I WRITEBACK ACCESS:          0  HIT:          0  MISS:          0
cpu0_STLB TOTAL     ACCESS:     465613  HIT:     458255  MISS:       7358
cpu0_STLB LOAD      ACCESS:     413877  HIT:     406646  MISS:       7231
cpu0_STLB RFO       ACCESS:      51736  HIT:      51609  MISS:        127
cpu0_STLB PREFETCH  ACCESS:          0  HIT:          0  MISS:          0
cpu0_STLB WRITEBACK ACCESS:          0  HIT:          0  MISS:          0
cpu0_L1D TOTAL     ACCESS:    9415029  HIT:    8404877  MISS:    1010152
cpu0_L1D LOAD      ACCESS:    6631763  HIT:    5720164  MISS:     911599
cpu0_L1D RFO       ACCESS:    2775933  HIT:    2678361  MISS:      97572
cpu0_L1D PREFETCH  ACCESS:          0  HIT:          0  MISS:          0
cpu0_L1D WRITEBACK ACCESS:          0  HIT:          0  MISS:          0
cpu0_L2C TOTAL     ACCESS:    1143837  HIT:     456555  MISS:     687282
cpu0_L2C LOAD      ACCESS:     911594  HIT:     269845  MISS:     641749
cpu0_L2C RFO       ACCESS:      97572  HIT:      52495  MISS:      45077
cpu0_L2C PREFETCH  ACCESS:          0  HIT:          0  MISS:          0
cpu0_L2C WRITEBACK ACCESS:     133690  HIT:     133589  MISS:        101
LLC TOTAL     ACCESS:     758627  HIT:      95119  MISS:     663508
LLC LOAD      ACCESS:     641747  HIT:      41678  MISS:     600069
LLC RFO       ACCESS:      45077  HIT:      28314  MISS:      16763
LLC PREFETCH  ACCESS:          0  HIT:          0  MISS:          0
LLC WRITEBACK ACCESS:      71448  HIT:      25113  MISS:      46335
Heartbeat CPU 0 instructions: 78000002 cycles: 108239204 heartbeat IPC: 0.296766 cumulative IPC: 0.298405 (Simulation time: 0 hr 51 min 8 sec) 

Region of Interest Statistics
cpu0_DTLB TOTAL     ACCESS:    7556577  HIT:    7054786  MISS:     501791
cpu0_DTLB LOAD      ACCESS:    5809266  HIT:    5363253  MISS:     446013
cpu0_DTLB RFO       ACCESS:    1747311  HIT:    1691533  MISS:      55778
cpu0_DTLB PREFETCH  ACCESS:          0  HIT:          0  MISS:          0
cpu0_DTLB WRITEBACK ACCESS:          0  HIT:          0  MISS:          0
cpu0_ITLB TOTAL     ACCESS:    4364717  HIT:    4364717  MISS:          0
cpu0_ITLB LOAD      ACCESS:    4364717  HIT:    4364717  MISS:          0
cpu0_ITLB RFO       ACCESS:          0  HIT:          0  MISS:          0
cpu0_ITLB PREFETCH  ACCESS:          0  HIT:          0  MISS:          0
cpu0_ITLB WRITEBACK ACCESS:          0  HIT:          0  MISS:          0
cpu0_L1I TOTAL     ACCESS:      11834  HIT:      11834  MISS:          0
cpu0_L1I LOAD      ACCESS:      11834  HIT:      11834  MISS:          0
cpu0_L1I RFO       ACCESS:          0  HIT:          0  MISS:          0
cpu0_L1I PREFETCH  ACCESS:          0  HIT:          0  MISS:          0
cpu0_L1I WRITEBACK ACCESS:          0  HIT:          0  MISS:          0
cpu0_STLB TOTAL     ACCESS:     501791  HIT:     493854  MISS:       7937
cpu0_STLB LOAD      ACCESS:     446013  HIT:     438209  MISS:       7804
cpu0_STLB RFO       ACCESS:      55778  HIT:      55645  MISS:        133
cpu0_STLB PREFETCH  ACCESS:          0  HIT:          0  MISS:          0
cpu0_STLB WRITEBACK ACCESS:          0  HIT:          0  MISS:          0
cpu0_L1D TOTAL     ACCESS:   10139129  HIT:    9050642  MISS:    1088487
cpu0_L1D LOAD      ACCESS:    7142468  HIT:    6160315  MISS:     982153
cpu0_L1D RFO       ACCESS:    2988751  HIT:    2883480  MISS:     105271
cpu0_L1D PREFETCH  ACCESS:          0  HIT:          0  MISS:          0
cpu0_L1D WRITEBACK ACCESS:          0  HIT:          0  MISS:          0
cpu0_L2C TOTAL     ACCESS:    1232555  HIT:     491485  MISS:     741070
cpu0_L2C LOAD      ACCESS:     982148  HIT:     290219  MISS:     691929
cpu0_L2C RFO       ACCESS:     105271  HIT:      56620  MISS:      48651
cpu0_L2C PREFETCH  ACCESS:          0  HIT:          0  MISS:          0
cpu0_L2C WRITEBACK ACCESS:     144073  HIT:     143964  MISS:        109
LLC TOTAL     ACCESS:     817997  HIT:     102419  MISS:     715578
LLC LOAD      ACCESS:     691927  HIT:      44862  MISS:     647065
LLC RFO       ACCESS:      48651  HIT:      30582  MISS:      18069
LLC PREFETCH  ACCESS:          0  HIT:          0  MISS:          0
LLC WRITEBACK ACCESS:      77038  HIT:      26960  MISS:      50078
Heartbeat CPU 0 instructions: 80000002 cycles: 114911903 heartbeat IPC: 0.299729 cumulative IPC: 0.298493 (Simulation time: 0 hr 52 min 35 sec) 

Region of Interest Statistics
cpu0_DTLB TOTAL     ACCESS:    8095937  HIT:    7558071  MISS:     537866
cpu0_DTLB LOAD      ACCESS:    6223971  HIT:    5745741  MISS:     478230
cpu0_DTLB RFO       ACCESS:    1871966  HIT:    1812330  MISS:      59636
cpu0_DTLB PREFETCH  ACCESS:          0  HIT:          0  MISS:          0
cpu0_DTLB WRITEBACK ACCESS:          0  HIT:          0  MISS:          0
cpu0_ITLB TOTAL     ACCESS:    4675651  HIT:    4675651  MISS:          0
cpu0_ITLB LOAD      ACCESS:    4675651  HIT:    4675651  MISS:          0
cpu0_ITLB RFO       ACCESS:          0  HIT:          0  MISS:          0
cpu0_ITLB PREFETCH  ACCESS:          0  HIT:          0  MISS:          0
cpu0_ITLB WRITEBACK ACCESS:          0  HIT:          0  MISS:          0
cpu0_L1I TOTAL     ACCESS:      12687  HIT:      12687  MISS:          0
cpu0_L1I LOAD      ACCESS:      12687  HIT:      12687  MISS:          0
cpu0_L1I RFO       ACCESS:          0  HIT:          0  MISS:          0
cpu0_L1I PREFETCH  ACCESS:          0  HIT:          0  MISS:          0
cpu0_L1I WRITEBACK ACCESS:          0  HIT:          0  MISS:          0
cpu0_STLB TOTAL     ACCESS:     537866  HIT:     529347  MISS:       8519
cpu0_STLB LOAD      ACCESS:     478230  HIT:     469852  MISS:       8378
cpu0_STLB RFO       ACCESS:      59636  HIT:      59495  MISS:        141
cpu0_STLB PREFETCH  ACCESS:          0  HIT:          0  MISS:          0
cpu0_STLB WRITEBACK ACCESS:          0  HIT:          0  MISS:          0
cpu0_L1D TOTAL     ACCESS:   10860819  HIT:    9693883  MISS:    1166936
cpu0_L1D LOAD      ACCESS:    7651786  HIT:    6598903  MISS:    1052883
cpu0_L1D RFO       ACCESS:    3200545  HIT:    3087623  MISS:     112922
cpu0_L1D PREFETCH  ACCESS:          0  HIT:          0  MISS:          0
cpu0_L1D WRITEBACK ACCESS:          0  HIT:          0  MISS:          0
cpu0_L2C TOTAL     ACCESS:    1321225  HIT:     526942  MISS:     794283
cpu0_L2C LOAD      ACCESS:    1052877  HIT:     311320  MISS:     741557
cpu0_L2C RFO       ACCESS:     112922  HIT:      60720  MISS:      52202
cpu0_L2C PREFETCH  ACCESS:          0  HIT:          0  MISS:          0
cpu0_L2C WRITEBACK ACCESS:     154295  HIT:     154178  MISS:        117
LLC TOTAL     ACCESS:     876584  HIT:     109473  MISS:     767111
LLC LOAD      ACCESS:     741555  HIT:      47907  MISS:     693648
LLC RFO       ACCESS:      52202  HIT:      32870  MISS:      19332
LLC PREFETCH  ACCESS:          0  HIT:          0  MISS:          0
LLC WRITEBACK ACCESS:      82420  HIT:      28680  MISS:      53740
Heartbeat CPU 0 instructions: 82000003 cycles: 121583283 heartbeat IPC: 0.299788 cumulative IPC: 0.298574 (Simulation time: 0 hr 54 min 6 sec) 

Region of Interest Statistics
cpu0_DTLB TOTAL     ACCESS:    8633861  HIT:    8060117  MISS:     573744
cpu0_DTLB LOAD      ACCESS:    6637710  HIT:    6127457  MISS:     510253
cpu0_DTLB RFO       ACCESS:    1996151  HIT:    1932660  MISS:      63491
cpu0_DTLB PREFETCH  ACCESS:          0  HIT:          0  MISS:          0
cpu0_DTLB WRITEBACK ACCESS:          0  HIT:          0  MISS:          0
cpu0_ITLB TOTAL     ACCESS:    4986949  HIT:    4986949  MISS:          0
cpu0_ITLB LOAD      ACCESS:    4986949  HIT:    4986949  MISS:          0
cpu0_ITLB RFO       ACCESS:          0  HIT:          0  MISS:          0
cpu0_ITLB PREFETCH  ACCESS:          0  HIT:          0  MISS:          0
cpu0_ITLB WRITEBACK ACCESS:          0  HIT:          0  MISS:          0
cpu0_L1I TOTAL     ACCESS:      13521  HIT:      13521  MISS:          0
cpu0_L1I LOAD      ACCESS:      13521  HIT:      13521  MISS:          0
cpu0_L1I RFO       ACCESS:          0  HIT:          0  MISS:          0
cpu0_L1I PREFETCH  ACCESS:          0  HIT:          0  MISS:          0
cpu0_L1I WRITEBACK ACCESS:          0  HIT:          0  MISS:          0
cpu0_STLB TOTAL     ACCESS:     573744  HIT:     564644  MISS:       9100
cpu0_STLB LOAD      ACCESS:     510253  HIT:     501302  MISS:       8951
cpu0_STLB RFO       ACCESS:      63491  HIT:      63342  MISS:        149
cpu0_STLB PREFETCH  ACCESS:          0  HIT:          0  MISS:          0
cpu0_STLB WRITEBACK ACCESS:          0  HIT:          0  MISS:          0
cpu0_L1D TOTAL     ACCESS:   11582050  HIT:   10336769  MISS:    1245281
cpu0_L1D LOAD      ACCESS:    8160651  HIT:    7037203  MISS:    1123448
cpu0_L1D RFO       ACCESS:    3412331  HIT:    3291702  MISS:     120629
cpu0_L1D PREFETCH  ACCESS:          0  HIT:          0  MISS:          0
cpu0_L1D WRITEBACK ACCESS:          0  HIT:          0  MISS:          0
cpu0_L2C TOTAL     ACCESS:    1409880  HIT:     562341  MISS:     847539
cpu0_L2C LOAD      ACCESS:    1123441  HIT:     332159  MISS:     791282
cpu0_L2C RFO       ACCESS:     120629  HIT:      64926  MISS:      55703
cpu0_L2C PREFETCH  ACCESS:          0  HIT:          0  MISS:          0
cpu0_L2C WRITEBACK ACCESS:     164606  HIT:     164482  MISS:        124
LLC TOTAL     ACCESS:     935201  HIT:     116535  MISS:     818666
LLC LOAD      ACCESS:     791280  HIT:      51044  MISS:     740236
LLC RFO       ACCESS:      55703  HIT:      35065  MISS:      20638
LLC PREFETCH  ACCESS:          0  HIT:          0  MISS:          0
LLC WRITEBACK ACCESS:      87788  HIT:      30410  MISS:      57378
Heartbeat CPU 0 instructions: 84000001 cycles: 128307139 heartbeat IPC: 0.297448 cumulative IPC: 0.298507 (Simulation time: 0 hr 55 min 33 sec) 

Region of Interest Statistics
cpu0_DTLB TOTAL     ACCESS:    9172759  HIT:    8562725  MISS:     610034
cpu0_DTLB LOAD      ACCESS:    7051653  HIT:    6509124  MISS:     542529
cpu0_DTLB RFO       ACCESS:    2121106  HIT:    2053601  MISS:      67505
cpu0_DTLB PREFETCH  ACCESS:          0  HIT:          0  MISS:          0
cpu0_DTLB WRITEBACK ACCESS:          0  HIT:          0  MISS:          0
cpu0_ITLB TOTAL     ACCESS:    5297828  HIT:    5297828  MISS:          0
cpu0_ITLB LOAD      ACCESS:    5297828  HIT:    5297828  MISS:          0
cpu0_ITLB RFO       ACCESS:          0  HIT:          0  MISS:          0
cpu0_ITLB PREFETCH  ACCESS:          0  HIT:          0  MISS:          0
cpu0_ITLB WRITEBACK ACCESS:          0  HIT:          0  MISS:          0
cpu0_L1I TOTAL     ACCESS:      14335  HIT:      14335  MISS:          0
cpu0_L1I LOAD      ACCESS:      14335  HIT:      14335  MISS:          0
cpu0_L1I RFO       ACCESS:          0  HIT:          0  MISS:          0
cpu0_L1I PREFETCH  ACCESS:          0  HIT:          0  MISS:          0
cpu0_L1I WRITEBACK ACCESS:          0  HIT:          0  MISS:          0
cpu0_STLB TOTAL     ACCESS:     610034  HIT:     600361  MISS:       9673
cpu0_STLB LOAD      ACCESS:     542529  HIT:     533010  MISS:       9519
cpu0_STLB RFO       ACCESS:      67505  HIT:      67351  MISS:        154
cpu0_STLB PREFETCH  ACCESS:          0  HIT:          0  MISS:          0
cpu0_STLB WRITEBACK ACCESS:          0  HIT:          0  MISS:          0
cpu0_L1D TOTAL     ACCESS:   12306365  HIT:   10982713  MISS:    1323652
cpu0_L1D LOAD      ACCESS:    8670035  HIT:    7475959  MISS:    1194076
cpu0_L1D RFO       ACCESS:    3626699  HIT:    3498397  MISS:     128302
cpu0_L1D PREFETCH  ACCESS:          0  HIT:          0  MISS:          0
cpu0_L1D WRITEBACK ACCESS:          0  HIT:          0  MISS:          0
cpu0_L2C TOTAL     ACCESS:    1498667  HIT:     597422  MISS:     901245
cpu0_L2C LOAD      ACCESS:    1194069  HIT:     352687  MISS:     841382
cpu0_L2C RFO       ACCESS:     128302  HIT:      69020  MISS:      59282
cpu0_L2C PREFETCH  ACCESS:          0  HIT:          0  MISS:          0
cpu0_L2C WRITEBACK ACCESS:     175022  HIT:     174890  MISS:        132
LLC TOTAL     ACCESS:     994425  HIT:     123930  MISS:     870495
LLC LOAD      ACCESS:     841380  HIT:      54217  MISS:     787163
LLC RFO       ACCESS:      59282  HIT:      37283  MISS:      21999
LLC PREFETCH  ACCESS:          0  HIT:          0  MISS:          0
LLC WRITEBACK ACCESS:      93314  HIT:      32414  MISS:      60900
Heartbeat CPU 0 instructions: 86000002 cycles: 134893715 heartbeat IPC: 0.303648 cumulative IPC: 0.298788 (Simulation time: 0 hr 57 min 1 sec) 

Region of Interest Statistics
cpu0_DTLB TOTAL     ACCESS:    9709646  HIT:    9063697  MISS:     645949
cpu0_DTLB LOAD      ACCESS:    7464434  HIT:    6889931  MISS:     574503
cpu0_DTLB RFO       ACCESS:    2245212  HIT:    2173766  MISS:      71446
cpu0_DTLB PREFETCH  ACCESS:          0  HIT:          0  MISS:          0
cpu0_DTLB WRITEBACK ACCESS:          0  HIT:          0  MISS:          0
cpu0_ITLB TOTAL     ACCESS:    5608055  HIT:    5608055  MISS:          0
cpu0_ITLB LOAD      ACCESS:    5608055  HIT:    5608055  MISS:          0
cpu0_ITLB RFO       ACCESS:          0  HIT:          0  MISS:          0
cpu0_ITLB PREFETCH  ACCESS:          0  HIT:          0  MISS:          0
cpu0_ITLB WRITEBACK ACCESS:          0  HIT:          0  MISS:          0
cpu0_L1I TOTAL     ACCESS:      15162  HIT:      15162  MISS:          0
cpu0_L1I LOAD      ACCESS:      15162  HIT:      15162  MISS:          0
cpu0_L1I RFO       ACCESS:          0  HIT:          0  MISS:          0
cpu0_L1I PREFETCH  ACCESS:          0  HIT:          0  MISS:          0
cpu0_L1I WRITEBACK ACCESS:          0  HIT:          0  MISS:          0
cpu0_STLB TOTAL     ACCESS:     645949  HIT:     635675  MISS:      10274
cpu0_STLB LOAD      ACCESS:     574503  HIT:     564389  MISS:      10114
cpu0_STLB RFO       ACCESS:      71446  HIT:      71286  MISS:        160
cpu0_STLB PREFETCH  ACCESS:          0  HIT:          0  MISS:          0
cpu0_STLB WRITEBACK ACCESS:          0  HIT:          0  MISS:          0
cpu0_L1D TOTAL     ACCESS:   13028581  HIT:   11627974  MISS:    1400607
cpu0_L1D LOAD      ACCESS:    9177581  HIT:    7914158  MISS:    1263423
cpu0_L1D RFO       ACCESS:    3840770  HIT:    3704930  MISS:     135840
cpu0_L1D PREFETCH  ACCESS:          0  HIT:          0  MISS:          0
cpu0_L1D WRITEBACK ACCESS:          0  HIT:          0  MISS:          0
cpu0_L2C TOTAL     ACCESS:    1585772  HIT:     631934  MISS:     953838
cpu0_L2C LOAD      ACCESS:    1263416  HIT:     372842  MISS:     890574
cpu0_L2C RFO       ACCESS:     135840  HIT:      73180  MISS:      62660
cpu0_L2C PREFETCH  ACCESS:          0  HIT:          0  MISS:          0
cpu0_L2C WRITEBACK ACCESS:     185172  HIT:     185033  MISS:        139
LLC TOTAL     ACCESS:    1052383  HIT:     131036  MISS:     921347
LLC LOAD      ACCESS:     890572  HIT:      57239  MISS:     833333
LLC RFO       ACCESS:      62659  HIT:      39389  MISS:      23270
LLC PREFETCH  ACCESS:          0  HIT:          0  MISS:          0
LLC WRITEBACK ACCESS:      98687  HIT:      34392  MISS:      64295
Heartbeat CPU 0 instructions: 88000000 cycles: 141225370 heartbeat IPC: 0.315873 cumulative IPC: 0.299641 (Simulation time: 0 hr 58 min 27 sec) 

Region of Interest Statistics
cpu0_DTLB TOTAL     ACCESS:   10249316  HIT:    9570117  MISS:     679199
cpu0_DTLB LOAD      ACCESS:    7878463  HIT:    7274149  MISS:     604314
cpu0_DTLB RFO       ACCESS:    2370853  HIT:    2295968  MISS:      74885
cpu0_DTLB PREFETCH  ACCESS:          0  HIT:          0  MISS:          0
cpu0_DTLB WRITEBACK ACCESS:          0  HIT:          0  MISS:          0
cpu0_ITLB TOTAL     ACCESS:    5920486  HIT:    5920486  MISS:          0
cpu0_ITLB LOAD      ACCESS:    5920486  HIT:    5920486  MISS:          0
cpu0_ITLB RFO       ACCESS:          0  HIT:          0  MISS:          0
cpu0_ITLB PREFETCH  ACCESS:          0  HIT:          0  MISS:          0
cpu0_ITLB WRITEBACK ACCESS:          0  HIT:          0  MISS:          0
cpu0_L1I TOTAL     ACCESS:      15997  HIT:      15997  MISS:          0
cpu0_L1I LOAD      ACCESS:      15997  HIT:      15997  MISS:          0
cpu0_L1I RFO       ACCESS:          0  HIT:          0  MISS:          0
cpu0_L1I PREFETCH  ACCESS:          0  HIT:          0  MISS:          0
cpu0_L1I WRITEBACK ACCESS:          0  HIT:          0  MISS:          0
cpu0_STLB TOTAL     ACCESS:     679199  HIT:     668366  MISS:      10833
cpu0_STLB LOAD      ACCESS:     604314  HIT:     593650  MISS:      10664
cpu0_STLB RFO       ACCESS:      74885  HIT:      74716  MISS:        169
cpu0_STLB PREFETCH  ACCESS:          0  HIT:          0  MISS:          0
cpu0_STLB WRITEBACK ACCESS:          0  HIT:          0  MISS:          0
cpu0_L1D TOTAL     ACCESS:   13755752  HIT:   12281929  MISS:    1473823
cpu0_L1D LOAD      ACCESS:    9687608  HIT:    8358029  MISS:    1329579
cpu0_L1D RFO       ACCESS:    4057360  HIT:    3914524  MISS:     142836
cpu0_L1D PREFETCH  ACCESS:          0  HIT:          0  MISS:          0
cpu0_L1D WRITEBACK ACCESS:          0  HIT:          0  MISS:          0
cpu0_L2C TOTAL     ACCESS:    1668389  HIT:     665289  MISS:    1003100
cpu0_L2C LOAD      ACCESS:    1329572  HIT:     392814  MISS:     936758
cpu0_L2C RFO       ACCESS:     142834  HIT:      77122  MISS:      65712
cpu0_L2C PREFETCH  ACCESS:          0  HIT:          0  MISS:          0
cpu0_L2C WRITEBACK ACCESS:     194575  HIT:     194428  MISS:        147
LLC TOTAL     ACCESS:    1106469  HIT:     137887  MISS:     968582
LLC LOAD      ACCESS:     936756  HIT:      60513  MISS:     876243
LLC RFO       ACCESS:      65711  HIT:      41359  MISS:      24352
LLC PREFETCH  ACCESS:          0  HIT:          0  MISS:          0
LLC WRITEBACK ACCESS:     103519  HIT:      35999  MISS:      67520
Heartbeat CPU 0 instructions: 90000000 cycles: 149435837 heartbeat IPC: 0.243592 cumulative IPC: 0.296233 (Simulation time: 0 hr 59 min 53 sec) 

Region of Interest Statistics
cpu0_DTLB TOTAL     ACCESS:   10798277  HIT:   10086021  MISS:     712256
cpu0_DTLB LOAD      ACCESS:    8297105  HIT:    7664924  MISS:     632181
cpu0_DTLB RFO       ACCESS:    2501172  HIT:    2421097  MISS:      80075
cpu0_DTLB PREFETCH  ACCESS:          0  HIT:          0  MISS:          0
cpu0_DTLB WRITEBACK ACCESS:          0  HIT:          0  MISS:          0
cpu0_ITLB TOTAL     ACCESS:    6235673  HIT:    6235673  MISS:          0
cpu0_ITLB LOAD      ACCESS:    6235673  HIT:    6235673  MISS:          0
cpu0_ITLB RFO       ACCESS:          0  HIT:          0  MISS:          0
cpu0_ITLB PREFETCH  ACCESS:          0  HIT:          0  MISS:          0
cpu0_ITLB WRITEBACK ACCESS:          0  HIT:          0  MISS:          0
cpu0_L1I TOTAL     ACCESS:      16803  HIT:      16803  MISS:          0
cpu0_L1I LOAD      ACCESS:      16803  HIT:      16803  MISS:          0
cpu0_L1I RFO       ACCESS:          0  HIT:          0  MISS:          0
cpu0_L1I PREFETCH  ACCESS:          0  HIT:          0  MISS:          0
cpu0_L1I WRITEBACK ACCESS:          0  HIT:          0  MISS:          0
cpu0_STLB TOTAL     ACCESS:     712256  HIT:     700968  MISS:      11288
cpu0_STLB LOAD      ACCESS:     632181  HIT:     621069  MISS:      11112
cpu0_STLB RFO       ACCESS:      80075  HIT:      79899  MISS:        176
cpu0_STLB PREFETCH  ACCESS:          0  HIT:          0  MISS:          0
cpu0_STLB WRITEBACK ACCESS:          0  HIT:          0  MISS:          0
cpu0_L1D TOTAL     ACCESS:   14484526  HIT:   12928921  MISS:    1555605
cpu0_L1D LOAD      ACCESS:   10201958  HIT:    8798906  MISS:    1403052
cpu0_L1D RFO       ACCESS:    4271332  HIT:    4120248  MISS:     151084
cpu0_L1D PREFETCH  ACCESS:          0  HIT:          0  MISS:          0
cpu0_L1D WRITEBACK ACCESS:          0  HIT:          0  MISS:          0
cpu0_L2C TOTAL     ACCESS:    1766021  HIT:     708420  MISS:    1057601
cpu0_L2C LOAD      ACCESS:    1403045  HIT:     415958  MISS:     987087
cpu0_L2C RFO       ACCESS:     151082  HIT:      81217  MISS:      69865
cpu0_L2C PREFETCH  ACCESS:          0  HIT:          0  MISS:          0
cpu0_L2C WRITEBACK ACCESS:     210425  HIT:     210272  MISS:        153
LLC TOTAL     ACCESS:    1171338  HIT:     147000  MISS:    1024338
LLC LOAD      ACCESS:     987085  HIT:      63941  MISS:     923144
LLC RFO       ACCESS:      69864  HIT:      43491  MISS:      26373
LLC PREFETCH  ACCESS:          0  HIT:          0  MISS:          0
LLC WRITEBACK ACCESS:     113893  HIT:      39552  MISS:      74341
Heartbeat CPU 0 instructions: 92000002 cycles: 155809457 heartbeat IPC: 0.313794 cumulative IPC: 0.297025 (Simulation time: 1 hr 1 min 15 sec) 

Region of Interest Statistics
cpu0_DTLB TOTAL     ACCESS:   11347199  HIT:   10605959  MISS:     741240
cpu0_DTLB LOAD      ACCESS:    8716308  HIT:    8058768  MISS:     657540
cpu0_DTLB RFO       ACCESS:    2630891  HIT:    2547191  MISS:      83700
cpu0_DTLB PREFETCH  ACCESS:          0  HIT:          0  MISS:          0
cpu0_DTLB WRITEBACK ACCESS:          0  HIT:          0  MISS:          0
cpu0_ITLB TOTAL     ACCESS:    6554009  HIT:    6554009  MISS:          0
cpu0_ITLB LOAD      ACCESS:    6554009  HIT:    6554009  MISS:          0
cpu0_ITLB RFO       ACCESS:          0  HIT:          0  MISS:          0
cpu0_ITLB PREFETCH  ACCESS:          0  HIT:          0  MISS:          0
cpu0_ITLB WRITEBACK ACCESS:          0  HIT:          0  MISS:          0
cpu0_L1I TOTAL     ACCESS:      17541  HIT:      17541  MISS:          0
cpu0_L1I LOAD      ACCESS:      17541  HIT:      17541  MISS:          0
cpu0_L1I RFO       ACCESS:          0  HIT:          0  MISS:          0
cpu0_L1I PREFETCH  ACCESS:          0  HIT:          0  MISS:          0
cpu0_L1I WRITEBACK ACCESS:          0  HIT:          0  MISS:          0
cpu0_STLB TOTAL     ACCESS:     741240  HIT:     729499  MISS:      11741
cpu0_STLB LOAD      ACCESS:     657540  HIT:     645981  MISS:      11559
cpu0_STLB RFO       ACCESS:      83700  HIT:      83518  MISS:        182
cpu0_STLB PREFETCH  ACCESS:          0  HIT:          0  MISS:          0
cpu0_STLB WRITEBACK ACCESS:          0  HIT:          0  MISS:          0
cpu0_L1D TOTAL     ACCESS:   15223109  HIT:   13600076  MISS:    1623033
cpu0_L1D LOAD      ACCESS:   10718729  HIT:    9255809  MISS:    1462920
cpu0_L1D RFO       ACCESS:    4492696  HIT:    4334107  MISS:     158589
cpu0_L1D PREFETCH  ACCESS:          0  HIT:          0  MISS:          0
cpu0_L1D WRITEBACK ACCESS:          0  HIT:          0  MISS:          0
cpu0_L2C TOTAL     ACCESS:    1843666  HIT:     743758  MISS:    1099908
cpu0_L2C LOAD      ACCESS:    1462913  HIT:     436737  MISS:    1026176
cpu0_L2C RFO       ACCESS:     158587  HIT:      85527  MISS:      73060
cpu0_L2C PREFETCH  ACCESS:          0  HIT:          0  MISS:          0
cpu0_L2C WRITEBACK ACCESS:     220642  HIT:     220483  MISS:        159
LLC TOTAL     ACCESS:    1218680  HIT:     153460  MISS:    1065220
LLC LOAD      ACCESS:    1026174  HIT:      66842  MISS:     959332
LLC RFO       ACCESS:      73059  HIT:      45474  MISS:      27585
LLC PREFETCH  ACCESS:          0  HIT:          0  MISS:          0
LLC WRITEBACK ACCESS:     118934  HIT:      41128  MISS:      77806
Heartbeat CPU 0 instructions: 94000003 cycles: 162229802 heartbeat IPC: 0.31151 cumulative IPC: 0.297654 (Simulation time: 1 hr 2 min 34 sec) 

Region of Interest Statistics
cpu0_DTLB TOTAL     ACCESS:   11897186  HIT:   11126425  MISS:     770761
cpu0_DTLB LOAD      ACCESS:    9136482  HIT:    8453258  MISS:     683224
cpu0_DTLB RFO       ACCESS:    2760704  HIT:    2673167  MISS:      87537
cpu0_DTLB PREFETCH  ACCESS:          0  HIT:          0  MISS:          0
cpu0_DTLB WRITEBACK ACCESS:          0  HIT:          0  MISS:          0
cpu0_ITLB TOTAL     ACCESS:    6872073  HIT:    6872073  MISS:          0
cpu0_ITLB LOAD      ACCESS:    6872073  HIT:    6872073  MISS:          0
cpu0_ITLB RFO       ACCESS:          0  HIT:          0  MISS:          0
cpu0_ITLB PREFETCH  ACCESS:          0  HIT:          0  MISS:          0
cpu0_ITLB WRITEBACK ACCESS:          0  HIT:          0  MISS:          0
cpu0_L1I TOTAL     ACCESS:      18154  HIT:      18154  MISS:          0
cpu0_L1I LOAD      ACCESS:      18154  HIT:      18154  MISS:          0
cpu0_L1I RFO       ACCESS:          0  HIT:          0  MISS:          0
cpu0_L1I PREFETCH  ACCESS:          0  HIT:          0  MISS:          0
cpu0_L1I WRITEBACK ACCESS:          0  HIT:          0  MISS:          0
cpu0_STLB TOTAL     ACCESS:     770761  HIT:     758565  MISS:      12196
cpu0_STLB LOAD      ACCESS:     683224  HIT:     671216  MISS:      12008
cpu0_STLB RFO       ACCESS:      87537  HIT:      87349  MISS:        188
cpu0_STLB PREFETCH  ACCESS:          0  HIT:          0  MISS:          0
cpu0_STLB WRITEBACK ACCESS:          0  HIT:          0  MISS:          0
cpu0_L1D TOTAL     ACCESS:   15964473  HIT:   14272706  MISS:    1691767
cpu0_L1D LOAD      ACCESS:   11237995  HIT:    9713812  MISS:    1524183
cpu0_L1D RFO       ACCESS:    4714340  HIT:    4548337  MISS:     166003
cpu0_L1D PREFETCH  ACCESS:          0  HIT:          0  MISS:          0
cpu0_L1D WRITEBACK ACCESS:          0  HIT:          0  MISS:          0
cpu0_L2C TOTAL     ACCESS:    1922904  HIT:     780178  MISS:    1142726
cpu0_L2C LOAD      ACCESS:    1524176  HIT:     458336  MISS:    1065840
cpu0_L2C RFO       ACCESS:     166000  HIT:      89808  MISS:      76192
cpu0_L2C PREFETCH  ACCESS:          0  HIT:          0  MISS:          0
cpu0_L2C WRITEBACK ACCESS:     231147  HIT:     230982  MISS:        165
LLC TOTAL     ACCESS:    1266646  HIT:     160148  MISS:    1106498
LLC LOAD      ACCESS:    1065838  HIT:      69690  MISS:     996148
LLC RFO       ACCESS:      76191  HIT:      47475  MISS:      28716
LLC PREFETCH  ACCESS:          0  HIT:          0  MISS:          0
LLC WRITEBACK ACCESS:     124088  HIT:      42967  MISS:      81121
Heartbeat CPU 0 instructions: 96000001 cycles: 168577446 heartbeat IPC: 0.315077 cumulative IPC: 0.298371 (Simulation time: 1 hr 3 min 55 sec) 

Region of Interest Statistics
cpu0_DTLB TOTAL     ACCESS:   12445994  HIT:   11646286  MISS:     799708
cpu0_DTLB LOAD      ACCESS:    9555359  HIT:    8846839  MISS:     708520
cpu0_DTLB RFO       ACCESS:    2890635  HIT:    2799447  MISS:      91188
cpu0_DTLB PREFETCH  ACCESS:          0  HIT:          0  MISS:          0
cpu0_DTLB WRITEBACK ACCESS:          0  HIT:          0  MISS:          0
cpu0_ITLB TOTAL     ACCESS:    7191378  HIT:    7191378  MISS:          0
cpu0_ITLB LOAD      ACCESS:    7191378  HIT:    7191378  MISS:          0
cpu0_ITLB RFO       ACCESS:          0  HIT:          0  MISS:          0
cpu0_ITLB PREFETCH  ACCESS:          0  HIT:          0  MISS:          0
cpu0_ITLB WRITEBACK ACCESS:          0  HIT:          0  MISS:          0
cpu0_L1I TOTAL     ACCESS:      18840  HIT:      18840  MISS:          0
cpu0_L1I LOAD      ACCESS:      18840  HIT:      18840  MISS:          0
cpu0_L1I RFO       ACCESS:          0  HIT:          0  MISS:          0
cpu0_L1I PREFETCH  ACCESS:          0  HIT:          0  MISS:          0
cpu0_L1I WRITEBACK ACCESS:          0  HIT:          0  MISS:          0
cpu0_STLB TOTAL     ACCESS:     799708  HIT:     787179  MISS:      12529
cpu0_STLB LOAD      ACCESS:     708520  HIT:     696183  MISS:      12337
cpu0_STLB RFO       ACCESS:      91188  HIT:      90996  MISS:        192
cpu0_STLB PREFETCH  ACCESS:          0  HIT:          0  MISS:          0
cpu0_STLB WRITEBACK ACCESS:          0  HIT:          0  MISS:          0
cpu0_L1D TOTAL     ACCESS:   16700858  HIT:   14941402  MISS:    1759456
cpu0_L1D LOAD      ACCESS:   11754242  HIT:   10170000  MISS:    1584242
cpu0_L1D RFO       ACCESS:    4934145  HIT:    4760558  MISS:     173587
cpu0_L1D PREFETCH  ACCESS:          0  HIT:          0  MISS:          0
cpu0_L1D WRITEBACK ACCESS:          0  HIT:          0  MISS:          0
cpu0_L2C TOTAL     ACCESS:    2000895  HIT:     816066  MISS:    1184829
cpu0_L2C LOAD      ACCESS:    1584235  HIT:     479478  MISS:    1104757
cpu0_L2C RFO       ACCESS:     173584  HIT:      94225  MISS:      79359
cpu0_L2C PREFETCH  ACCESS:          0  HIT:          0  MISS:          0
cpu0_L2C WRITEBACK ACCESS:     241449  HIT:     241278  MISS:        171
LLC TOTAL     ACCESS:    1313638  HIT:     166604  MISS:    1147034
LLC LOAD      ACCESS:    1104755  HIT:      72416  MISS:    1032339
LLC RFO       ACCESS:      79358  HIT:      49546  MISS:      29812
LLC PREFETCH  ACCESS:          0  HIT:          0  MISS:          0
LLC WRITEBACK ACCESS:     128983  HIT:      44626  MISS:      84357
Heartbeat CPU 0 instructions: 98000004 cycles: 174919111 heartbeat IPC: 0.315375 cumulative IPC: 0.299043 (Simulation time: 1 hr 5 min 16 sec) 

Region of Interest Statistics
cpu0_DTLB TOTAL     ACCESS:   12994197  HIT:   12165449  MISS:     828748
cpu0_DTLB LOAD      ACCESS:    9973370  HIT:    9239483  MISS:     733887
cpu0_DTLB RFO       ACCESS:    3020827  HIT:    2925966  MISS:      94861
cpu0_DTLB PREFETCH  ACCESS:          0  HIT:          0  MISS:          0
cpu0_DTLB WRITEBACK ACCESS:          0  HIT:          0  MISS:          0
cpu0_ITLB TOTAL     ACCESS:    7511673  HIT:    7511673  MISS:          0
cpu0_ITLB LOAD      ACCESS:    7511673  HIT:    7511673  MISS:          0
cpu0_ITLB RFO       ACCESS:          0  HIT:          0  MISS:          0
cpu0_ITLB PREFETCH  ACCESS:          0  HIT:          0  MISS:          0
cpu0_ITLB WRITEBACK ACCESS:          0  HIT:          0  MISS:          0
cpu0_L1I TOTAL     ACCESS:      19632  HIT:      19632  MISS:          0
cpu0_L1I LOAD      ACCESS:      19632  HIT:      19632  MISS:          0
cpu0_L1I RFO       ACCESS:          0  HIT:          0  MISS:          0
cpu0_L1I PREFETCH  ACCESS:          0  HIT:          0  MISS:          0
cpu0_L1I WRITEBACK ACCESS:          0  HIT:          0  MISS:          0
cpu0_STLB TOTAL     ACCESS:     828748  HIT:     815825  MISS:      12923
cpu0_STLB LOAD      ACCESS:     733887  HIT:     721162  MISS:      12725
cpu0_STLB RFO       ACCESS:      94861  HIT:      94663  MISS:        198
cpu0_STLB PREFETCH  ACCESS:          0  HIT:          0  MISS:          0
cpu0_STLB WRITEBACK ACCESS:          0  HIT:          0  MISS:          0
cpu0_L1D TOTAL     ACCESS:   17439826  HIT:   15612370  MISS:    1827456
cpu0_L1D LOAD      ACCESS:   12271517  HIT:   10626876  MISS:    1644641
cpu0_L1D RFO       ACCESS:    5155444  HIT:    4974304  MISS:     181140
cpu0_L1D PREFETCH  ACCESS:          0  HIT:          0  MISS:          0
cpu0_L1D WRITEBACK ACCESS:          0  HIT:          0  MISS:          0
cpu0_L2C TOTAL     ACCESS:    2079194  HIT:     852180  MISS:    1227014
cpu0_L2C LOAD      ACCESS:    1644634  HIT:     500742  MISS:    1143892
cpu0_L2C RFO       ACCESS:     181136  HIT:      98750  MISS:      82386
cpu0_L2C PREFETCH  ACCESS:          0  HIT:          0  MISS:          0
cpu0_L2C WRITEBACK ACCESS:     251749  HIT:     251572  MISS:        177
LLC TOTAL     ACCESS:    1360631  HIT:     173002  MISS:    1187629
LLC LOAD      ACCESS:    1143890  HIT:      75205  MISS:    1068685
LLC RFO       ACCESS:      82385  HIT:      51510  MISS:      30875
LLC PREFETCH  ACCESS:          0  HIT:          0  MISS:          0
LLC WRITEBACK ACCESS:     133797  HIT:      46271  MISS:      87526
Heartbeat CPU 0 instructions: 100000000 cycles: 181284393 heartbeat IPC: 0.314204 cumulative IPC: 0.299621 (Simulation time: 1 hr 6 min 35 sec) 

Region of Interest Statistics
cpu0_DTLB TOTAL     ACCESS:   13543806  HIT:   12686271  MISS:     857535
cpu0_DTLB LOAD      ACCESS:   10392778  HIT:    9633644  MISS:     759134
cpu0_DTLB RFO       ACCESS:    3151028  HIT:    3052627  MISS:      98401
cpu0_DTLB PREFETCH  ACCESS:          0  HIT:          0  MISS:          0
cpu0_DTLB WRITEBACK ACCESS:          0  HIT:          0  MISS:          0
cpu0_ITLB TOTAL     ACCESS:    7831091  HIT:    7831091  MISS:          0
cpu0_ITLB LOAD      ACCESS:    7831091  HIT:    7831091  MISS:          0
cpu0_ITLB RFO       ACCESS:          0  HIT:          0  MISS:          0
cpu0_ITLB PREFETCH  ACCESS:          0  HIT:          0  MISS:          0
cpu0_ITLB WRITEBACK ACCESS:          0  HIT:          0  MISS:          0
cpu0_L1I TOTAL     ACCESS:      20346  HIT:      20346  MISS:          0
cpu0_L1I LOAD      ACCESS:      20346  HIT:      20346  MISS:          0
cpu0_L1I RFO       ACCESS:          0  HIT:          0  MISS:          0
cpu0_L1I PREFETCH  ACCESS:          0  HIT:          0  MISS:          0
cpu0_L1I WRITEBACK ACCESS:          0  HIT:          0  MISS:          0
cpu0_STLB TOTAL     ACCESS:     857535  HIT:     844248  MISS:      13287
cpu0_STLB LOAD      ACCESS:     759134  HIT:     746054  MISS:      13080
cpu0_STLB RFO       ACCESS:      98401  HIT:      98194  MISS:        207
cpu0_STLB PREFETCH  ACCESS:          0  HIT:          0  MISS:          0
cpu0_STLB WRITEBACK ACCESS:          0  HIT:          0  MISS:          0
cpu0_L1D TOTAL     ACCESS:   18179938  HIT:   16284869  MISS:    1895069
cpu0_L1D LOAD      ACCESS:   12789896  HIT:   11085245  MISS:    1704651
cpu0_L1D RFO       ACCESS:    5376813  HIT:    5188124  MISS:     188689
cpu0_L1D PREFETCH  ACCESS:          0  HIT:          0  MISS:          0
cpu0_L1D WRITEBACK ACCESS:          0  HIT:          0  MISS:          0
cpu0_L2C TOTAL     ACCESS:    2156929  HIT:     887834  MISS:    1269095
cpu0_L2C LOAD      ACCESS:    1704644  HIT:     521738  MISS:    1182906
cpu0_L2C RFO       ACCESS:     188685  HIT:     103255  MISS:      85430
cpu0_L2C PREFETCH  ACCESS:          0  HIT:          0  MISS:          0
cpu0_L2C WRITEBACK ACCESS:     261871  HIT:     261688  MISS:        183
LLC TOTAL     ACCESS:    1407433  HIT:     179670  MISS:    1227763
LLC LOAD      ACCESS:    1182904  HIT:      78175  MISS:    1104729
LLC RFO       ACCESS:      85429  HIT:      53505  MISS:      31924
LLC PREFETCH  ACCESS:          0  HIT:          0  MISS:          0
LLC WRITEBACK ACCESS:     138524  HIT:      47974  MISS:      90550
Heartbeat CPU 0 instructions: 102000000 cycles: 187711224 heartbeat IPC: 0.311195 cumulative IPC: 0.30005 (Simulation time: 1 hr 7 min 55 sec) 

Region of Interest Statistics
cpu0_DTLB TOTAL     ACCESS:   14094433  HIT:   13207558  MISS:     886875
cpu0_DTLB LOAD      ACCESS:   10813449  HIT:   10028805  MISS:     784644
cpu0_DTLB RFO       ACCESS:    3280984  HIT:    3178753  MISS:     102231
cpu0_DTLB PREFETCH  ACCESS:          0  HIT:          0  MISS:          0
cpu0_DTLB WRITEBACK ACCESS:          0  HIT:          0  MISS:          0
cpu0_ITLB TOTAL     ACCESS:    8149042  HIT:    8149042  MISS:          0
cpu0_ITLB LOAD      ACCESS:    8149042  HIT:    8149042  MISS:          0
cpu0_ITLB RFO       ACCESS:          0  HIT:          0  MISS:          0
cpu0_ITLB PREFETCH  ACCESS:          0  HIT:          0  MISS:          0
cpu0_ITLB WRITEBACK ACCESS:          0  HIT:          0  MISS:          0
cpu0_L1I TOTAL     ACCESS:      21042  HIT:      21042  MISS:          0
cpu0_L1I LOAD      ACCESS:      21042  HIT:      21042  MISS:          0
cpu0_L1I RFO       ACCESS:          0  HIT:          0  MISS:          0
cpu0_L1I PREFETCH  ACCESS:          0  HIT:          0  MISS:          0
cpu0_L1I WRITEBACK ACCESS:          0  HIT:          0  MISS:          0
cpu0_STLB TOTAL     ACCESS:     886875  HIT:     873199  MISS:      13676
cpu0_STLB LOAD      ACCESS:     784644  HIT:     771184  MISS:      13460
cpu0_STLB RFO       ACCESS:     102231  HIT:     102015  MISS:        216
cpu0_STLB PREFETCH  ACCESS:          0  HIT:          0  MISS:          0
cpu0_STLB WRITEBACK ACCESS:          0  HIT:          0  MISS:          0
cpu0_L1D TOTAL     ACCESS:   18920396  HIT:   16956388  MISS:    1964008
cpu0_L1D LOAD      ACCESS:   13309459  HIT:   11543546  MISS:    1765913
cpu0_L1D RFO       ACCESS:    5597319  HIT:    5401000  MISS:     196319
cpu0_L1D PREFETCH  ACCESS:          0  HIT:          0  MISS:          0
cpu0_L1D WRITEBACK ACCESS:          0  HIT:          0  MISS:          0
cpu0_L2C TOTAL     ACCESS:    2236439  HIT:     924427  MISS:    1312012
cpu0_L2C LOAD      ACCESS:    1765905  HIT:     543366  MISS:    1222539
cpu0_L2C RFO       ACCESS:     196315  HIT:     107623  MISS:      88692
cpu0_L2C PREFETCH  ACCESS:          0  HIT:          0  MISS:          0
cpu0_L2C WRITEBACK ACCESS:     272443  HIT:     272255  MISS:        188
LLC TOTAL     ACCESS:    1455492  HIT:     186461  MISS:    1269031
LLC LOAD      ACCESS:    1222537  HIT:      81072  MISS:    1141465
LLC RFO       ACCESS:      88691  HIT:      55642  MISS:      33049
LLC PREFETCH  ACCESS:          0  HIT:          0  MISS:          0
LLC WRITEBACK ACCESS:     143671  HIT:      49730  MISS:      93941
Heartbeat CPU 0 instructions: 104000002 cycles: 194107094 heartbeat IPC: 0.312702 cumulative IPC: 0.300501 (Simulation time: 1 hr 9 min 14 sec) 

Region of Interest Statistics
cpu0_DTLB TOTAL     ACCESS:   14643440  HIT:   13727694  MISS:     915746
cpu0_DTLB LOAD      ACCESS:   11232099  HIT:   10422169  MISS:     809930
cpu0_DTLB RFO       ACCESS:    3411341  HIT:    3305525  MISS:     105816
cpu0_DTLB PREFETCH  ACCESS:          0  HIT:          0  MISS:          0
cpu0_DTLB WRITEBACK ACCESS:          0  HIT:          0  MISS:          0
cpu0_ITLB TOTAL     ACCESS:    8468048  HIT:    8468048  MISS:          0
cpu0_ITLB LOAD      ACCESS:    8468048  HIT:    8468048  MISS:          0
cpu0_ITLB RFO       ACCESS:          0  HIT:          0  MISS:          0
cpu0_ITLB PREFETCH  ACCESS:          0  HIT:          0  MISS:          0
cpu0_ITLB WRITEBACK ACCESS:          0  HIT:          0  MISS:          0
cpu0_L1I TOTAL     ACCESS:      21664  HIT:      21664  MISS:          0
cpu0_L1I LOAD      ACCESS:      21664  HIT:      21664  MISS:          0
cpu0_L1I RFO       ACCESS:          0  HIT:          0  MISS:          0
cpu0_L1I PREFETCH  ACCESS:          0  HIT:          0  MISS:          0
cpu0_L1I WRITEBACK ACCESS:          0  HIT:          0  MISS:          0
cpu0_STLB TOTAL     ACCESS:     915746  HIT:     901645  MISS:      14101
cpu0_STLB LOAD      ACCESS:     809930  HIT:     796055  MISS:      13875
cpu0_STLB RFO       ACCESS:     105816  HIT:     105590  MISS:        226
cpu0_STLB PREFETCH  ACCESS:          0  HIT:          0  MISS:          0
cpu0_STLB WRITEBACK ACCESS:          0  HIT:          0  MISS:          0
cpu0_L1D TOTAL     ACCESS:   19658833  HIT:   17626273  MISS:    2032560
cpu0_L1D LOAD      ACCESS:   13826688  HIT:   11999798  MISS:    1826890
cpu0_L1D RFO       ACCESS:    5818102  HIT:    5614258  MISS:     203844
cpu0_L1D PREFETCH  ACCESS:          0  HIT:          0  MISS:          0
cpu0_L1D WRITEBACK ACCESS:          0  HIT:          0  MISS:          0
cpu0_L2C TOTAL     ACCESS:    2315398  HIT:     961350  MISS:    1354048
cpu0_L2C LOAD      ACCESS:    1826882  HIT:     565323  MISS:    1261559
cpu0_L2C RFO       ACCESS:     203839  HIT:     112153  MISS:      91686
cpu0_L2C PREFETCH  ACCESS:          0  HIT:          0  MISS:          0
cpu0_L2C WRITEBACK ACCESS:     282851  HIT:     282657  MISS:        194
LLC TOTAL     ACCESS:    1502388  HIT:     192800  MISS:    1309588
LLC LOAD      ACCESS:    1261557  HIT:      83767  MISS:    1177790
LLC RFO       ACCESS:      91685  HIT:      57636  MISS:      34049
LLC PREFETCH  ACCESS:          0  HIT:          0  MISS:          0
LLC WRITEBACK ACCESS:     148537  HIT:      51380  MISS:      97157
Heartbeat CPU 0 instructions: 106000001 cycles: 200361415 heartbeat IPC: 0.319779 cumulative IPC: 0.301149 (Simulation time: 1 hr 10 min 33 sec) 

Region of Interest Statistics
cpu0_DTLB TOTAL     ACCESS:   15191133  HIT:   14246701  MISS:     944432
cpu0_DTLB LOAD      ACCESS:   11650711  HIT:   10815613  MISS:     835098
cpu0_DTLB RFO       ACCESS:    3540422  HIT:    3431088  MISS:     109334
cpu0_DTLB PREFETCH  ACCESS:          0  HIT:          0  MISS:          0
cpu0_DTLB WRITEBACK ACCESS:          0  HIT:          0  MISS:          0
cpu0_ITLB TOTAL     ACCESS:    8787653  HIT:    8787653  MISS:          0
cpu0_ITLB LOAD      ACCESS:    8787653  HIT:    8787653  MISS:          0
cpu0_ITLB RFO       ACCESS:          0  HIT:          0  MISS:          0
cpu0_ITLB PREFETCH  ACCESS:          0  HIT:          0  MISS:          0
cpu0_ITLB WRITEBACK ACCESS:          0  HIT:          0  MISS:          0
cpu0_L1I TOTAL     ACCESS:      22412  HIT:      22412  MISS:          0
cpu0_L1I LOAD      ACCESS:      22412  HIT:      22412  MISS:          0
cpu0_L1I RFO       ACCESS:          0  HIT:          0  MISS:          0
cpu0_L1I PREFETCH  ACCESS:          0  HIT:          0  MISS:          0
cpu0_L1I WRITEBACK ACCESS:          0  HIT:          0  MISS:          0
cpu0_STLB TOTAL     ACCESS:     944432  HIT:     929937  MISS:      14495
cpu0_STLB LOAD      ACCESS:     835098  HIT:     820835  MISS:      14263
cpu0_STLB RFO       ACCESS:     109334  HIT:     109102  MISS:        232
cpu0_STLB PREFETCH  ACCESS:          0  HIT:          0  MISS:          0
cpu0_STLB WRITEBACK ACCESS:          0  HIT:          0  MISS:          0
cpu0_L1D TOTAL     ACCESS:   20394290  HIT:   18293809  MISS:    2100481
cpu0_L1D LOAD      ACCESS:   14342789  HIT:   12455498  MISS:    1887291
cpu0_L1D RFO       ACCESS:    6037064  HIT:    5825749  MISS:     211315
cpu0_L1D PREFETCH  ACCESS:          0  HIT:          0  MISS:          0
cpu0_L1D WRITEBACK ACCESS:          0  HIT:          0  MISS:          0
cpu0_L2C TOTAL     ACCESS:    2393464  HIT:     997761  MISS:    1395703
cpu0_L2C LOAD      ACCESS:    1887282  HIT:     587190  MISS:    1300092
cpu0_L2C RFO       ACCESS:     211309  HIT:     116522  MISS:      94787
cpu0_L2C PREFETCH  ACCESS:          0  HIT:          0  MISS:          0
[...]
cpu0_DTLB TOTAL     ACCESS:  402156771  HIT:  373592493  MISS:   28564278
cpu0_DTLB LOAD      ACCESS:  309265314  HIT:  283961818  MISS:   25303496
cpu0_DTLB RFO       ACCESS:   92891457  HIT:   89630675  MISS:    3260782
cpu0_DTLB PREFETCH  ACCESS:          0  HIT:          0  MISS:          0
cpu0_DTLB WRITEBACK ACCESS:          0  HIT:          0  MISS:          0
cpu0_ITLB TOTAL     ACCESS:  232384468  HIT:  232384468  MISS:          0
cpu0_ITLB LOAD      ACCESS:  232384468  HIT:  232384468  MISS:          0
cpu0_ITLB RFO       ACCESS:          0  HIT:          0  MISS:          0
cpu0_ITLB PREFETCH  ACCESS:          0  HIT:          0  MISS:          0
cpu0_ITLB WRITEBACK ACCESS:          0  HIT:          0  MISS:          0
cpu0_L1I TOTAL     ACCESS:     793950  HIT:     793948  MISS:          2
cpu0_L1I LOAD      ACCESS:     793950  HIT:     793948  MISS:          2
cpu0_L1I RFO       ACCESS:          0  HIT:          0  MISS:          0
cpu0_L1I PREFETCH  ACCESS:          0  HIT:          0  MISS:          0
cpu0_L1I WRITEBACK ACCESS:          0  HIT:          0  MISS:          0
cpu0_STLB TOTAL     ACCESS:   28564278  HIT:   28140945  MISS:     423333
cpu0_STLB LOAD      ACCESS:   25303496  HIT:   24886772  MISS:     416724
cpu0_STLB RFO       ACCESS:    3260782  HIT:    3254173  MISS:       6609
cpu0_STLB PREFETCH  ACCESS:          0  HIT:          0  MISS:          0
cpu0_STLB WRITEBACK ACCESS:          0  HIT:          0  MISS:          0
cpu0_L1D TOTAL     ACCESS:  539599523  HIT:  477753254  MISS:   61846269
cpu0_L1D LOAD      ACCESS:  380032865  HIT:  323792797  MISS:   56240068
cpu0_L1D RFO       ACCESS:  159145334  HIT:  153591811  MISS:    5553523
cpu0_L1D PREFETCH  ACCESS:          0  HIT:          0  MISS:          0
cpu0_L1D WRITEBACK ACCESS:          0  HIT:          0  MISS:          0
cpu0_L2C TOTAL     ACCESS:   69961119  HIT:   27451010  MISS:   42510109
cpu0_L2C LOAD      ACCESS:   56239811  HIT:   16243993  MISS:   39995818
cpu0_L2C RFO       ACCESS:    5553471  HIT:    3060950  MISS:    2492521
cpu0_L2C PREFETCH  ACCESS:          0  HIT:          0  MISS:          0
cpu0_L2C WRITEBACK ACCESS:    8115159  HIT:    8108595  MISS:       6564
LLC TOTAL     ACCESS:   46995094  HIT:    5452169  MISS:   41542925
LLC LOAD      ACCESS:   39995757  HIT:    2399174  MISS:   37596583
LLC RFO       ACCESS:    2492468  HIT:    1487522  MISS:    1004946
LLC PREFETCH  ACCESS:          0  HIT:          0  MISS:          0
LLC WRITEBACK ACCESS:    4491663  HIT:    1565160  MISS:    2926503
Heartbeat CPU 0 instructions: 1550000000 cycles: 5304451327 heartbeat IPC: 0.258617 cumulative IPC: 0.283552 (Simulation time: 15 hr 31 min 25 sec) 

Region of Interest Statistics
cpu0_DTLB TOTAL     ACCESS:  402676604  HIT:  374062125  MISS:   28614479
cpu0_DTLB LOAD      ACCESS:  309669243  HIT:  284320270  MISS:   25348973
cpu0_DTLB RFO       ACCESS:   93007361  HIT:   89741855  MISS:    3265506
cpu0_DTLB PREFETCH  ACCESS:          0  HIT:          0  MISS:          0
cpu0_DTLB WRITEBACK ACCESS:          0  HIT:          0  MISS:          0
cpu0_ITLB TOTAL     ACCESS:  232684605  HIT:  232684605  MISS:          0
cpu0_ITLB LOAD      ACCESS:  232684605  HIT:  232684605  MISS:          0
cpu0_ITLB RFO       ACCESS:          0  HIT:          0  MISS:          0
cpu0_ITLB PREFETCH  ACCESS:          0  HIT:          0  MISS:          0
cpu0_ITLB WRITEBACK ACCESS:          0  HIT:          0  MISS:          0
cpu0_L1I TOTAL     ACCESS:     795446  HIT:     795444  MISS:          2
cpu0_L1I LOAD      ACCESS:     795446  HIT:     795444  MISS:          2
cpu0_L1I RFO       ACCESS:          0  HIT:          0  MISS:          0
cpu0_L1I PREFETCH  ACCESS:          0  HIT:          0  MISS:          0
cpu0_L1I WRITEBACK ACCESS:          0  HIT:          0  MISS:          0
cpu0_STLB TOTAL     ACCESS:   28614479  HIT:   28190371  MISS:     424108
cpu0_STLB LOAD      ACCESS:   25348973  HIT:   24931486  MISS:     417487
cpu0_STLB RFO       ACCESS:    3265506  HIT:    3258885  MISS:       6621
cpu0_STLB PREFETCH  ACCESS:          0  HIT:          0  MISS:          0
cpu0_STLB WRITEBACK ACCESS:          0  HIT:          0  MISS:          0
cpu0_L1D TOTAL     ACCESS:  540291459  HIT:  478345845  MISS:   61945614
cpu0_L1D LOAD      ACCESS:  380524190  HIT:  324193005  MISS:   56331185
cpu0_L1D RFO       ACCESS:  159345173  HIT:  153783500  MISS:    5561673
cpu0_L1D PREFETCH  ACCESS:          0  HIT:          0  MISS:          0
cpu0_L1D WRITEBACK ACCESS:          0  HIT:          0  MISS:          0
cpu0_L2C TOTAL     ACCESS:   70071068  HIT:   27486769  MISS:   42584299
cpu0_L2C LOAD      ACCESS:   56330928  HIT:   16264527  MISS:   40066401
cpu0_L2C RFO       ACCESS:    5561621  HIT:    3065526  MISS:    2496095
cpu0_L2C PREFETCH  ACCESS:          0  HIT:          0  MISS:          0
cpu0_L2C WRITEBACK ACCESS:    8125763  HIT:    8119190  MISS:       6573
LLC TOTAL     ACCESS:   47075448  HIT:    5460021  MISS:   41615427
LLC LOAD      ACCESS:   40066339  HIT:    2402841  MISS:   37663498
LLC RFO       ACCESS:    2496042  HIT:    1489697  MISS:    1006345
LLC PREFETCH  ACCESS:          0  HIT:          0  MISS:          0
LLC WRITEBACK ACCESS:    4497837  HIT:    1567170  MISS:    2930667
Finished CPU 0 instructions: 1500000000 cycles: 5290044248 cumulative IPC: 0.283551 (Simulation time: 15 hr 31 min 25 sec) 

ChampSim completed all CPUs

Region of Interest Statistics

CPU 0 cumulative IPC: 0.283551 instructions: 1500000000 cycles: 5290044248
cpu0_DTLB TOTAL     ACCESS:  402676605  HIT:  374062126  MISS:   28614479
cpu0_DTLB LOAD      ACCESS:  309669243  HIT:  284320270  MISS:   25348973
cpu0_DTLB RFO       ACCESS:   93007362  HIT:   89741856  MISS:    3265506
cpu0_DTLB PREFETCH  ACCESS:          0  HIT:          0  MISS:          0
cpu0_DTLB WRITEBACK ACCESS:          0  HIT:          0  MISS:          0
cpu0_DTLB TRANSLATION ACCESS:          0  HIT:          0  MISS:          0
cpu0_DTLB PREFETCH  REQUESTED:          0  ISSUED:          0  USEFUL:          0  USELESS:          0
cpu0_DTLB AVERAGE MISS LATENCY: 10.8398 cycles
cpu0_ITLB TOTAL     ACCESS:  232684605  HIT:  232684605  MISS:          0
cpu0_ITLB LOAD      ACCESS:  232684605  HIT:  232684605  MISS:          0
cpu0_ITLB RFO       ACCESS:          0  HIT:          0  MISS:          0
cpu0_ITLB PREFETCH  ACCESS:          0  HIT:          0  MISS:          0
cpu0_ITLB WRITEBACK ACCESS:          0  HIT:          0  MISS:          0
cpu0_ITLB TRANSLATION ACCESS:          0  HIT:          0  MISS:          0
cpu0_ITLB PREFETCH  REQUESTED:          0  ISSUED:          0  USEFUL:          0  USELESS:          0
cpu0_ITLB AVERAGE MISS LATENCY: -nan cycles
cpu0_L1I TOTAL     ACCESS:     795446  HIT:     795444  MISS:          2
cpu0_L1I LOAD      ACCESS:     795446  HIT:     795444  MISS:          2
cpu0_L1I RFO       ACCESS:          0  HIT:          0  MISS:          0
cpu0_L1I PREFETCH  ACCESS:          0  HIT:          0  MISS:          0
cpu0_L1I WRITEBACK ACCESS:          0  HIT:          0  MISS:          0
cpu0_L1I TRANSLATION ACCESS:          0  HIT:          0  MISS:          0
cpu0_L1I PREFETCH  REQUESTED:          0  ISSUED:          0  USEFUL:          0  USELESS:          0
cpu0_L1I AVERAGE MISS LATENCY: 194 cycles
cpu0_STLB TOTAL     ACCESS:   28614479  HIT:   28190371  MISS:     424108
cpu0_STLB LOAD      ACCESS:   25348973  HIT:   24931486  MISS:     417487
cpu0_STLB RFO       ACCESS:    3265506  HIT:    3258885  MISS:       6621
cpu0_STLB PREFETCH  ACCESS:          0  HIT:          0  MISS:          0
cpu0_STLB WRITEBACK ACCESS:          0  HIT:          0  MISS:          0
cpu0_STLB TRANSLATION ACCESS:          0  HIT:          0  MISS:          0
cpu0_STLB PREFETCH  REQUESTED:          0  ISSUED:          0  USEFUL:          0  USELESS:          0
cpu0_STLB AVERAGE MISS LATENCY: 123.825 cycles
cpu0_L1D TOTAL     ACCESS:  540291459  HIT:  478345845  MISS:   61945614
cpu0_L1D LOAD      ACCESS:  380524190  HIT:  324193005  MISS:   56331185
cpu0_L1D RFO       ACCESS:  159345173  HIT:  153783500  MISS:    5561673
cpu0_L1D PREFETCH  ACCESS:          0  HIT:          0  MISS:          0
cpu0_L1D WRITEBACK ACCESS:          0  HIT:          0  MISS:          0
cpu0_L1D TRANSLATION ACCESS:     422096  HIT:     369340  MISS:      52756
cpu0_L1D PREFETCH  REQUESTED:          0  ISSUED:          0  USEFUL:          0  USELESS:          0
cpu0_L1D AVERAGE MISS LATENCY: 199.745 cycles
cpu0_L2C TOTAL     ACCESS:   70071068  HIT:   27486769  MISS:   42584299
cpu0_L2C LOAD      ACCESS:   56330928  HIT:   16264527  MISS:   40066401
cpu0_L2C RFO       ACCESS:    5561621  HIT:    3065526  MISS:    2496095
cpu0_L2C PREFETCH  ACCESS:          0  HIT:          0  MISS:          0
cpu0_L2C WRITEBACK ACCESS:    8125763  HIT:    8119190  MISS:       6573
cpu0_L2C TRANSLATION ACCESS:      52756  HIT:      37526  MISS:      15230
cpu0_L2C PREFETCH  REQUESTED:          0  ISSUED:          0  USEFUL:          0  USELESS:          0
cpu0_L2C AVERAGE MISS LATENCY: 274.472 cycles
LLC TOTAL     ACCESS:   47075448  HIT:    5460021  MISS:   41615427
LLC LOAD      ACCESS:   40066339  HIT:    2402841  MISS:   37663498
LLC RFO       ACCESS:    2496042  HIT:    1489697  MISS:    1006345
LLC PREFETCH  ACCESS:          0  HIT:          0  MISS:          0
LLC WRITEBACK ACCESS:    4497837  HIT:    1567170  MISS:    2930667
LLC TRANSLATION ACCESS:      15230  HIT:        313  MISS:      14917
LLC PREFETCH  REQUESTED:          0  ISSUED:          0  USEFUL:          0  USELESS:          0
LLC AVERAGE MISS LATENCY: 259.376 cycles
~~~~~~~~~~Reuse Distance Profiler output~~~~~~~~~~
0	0	0
1	0	0
2	0	0
3	0	0
4	0	0
5	0	0
6	0	0
7	0	0
8	0	0
9	0	0
10	0	0
11	0	0
12	0	0
13	0	0
14	0	0
15	0	0
16	0	0
17	0	0
18	0	0
19	0	0
20	0	0
21	0	0
22	0	0
23	0	0
24	0	0
25	0	0
26	0	0
27	0	0
28	0	0
29	0	0
30	0	0
31	0	0
32	0	0
33	0	0
34	0	0
35	0	0
36	0	0
37	0	0
38	0	0
39	0	0
40	0	0
41	0	0
42	0	0
43	0	0
44	0	0
45	0	0
46	0	0
47	0	0
48	0	0
49	0	0
50	0	0
51	0	0
52	0	0
53	0	0
54	0	0
55	0	0
56	0	0
57	0	0
58	0	0
59	0	0
60	0	0
61	0	0
62	0	0
63	0	0
64	0	0
66	0	0
68	0	0
70	0	0
72	0	0
74	0	0
76	0	0
78	0	0
80	0	0
82	0	0
84	0	0
86	0	0
88	0	0
90	0	0
92	0	0
94	0	0
96	0	0
98	0	0
100	0	0
102	0	0
104	0	0
106	0	0
108	0	0
110	0	0
112	0	0
114	0	0
116	0	0
118	0	0
120	0	0
122	0	0
124	0	0
126	0	0
128	0	0
132	0	0
136	0	0
140	0	0
144	0	0
148	0	0
152	0	0
156	0	0
160	0	0
164	0	0
168	0	0
172	0	0
176	0	0
180	0	0
184	0	0
188	0	0
192	0	0
196	0	0
200	0	0
204	0	0
208	0	0
212	0	0
216	0	0
220	0	0
224	0	0
228	0	0
232	0	0
236	0	0
240	0	0
244	0	0
248	0	0
252	0	0
256	0	0
264	0	0
272	0	0
280	0	0
288	0	0
296	0	0
304	0	0
312	0	0
320	0	0
328	0	0
336	0	0
344	0	0
352	0	0
360	0	0
368	0	0
376	0	0
384	0	0
392	0	0
400	0	0
408	0	0
416	0	0
424	0	0
432	0	0
440	0	0
448	0	0
456	0	0
464	0	0
472	0	0
480	0	0
488	0	0
496	0	0
504	0	0
512	0	0
528	0	0
544	0	0
560	0	0
576	0	0
592	0	0
608	0	0
624	0	0
640	0	0
656	0	0
672	0	0
688	0	0
704	0	0
720	0	0
736	0	0
752	0	0
768	0	0
784	0	0
800	0	0
816	0	0
832	0	0
848	0	0
864	0	0
880	0	0
896	0	0
912	0	0
928	0	0
944	0	0
960	0	0
976	0	0
992	0	0
1008	0	0
1024	0	0
1056	0	0
1088	0	0
1120	0	0
1152	0	0
1184	0	0
1216	0	0
1248	0	0
1280	0	0
1312	0	0
1344	0	0
1376	0	0
1408	0	0
1440	0	0
1472	0	0
1504	0	0
1536	0	0
1568	0	0
1600	0	0
1632	0	0
1664	0	0
1696	0	0
1728	0	0
1760	0	0
1792	0	0
1824	0	0
1856	0	0
1888	0	0
1920	0	0
1952	0	0
1984	0	0
2016	0	0
2048	0	0
2112	0	0
2176	0	0
2240	0	0
2304	0	0
2368	0	0
2432	0	0
2496	0	0
2560	0	0
2624	0	0
2688	0	0
2752	0	0
2816	0	0
2880	0	0
2944	0	0
3008	0	0
3072	0	0
3136	0	0
3200	0	0
3264	0	0
3328	0	0
3392	0	0
3456	0	0
3520	0	0
3584	0	0
3648	0	0
3712	0	0
3776	0	0
3840	0	0
3904	0	0
3968	0	0
4032	0	0
4096	0	0
4224	0	0
4352	0	0
4480	0	0
4608	0	0
4736	0	0
4864	0	0
4992	0	0
5120	0	0
5248	0	0
5376	0	0
5504	0	0
5632	0	0
5760	0	0
5888	0	0
6016	0	0
6144	0	0
6272	0	0
6400	0	0
6528	0	0
6656	0	0
6784	0	0
6912	0	0
7040	0	0
7168	0	0
7296	0	0
7424	0	0
7552	0	0
7680	0	0
7808	0	0
7936	0	0
8064	0	0
8192	0	0
8448	0	0
8704	0	0
8960	0	0
9216	0	0
9472	0	0
9728	0	0
9984	0	0
10240	0	0
10496	0	0
10752	0	0
11008	0	0
11264	0	0
11520	0	0
11776	0	0
12032	0	0
12288	0	0
12544	0	0
12800	0	0
13056	0	0
13312	0	0
13568	0	0
13824	0	0
14080	0	0
14336	0	0
14592	0	0
14848	0	0
15104	0	0
15360	0	0
15616	0	0
15872	0	0
16128	0	0
16384	0	0
16896	0	0
17408	0	0
17920	0	0
18432	0	0
18944	0	0
19456	0	0
19968	0	0
20480	0	0
20992	0	0
21504	0	0
22016	0	0
22528	0	0
23040	0	0
23552	0	0
24064	0	0
24576	0	0
25088	0	0
25600	0	0
26112	0	0
26624	0	0
27136	0	0
27648	0	0
28160	0	0
28672	0	0
29184	0	0
29696	0	0
30208	0	0
30720	0	0
31232	0	0
31744	0	0
32256	0	0
32768	0	0
33792	0	0
34816	0	0
35840	0	0
36864	0	0
37888	0	0
38912	0	0
39936	0	0
40960	0	0
41984	0	0
43008	0	0
44032	0	0
45056	0	0
46080	0	0
47104	0	0
48128	0	0
49152	0	0
50176	0	0
51200	0	0
52224	0	0
53248	0	0
54272	0	0
55296	0	0
56320	0	0
57344	0	0
58368	0	0
59392	0	0
60416	0	0
61440	0	0
62464	0	0
63488	0	0
64512	0	0
65536	0	0
67584	0	0
69632	0	0
71680	0	0
73728	0	0
75776	0	0
77824	0	0
79872	0	0
81920	0	0
83968	0	0
86016	0	0
88064	0	0
90112	0	0
92160	0	0
94208	0	0
96256	0	0
98304	0	0
100352	0	0
102400	0	0
104448	0	0
106496	0	0
108544	0	0
110592	0	0
112640	0	0
114688	0	0
116736	0	0
118784	0	0
120832	0	0
122880	0	0
124928	0	0
126976	0	0
129024	0	0
131072	0	0
135168	0	0
139264	0	0
143360	0	0
147456	0	0
151552	0	0
155648	0	0
159744	0	0
163840	0	0
167936	0	0
172032	0	0
176128	0	0
180224	0	0
184320	0	0
188416	0	0
192512	0	0
196608	0	0
200704	0	0
204800	0	0
208896	0	0
212992	0	0
217088	0	0
221184	0	0
225280	0	0
229376	0	0
233472	0	0
237568	0	0
241664	0	0
245760	0	0
249856	0	0
253952	0	0
258048	0	0
262144	0	0
270336	0	0
278528	0	0
286720	0	0
294912	0	0
303104	0	0
311296	0	0
319488	0	0
327680	0	0
335872	0	0
344064	0	0
352256	0	0
360448	0	0
368640	0	0
376832	0	0
385024	0	0
393216	0	0
401408	0	0
409600	0	0
417792	0	0
425984	0	0
434176	0	0
442368	0	0
450560	0	0
458752	0	0
466944	0	0
475136	0	0
483328	0	0
491520	0	0
499712	0	0
507904	0	0
516096	0	0
524288	0	0
540672	0	0
557056	0	0
573440	0	0
589824	0	0
606208	0	0
622592	0	0
638976	0	0
655360	0	0
671744	0	0
688128	0	0
704512	0	0
720896	0	0
737280	0	0
753664	0	0
770048	0	0
786432	0	0
802816	0	0
819200	0	0
835584	0	0
851968	0	0
868352	0	0
884736	0	0
901120	0	0
917504	0	0
933888	0	0
950272	0	0
966656	0	0
983040	0	0
999424	0	0
1015808	0	0
1032192	0	0
1048576	0	0
1081344	0	0
1114112	0	0
1146880	0	0
1179648	0	0
1212416	0	0
1245184	0	0
1277952	0	0
1310720	0	0
1343488	0	0
1376256	0	0
1409024	0	0
1441792	0	0
1474560	0	0
1507328	0	0
1540096	0	0
1572864	0	0
1605632	0	0
1638400	0	0
1671168	0	0
1703936	0	0
1736704	0	0
1769472	0	0
1802240	0	0
1835008	0	0
1867776	0	0
1900544	0	0
1933312	0	0
1966080	0	0
1998848	0	0
2031616	0	0
2064384	0	0
2097152	0	0
2162688	0	0
2228224	0	0
2293760	0	0
2359296	0	0
2424832	0	0
2490368	0	0
2555904	0	0
2621440	0	0
2686976	0	0
2752512	0	0
2818048	0	0
2883584	0	0
2949120	0	0
3014656	0	0
3080192	0	0
3145728	0	0
3211264	0	0
3276800	0	0
3342336	0	0
3407872	0	0
3473408	0	0
3538944	0	0
3604480	0	0
3670016	0	0
3735552	0	0
3801088	0	0
3866624	0	0
3932160	0	0
3997696	0	0
4063232	0	0
4128768	0	0
4194304	0	0
4325376	0	0
4456448	0	0
4587520	0	0
4718592	0	0
4849664	0	0
4980736	0	0
5111808	0	0
5242880	0	0
5373952	0	0
5505024	0	0
5636096	0	0
5767168	0	0
5898240	0	0
6029312	0	0
6160384	0	0
6291456	0	0
6422528	0	0
6553600	0	0
6684672	0	0
6815744	0	0
6946816	0	0
7077888	0	0
7208960	0	0
7340032	0	0
7471104	0	0
7602176	0	0
7733248	0	0
7864320	0	0
7995392	0	0
8126464	0	0
8257536	0	0
8388608	0	0
8650752	0	0
8912896	0	0
9175040	0	0
9437184	0	0
9699328	0	0
9961472	0	0
10223616	0	0
10485760	0	0
10747904	0	0
11010048	0	0
11272192	0	0
11534336	0	0
11796480	0	0
12058624	0	0
12320768	0	0
12582912	0	0
12845056	0	0
13107200	0	0
13369344	0	0
13631488	0	0
13893632	0	0
14155776	0	0
14417920	0	0
14680064	0	0
14942208	0	0
15204352	0	0
15466496	0	0
15728640	0	0
15990784	0	0
16252928	0	0
16515072	0	0
16777216	0	0
17301504	0	0
17825792	0	0
18350080	0	0
18874368	0	0
19398656	0	0
19922944	0	0
20447232	0	0
20971520	0	0
21495808	0	0
22020096	0	0
22544384	0	0
23068672	0	0
23592960	0	0
24117248	0	0
24641536	0	0
25165824	0	0
25690112	0	0
26214400	0	0
26738688	0	0
27262976	0	0
27787264	0	0
28311552	0	0
28835840	0	0
29360128	0	0
29884416	0	0
30408704	0	0
30932992	0	0
31457280	0	0
31981568	0	0
32505856	0	0
33030144	0	0
33554432	0	0
34603008	0	0
35651584	0	0
36700160	0	0
37748736	0	0
38797312	0	0
39845888	0	0
40894464	0	0
41943040	0	0
42991616	0	0
44040192	0	0
45088768	0	0
46137344	0	0
47185920	0	0
48234496	0	0
49283072	0	0
50331648	0	0
51380224	0	0
52428800	0	0
53477376	0	0
54525952	0	0
55574528	0	0
56623104	0	0
57671680	0	0
58720256	0	0
59768832	0	0
60817408	0	0
61865984	0	0
62914560	0	0
63963136	0	0
65011712	0	0
66060288	0	0
67108864	0	0
69206016	0	0
71303168	0	0
73400320	0	0
75497472	0	0
77594624	0	0
79691776	0	0
81788928	0	0
83886080	0	0
85983232	0	0
88080384	0	0
90177536	0	0
92274688	0	0
94371840	0	0
96468992	0	0
98566144	0	0
100663296	0	0
102760448	0	0
104857600	0	0
106954752	0	0
109051904	0	0
111149056	0	0
113246208	0	0
115343360	0	0
117440512	0	0
119537664	0	0
121634816	0	0
123731968	0	0
125829120	0	0
127926272	0	0
130023424	0	0
132120576	0	0
134217728	0	0
138412032	0	0
142606336	0	0
146800640	0	0
150994944	0	0
155189248	0	0
159383552	0	0
163577856	0	0
167772160	0	0
171966464	0	0
176160768	0	0
180355072	0	0
184549376	0	0
188743680	0	0
192937984	0	0
197132288	0	0
201326592	0	0
205520896	0	0
209715200	0	0
213909504	0	0
218103808	0	0
222298112	0	0
226492416	0	0
230686720	0	0
234881024	0	0
239075328	0	0
243269632	0	0
247463936	0	0
251658240	0	0
255852544	0	0
260046848	0	0
264241152	0	0
268435456	0	0
276824064	0	0
285212672	0	0
293601280	0	0
301989888	0	0
310378496	0	0
318767104	0	0
327155712	0	0
335544320	0	0
343932928	0	0
352321536	0	0
360710144	0	0
369098752	0	0
377487360	0	0
385875968	0	0
394264576	0	0
402653184	0	0
411041792	0	0
419430400	0	0
427819008	0	0
436207616	0	0
444596224	0	0
452984832	0	0
461373440	0	0
469762048	0	0
478150656	0	0
486539264	0	0
494927872	0	0
503316480	0	0
511705088	0	0
520093696	0	0
528482304	0	0
536870912	0	0
553648128	0	0
570425344	0	0
587202560	0	0
603979776	0	0
620756992	0	0
637534208	0	0
654311424	0	0
671088640	0	0
687865856	0	0
704643072	0	0
721420288	0	0
738197504	0	0
754974720	0	0
771751936	0	0
788529152	0	0
805306368	0	0
822083584	0	0
838860800	0	0
855638016	0	0
872415232	0	0
889192448	0	0
905969664	0	0
922746880	0	0
939524096	0	0
956301312	0	0
973078528	0	0
989855744	0	0
1006632960	0	0
1023410176	0	0
1040187392	0	0
1056964608	0	0
1073741824	0	0
1107296256	0	0
1140850688	0	0
1174405120	0	0
1207959552	0	0
1241513984	0	0
1275068416	0	0
1308622848	0	0
1342177280	0	0
1375731712	0	0
1409286144	0	0
1442840576	0	0
1476395008	0	0
1509949440	0	0
1543503872	0	0
1577058304	0	0
1610612736	0	0
1644167168	0	0
1677721600	0	0
1711276032	0	0
1744830464	0	0
1778384896	0	0
1811939328	0	0
1845493760	0	0
1879048192	0	0
1912602624	0	0
1946157056	0	0
1979711488	0	0
2013265920	0	0
2046820352	0	0
2080374784	0	0
2113929216	0	0
2147483648	0	0
2214592512	0	0
2281701376	0	0
2348810240	0	0
2415919104	0	0
2483027968	0	0
2550136832	0	0
2617245696	0	0
2684354560	0	0
2751463424	0	0
2818572288	0	0
2885681152	0	0
2952790016	0	0
3019898880	0	0
3087007744	0	0
3154116608	0	0
3221225472	0	0
3288334336	0	0
3355443200	0	0
3422552064	0	0
3489660928	0	0
3556769792	0	0
3623878656	0	0
3690987520	0	0
3758096384	0	0
3825205248	0	0
3892314112	0	0
3959422976	0	0
4026531840	0	0
4093640704	0	0
4160749568	0	0
4227858432	0	0
~~~~~~~~~~Reuse Distance Profiler output end~~~~~~~~~~


DRAM Statistics
 CHANNEL 0
 RQ ROW_BUFFER_HIT:    2284798  ROW_BUFFER_MISS:   36308961
 DBUS AVG_CONGESTED_CYCLE:    3.92183
 WQ ROW_BUFFER_HIT:     228414  ROW_BUFFER_MISS:    3658903  FULL:          0


CPU 0 Branch Prediction Accuracy: 88.3643% MPKI: 29.2715 Average ROB Occupancy at Mispredict: 20.6487
Branch type MPKI
BRANCH_DIRECT_JUMP: 6.66667e-07
BRANCH_INDIRECT: 0
BRANCH_CONDITIONAL: 29.2714
BRANCH_DIRECT_CALL: 0
BRANCH_INDIRECT_CALL: 0.000108667
BRANCH_RETURN: 0

