
*** ChampSim Multicore Out-of-Order Simulator ***

Warmup Instructions: 50000000
Simulation Instructions: 1500000000
Number of CPUs: 1
Off-chip DRAM Size: 4 GiB Channels: 1 Width: 64-bit Data Rate: 3200 MT/s

VirtualMemory physical capacity: 8588881920 num_ppages: 2096895
VirtualMemory page size: 4096 log2_page_size: 12

CPU 0 runs traces/621.wrf_s-6673B.champsimtrace.xz
CPU 0 Bimodal branch predictor
Basic BTB sets: 1024 ways: 8 indirect buffer size: 4096 RAS size: 64
Initializing LRU.
Initializing LRU.
Initializing LRU.
Initializing LRU.
Initializing rdLRU.
Initializing LRU.
Initializing LRU.
Heartbeat CPU 0 instructions: 2000001 cycles: 583732 heartbeat IPC: 3.42623 cumulative IPC: 3.42623 (Simulation time: 0 hr 0 min 59 sec) 
Heartbeat CPU 0 instructions: 4000000 cycles: 1382282 heartbeat IPC: 2.50454 cumulative IPC: 2.89377 (Simulation time: 0 hr 2 min 28 sec) 
Heartbeat CPU 0 instructions: 6000001 cycles: 2246104 heartbeat IPC: 2.31529 cumulative IPC: 2.67129 (Simulation time: 0 hr 4 min 7 sec) 
Heartbeat CPU 0 instructions: 8000003 cycles: 3109136 heartbeat IPC: 2.31741 cumulative IPC: 2.57306 (Simulation time: 0 hr 5 min 35 sec) 
Heartbeat CPU 0 instructions: 10000003 cycles: 3923313 heartbeat IPC: 2.45647 cumulative IPC: 2.54887 (Simulation time: 0 hr 6 min 50 sec) 
Heartbeat CPU 0 instructions: 12000000 cycles: 4432311 heartbeat IPC: 3.92928 cumulative IPC: 2.70739 (Simulation time: 0 hr 7 min 28 sec) 
Heartbeat CPU 0 instructions: 14000000 cycles: 5109333 heartbeat IPC: 2.95411 cumulative IPC: 2.74008 (Simulation time: 0 hr 8 min 26 sec) 
Heartbeat CPU 0 instructions: 16000001 cycles: 5697835 heartbeat IPC: 3.39846 cumulative IPC: 2.80808 (Simulation time: 0 hr 9 min 11 sec) 
Heartbeat CPU 0 instructions: 18000000 cycles: 6197935 heartbeat IPC: 3.9992 cumulative IPC: 2.90419 (Simulation time: 0 hr 9 min 44 sec) 
Heartbeat CPU 0 instructions: 20000003 cycles: 6757049 heartbeat IPC: 3.57709 cumulative IPC: 2.95987 (Simulation time: 0 hr 10 min 35 sec) 
Heartbeat CPU 0 instructions: 22000000 cycles: 7348421 heartbeat IPC: 3.38196 cumulative IPC: 2.99384 (Simulation time: 0 hr 11 min 37 sec) 
Heartbeat CPU 0 instructions: 24000002 cycles: 7893205 heartbeat IPC: 3.67118 cumulative IPC: 3.04059 (Simulation time: 0 hr 12 min 31 sec) 
Heartbeat CPU 0 instructions: 26000002 cycles: 8409682 heartbeat IPC: 3.87239 cumulative IPC: 3.09167 (Simulation time: 0 hr 13 min 21 sec) 
Heartbeat CPU 0 instructions: 28000001 cycles: 8928047 heartbeat IPC: 3.85828 cumulative IPC: 3.13618 (Simulation time: 0 hr 14 min 11 sec) 
Heartbeat CPU 0 instructions: 30000001 cycles: 9428047 heartbeat IPC: 4 cumulative IPC: 3.182 (Simulation time: 0 hr 14 min 57 sec) 
Heartbeat CPU 0 instructions: 32000002 cycles: 9950624 heartbeat IPC: 3.82719 cumulative IPC: 3.21588 (Simulation time: 0 hr 15 min 46 sec) 
Heartbeat CPU 0 instructions: 34000001 cycles: 10503885 heartbeat IPC: 3.61493 cumulative IPC: 3.2369 (Simulation time: 0 hr 16 min 45 sec) 
Heartbeat CPU 0 instructions: 36000001 cycles: 11069952 heartbeat IPC: 3.53315 cumulative IPC: 3.25205 (Simulation time: 0 hr 17 min 47 sec) 
Heartbeat CPU 0 instructions: 38000001 cycles: 11659472 heartbeat IPC: 3.39259 cumulative IPC: 3.25915 (Simulation time: 0 hr 18 min 55 sec) 
Heartbeat CPU 0 instructions: 40000002 cycles: 12174675 heartbeat IPC: 3.88197 cumulative IPC: 3.28551 (Simulation time: 0 hr 19 min 42 sec) 
Heartbeat CPU 0 instructions: 42000002 cycles: 12674675 heartbeat IPC: 4 cumulative IPC: 3.31369 (Simulation time: 0 hr 20 min 24 sec) 
Heartbeat CPU 0 instructions: 44000004 cycles: 13219484 heartbeat IPC: 3.67102 cumulative IPC: 3.32842 (Simulation time: 0 hr 21 min 16 sec) 
Heartbeat CPU 0 instructions: 46000000 cycles: 13742965 heartbeat IPC: 3.82057 cumulative IPC: 3.34717 (Simulation time: 0 hr 22 min 3 sec) 
Heartbeat CPU 0 instructions: 48000003 cycles: 14302022 heartbeat IPC: 3.57746 cumulative IPC: 3.35617 (Simulation time: 0 hr 22 min 55 sec) 
Heartbeat CPU 0 instructions: 50000003 cycles: 15002847 heartbeat IPC: 2.85378 cumulative IPC: 3.3327 (Simulation time: 0 hr 24 min 8 sec) 

Warmup complete CPU 0 instructions: 50000003 cycles: 15002847 (Simulation time: 0 hr 24 min 8 sec) 

Heartbeat CPU 0 instructions: 52000001 cycles: 18321758 heartbeat IPC: 0.602607 cumulative IPC: 0.602607 (Simulation time: 0 hr 27 min 7 sec) 

Region of Interest Statistics
cpu0_DTLB TOTAL     ACCESS:     573707  HIT:     555745  MISS:      17962
cpu0_DTLB LOAD      ACCESS:     521038  HIT:     507897  MISS:      13141
cpu0_DTLB RFO       ACCESS:      52669  HIT:      47848  MISS:       4821
cpu0_DTLB PREFETCH  ACCESS:          0  HIT:          0  MISS:          0
cpu0_DTLB WRITEBACK ACCESS:          0  HIT:          0  MISS:          0
cpu0_ITLB TOTAL     ACCESS:     127941  HIT:     127933  MISS:          8
cpu0_ITLB LOAD      ACCESS:     127941  HIT:     127933  MISS:          8
cpu0_ITLB RFO       ACCESS:          0  HIT:          0  MISS:          0
cpu0_ITLB PREFETCH  ACCESS:          0  HIT:          0  MISS:          0
cpu0_ITLB WRITEBACK ACCESS:          0  HIT:          0  MISS:          0
cpu0_L1I TOTAL     ACCESS:      31065  HIT:      30831  MISS:        234
cpu0_L1I LOAD      ACCESS:      31065  HIT:      30831  MISS:        234
cpu0_L1I RFO       ACCESS:          0  HIT:          0  MISS:          0
cpu0_L1I PREFETCH  ACCESS:          0  HIT:          0  MISS:          0
cpu0_L1I WRITEBACK ACCESS:          0  HIT:          0  MISS:          0
cpu0_STLB TOTAL     ACCESS:      17970  HIT:      17479  MISS:        491
cpu0_STLB LOAD      ACCESS:      13149  HIT:      12669  MISS:        480
cpu0_STLB RFO       ACCESS:       4821  HIT:       4810  MISS:         11
cpu0_STLB PREFETCH  ACCESS:          0  HIT:          0  MISS:          0
cpu0_STLB WRITEBACK ACCESS:          0  HIT:          0  MISS:          0
cpu0_L1D TOTAL     ACCESS:     528792  HIT:     438780  MISS:      90012
cpu0_L1D LOAD      ACCESS:     431052  HIT:     348033  MISS:      83019
cpu0_L1D RFO       ACCESS:      97393  HIT:      90491  MISS:       6902
cpu0_L1D PREFETCH  ACCESS:          0  HIT:          0  MISS:          0
cpu0_L1D WRITEBACK ACCESS:          0  HIT:          0  MISS:          0
cpu0_L2C TOTAL     ACCESS:     114300  HIT:      66381  MISS:      47919
cpu0_L2C LOAD      ACCESS:      83253  HIT:      36146  MISS:      47107
cpu0_L2C RFO       ACCESS:       6901  HIT:       6116  MISS:        785
cpu0_L2C PREFETCH  ACCESS:          0  HIT:          0  MISS:          0
cpu0_L2C WRITEBACK ACCESS:      24055  HIT:      24048  MISS:          7
LLC TOTAL     ACCESS:      56461  HIT:      16571  MISS:      39890
LLC LOAD      ACCESS:      47107  HIT:       8125  MISS:      38982
LLC RFO       ACCESS:        785  HIT:        163  MISS:        622
LLC PREFETCH  ACCESS:          0  HIT:          0  MISS:          0
LLC WRITEBACK ACCESS:       8549  HIT:       8271  MISS:        278
Heartbeat CPU 0 instructions: 54000003 cycles: 20068561 heartbeat IPC: 1.14495 cumulative IPC: 0.789622 (Simulation time: 0 hr 29 min 5 sec) 

Region of Interest Statistics
cpu0_DTLB TOTAL     ACCESS:    1181638  HIT:    1162840  MISS:      18798
cpu0_DTLB LOAD      ACCESS:    1072356  HIT:    1058492  MISS:      13864
cpu0_DTLB RFO       ACCESS:     109282  HIT:     104348  MISS:       4934
cpu0_DTLB PREFETCH  ACCESS:          0  HIT:          0  MISS:          0
cpu0_DTLB WRITEBACK ACCESS:          0  HIT:          0  MISS:          0
cpu0_ITLB TOTAL     ACCESS:     219412  HIT:     219404  MISS:          8
cpu0_ITLB LOAD      ACCESS:     219412  HIT:     219404  MISS:          8
cpu0_ITLB RFO       ACCESS:          0  HIT:          0  MISS:          0
cpu0_ITLB PREFETCH  ACCESS:          0  HIT:          0  MISS:          0
cpu0_ITLB WRITEBACK ACCESS:          0  HIT:          0  MISS:          0
cpu0_L1I TOTAL     ACCESS:      52816  HIT:      52582  MISS:        234
cpu0_L1I LOAD      ACCESS:      52816  HIT:      52582  MISS:        234
cpu0_L1I RFO       ACCESS:          0  HIT:          0  MISS:          0
cpu0_L1I PREFETCH  ACCESS:          0  HIT:          0  MISS:          0
cpu0_L1I WRITEBACK ACCESS:          0  HIT:          0  MISS:          0
cpu0_STLB TOTAL     ACCESS:      18806  HIT:      18035  MISS:        771
cpu0_STLB LOAD      ACCESS:      13872  HIT:      13177  MISS:        695
cpu0_STLB RFO       ACCESS:       4934  HIT:       4858  MISS:         76
cpu0_STLB PREFETCH  ACCESS:          0  HIT:          0  MISS:          0
cpu0_STLB WRITEBACK ACCESS:          0  HIT:          0  MISS:          0
cpu0_L1D TOTAL     ACCESS:    1064414  HIT:     936636  MISS:     127778
cpu0_L1D LOAD      ACCESS:     900092  HIT:     785997  MISS:     114095
cpu0_L1D RFO       ACCESS:     163695  HIT:     150152  MISS:      13543
cpu0_L1D PREFETCH  ACCESS:          0  HIT:          0  MISS:          0
cpu0_L1D WRITEBACK ACCESS:          0  HIT:          0  MISS:          0
cpu0_L2C TOTAL     ACCESS:     160022  HIT:      86611  MISS:      73411
cpu0_L2C LOAD      ACCESS:     114329  HIT:      45985  MISS:      68344
cpu0_L2C RFO       ACCESS:      13542  HIT:       8511  MISS:       5031
cpu0_L2C PREFETCH  ACCESS:          0  HIT:          0  MISS:          0
cpu0_L2C WRITEBACK ACCESS:      32011  HIT:      32000  MISS:         11
LLC TOTAL     ACCESS:      87800  HIT:      25588  MISS:      62212
LLC LOAD      ACCESS:      68344  HIT:      11214  MISS:      57130
LLC RFO       ACCESS:       5031  HIT:        239  MISS:       4792
LLC PREFETCH  ACCESS:          0  HIT:          0  MISS:          0
LLC WRITEBACK ACCESS:      14400  HIT:      14118  MISS:        282
Heartbeat CPU 0 instructions: 56000002 cycles: 21925319 heartbeat IPC: 1.07715 cumulative IPC: 0.866742 (Simulation time: 0 hr 31 min 7 sec) 

Region of Interest Statistics
cpu0_DTLB TOTAL     ACCESS:    1783329  HIT:    1761782  MISS:      21547
cpu0_DTLB LOAD      ACCESS:    1610957  HIT:    1594621  MISS:      16336
cpu0_DTLB RFO       ACCESS:     172372  HIT:     167161  MISS:       5211
cpu0_DTLB PREFETCH  ACCESS:          0  HIT:          0  MISS:          0
cpu0_DTLB WRITEBACK ACCESS:          0  HIT:          0  MISS:          0
cpu0_ITLB TOTAL     ACCESS:     316058  HIT:     316050  MISS:          8
cpu0_ITLB LOAD      ACCESS:     316058  HIT:     316050  MISS:          8
cpu0_ITLB RFO       ACCESS:          0  HIT:          0  MISS:          0
cpu0_ITLB PREFETCH  ACCESS:          0  HIT:          0  MISS:          0
cpu0_ITLB WRITEBACK ACCESS:          0  HIT:          0  MISS:          0
cpu0_L1I TOTAL     ACCESS:      73010  HIT:      72761  MISS:        249
cpu0_L1I LOAD      ACCESS:      73010  HIT:      72761  MISS:        249
cpu0_L1I RFO       ACCESS:          0  HIT:          0  MISS:          0
cpu0_L1I PREFETCH  ACCESS:          0  HIT:          0  MISS:          0
cpu0_L1I WRITEBACK ACCESS:          0  HIT:          0  MISS:          0
cpu0_STLB TOTAL     ACCESS:      21555  HIT:      20416  MISS:       1139
cpu0_STLB LOAD      ACCESS:      16344  HIT:      15379  MISS:        965
cpu0_STLB RFO       ACCESS:       5211  HIT:       5037  MISS:        174
cpu0_STLB PREFETCH  ACCESS:          0  HIT:          0  MISS:          0
cpu0_STLB WRITEBACK ACCESS:          0  HIT:          0  MISS:          0
cpu0_L1D TOTAL     ACCESS:    1589894  HIT:    1420282  MISS:     169612
cpu0_L1D LOAD      ACCESS:    1352092  HIT:    1204617  MISS:     147475
cpu0_L1D RFO       ACCESS:     236807  HIT:     214858  MISS:      21949
cpu0_L1D PREFETCH  ACCESS:          0  HIT:          0  MISS:          0
cpu0_L1D WRITEBACK ACCESS:          0  HIT:          0  MISS:          0
cpu0_L2C TOTAL     ACCESS:     213281  HIT:     109271  MISS:     104010
cpu0_L2C LOAD      ACCESS:     147724  HIT:      54970  MISS:      92754
cpu0_L2C RFO       ACCESS:      21948  HIT:      10741  MISS:      11207
cpu0_L2C PREFETCH  ACCESS:          0  HIT:          0  MISS:          0
cpu0_L2C WRITEBACK ACCESS:      43421  HIT:      43400  MISS:         21
LLC TOTAL     ACCESS:     124224  HIT:      35258  MISS:      88966
LLC LOAD      ACCESS:      92754  HIT:      15003  MISS:      77751
LLC RFO       ACCESS:      11207  HIT:        285  MISS:      10922
LLC PREFETCH  ACCESS:          0  HIT:          0  MISS:          0
LLC WRITEBACK ACCESS:      20235  HIT:      19951  MISS:        284
Heartbeat CPU 0 instructions: 58000004 cycles: 24622556 heartbeat IPC: 0.7415 cumulative IPC: 0.831626 (Simulation time: 0 hr 33 min 32 sec) 

Region of Interest Statistics
cpu0_DTLB TOTAL     ACCESS:    2311379  HIT:    2288921  MISS:      22458
cpu0_DTLB LOAD      ACCESS:    2078205  HIT:    2061059  MISS:      17146
cpu0_DTLB RFO       ACCESS:     233174  HIT:     227862  MISS:       5312
cpu0_DTLB PREFETCH  ACCESS:          0  HIT:          0  MISS:          0
cpu0_DTLB WRITEBACK ACCESS:          0  HIT:          0  MISS:          0
cpu0_ITLB TOTAL     ACCESS:     442843  HIT:     442835  MISS:          8
cpu0_ITLB LOAD      ACCESS:     442843  HIT:     442835  MISS:          8
cpu0_ITLB RFO       ACCESS:          0  HIT:          0  MISS:          0
cpu0_ITLB PREFETCH  ACCESS:          0  HIT:          0  MISS:          0
cpu0_ITLB WRITEBACK ACCESS:          0  HIT:          0  MISS:          0
cpu0_L1I TOTAL     ACCESS:     106678  HIT:     106379  MISS:        299
cpu0_L1I LOAD      ACCESS:     106678  HIT:     106379  MISS:        299
cpu0_L1I RFO       ACCESS:          0  HIT:          0  MISS:          0
cpu0_L1I PREFETCH  ACCESS:          0  HIT:          0  MISS:          0
cpu0_L1I WRITEBACK ACCESS:          0  HIT:          0  MISS:          0
cpu0_STLB TOTAL     ACCESS:      22466  HIT:      20909  MISS:       1557
cpu0_STLB LOAD      ACCESS:      17154  HIT:      15870  MISS:       1284
cpu0_STLB RFO       ACCESS:       5312  HIT:       5039  MISS:        273
cpu0_STLB PREFETCH  ACCESS:          0  HIT:          0  MISS:          0
cpu0_STLB WRITEBACK ACCESS:          0  HIT:          0  MISS:          0
cpu0_L1D TOTAL     ACCESS:    2036120  HIT:    1785854  MISS:     250266
cpu0_L1D LOAD      ACCESS:    1707104  HIT:    1488155  MISS:     218949
cpu0_L1D RFO       ACCESS:     327605  HIT:     296514  MISS:      31091
cpu0_L1D PREFETCH  ACCESS:          0  HIT:          0  MISS:          0
cpu0_L1D WRITEBACK ACCESS:          0  HIT:          0  MISS:          0
cpu0_L2C TOTAL     ACCESS:     319022  HIT:     160383  MISS:     158639
cpu0_L2C LOAD      ACCESS:     219241  HIT:      78065  MISS:     141176
cpu0_L2C RFO       ACCESS:      31084  HIT:      13675  MISS:      17409
cpu0_L2C PREFETCH  ACCESS:          0  HIT:          0  MISS:          0
cpu0_L2C WRITEBACK ACCESS:      68471  HIT:      68448  MISS:         23
LLC TOTAL     ACCESS:     200928  HIT:      72309  MISS:     128619
LLC LOAD      ACCESS:     141176  HIT:      30104  MISS:     111072
LLC RFO       ACCESS:      17409  HIT:        286  MISS:      17123
LLC PREFETCH  ACCESS:          0  HIT:          0  MISS:          0
LLC WRITEBACK ACCESS:      42312  HIT:      41898  MISS:        414
Heartbeat CPU 0 instructions: 60000000 cycles: 26928373 heartbeat IPC: 0.86737 cumulative IPC: 0.838537 (Simulation time: 0 hr 35 min 34 sec) 

Region of Interest Statistics
cpu0_DTLB TOTAL     ACCESS:    2869183  HIT:    2834869  MISS:      34314
cpu0_DTLB LOAD      ACCESS:    2578350  HIT:    2551798  MISS:      26552
cpu0_DTLB RFO       ACCESS:     290833  HIT:     283071  MISS:       7762
cpu0_DTLB PREFETCH  ACCESS:          0  HIT:          0  MISS:          0
cpu0_DTLB WRITEBACK ACCESS:          0  HIT:          0  MISS:          0
cpu0_ITLB TOTAL     ACCESS:     539198  HIT:     539184  MISS:         14
cpu0_ITLB LOAD      ACCESS:     539198  HIT:     539184  MISS:         14
cpu0_ITLB RFO       ACCESS:          0  HIT:          0  MISS:          0
cpu0_ITLB PREFETCH  ACCESS:          0  HIT:          0  MISS:          0
cpu0_ITLB WRITEBACK ACCESS:          0  HIT:          0  MISS:          0
cpu0_L1I TOTAL     ACCESS:     137652  HIT:     137041  MISS:        611
cpu0_L1I LOAD      ACCESS:     137652  HIT:     137041  MISS:        611
cpu0_L1I RFO       ACCESS:          0  HIT:          0  MISS:          0
cpu0_L1I PREFETCH  ACCESS:          0  HIT:          0  MISS:          0
cpu0_L1I WRITEBACK ACCESS:          0  HIT:          0  MISS:          0
cpu0_STLB TOTAL     ACCESS:      34328  HIT:      32372  MISS:       1956
cpu0_STLB LOAD      ACCESS:      26566  HIT:      24884  MISS:       1682
cpu0_STLB RFO       ACCESS:       7762  HIT:       7488  MISS:        274
cpu0_STLB PREFETCH  ACCESS:          0  HIT:          0  MISS:          0
cpu0_STLB WRITEBACK ACCESS:          0  HIT:          0  MISS:          0
cpu0_L1D TOTAL     ACCESS:    2546904  HIT:    2234852  MISS:     312052
cpu0_L1D LOAD      ACCESS:    2094065  HIT:    1818309  MISS:     275756
cpu0_L1D RFO       ACCESS:     451038  HIT:     415059  MISS:      35979
cpu0_L1D PREFETCH  ACCESS:          0  HIT:          0  MISS:          0
cpu0_L1D WRITEBACK ACCESS:          0  HIT:          0  MISS:          0
cpu0_L2C TOTAL     ACCESS:     397409  HIT:     197014  MISS:     200395
cpu0_L2C LOAD      ACCESS:     276358  HIT:      93736  MISS:     182622
cpu0_L2C RFO       ACCESS:      35971  HIT:      18278  MISS:      17693
cpu0_L2C PREFETCH  ACCESS:          0  HIT:          0  MISS:          0
cpu0_L2C WRITEBACK ACCESS:      84763  HIT:      84726  MISS:         37
LLC TOTAL     ACCESS:     252111  HIT:      94721  MISS:     157390
LLC LOAD      ACCESS:     182622  HIT:      42975  MISS:     139647
LLC RFO       ACCESS:      17693  HIT:        411  MISS:      17282
LLC PREFETCH  ACCESS:          0  HIT:          0  MISS:          0
LLC WRITEBACK ACCESS:      51753  HIT:      51308  MISS:        445
Heartbeat CPU 0 instructions: 62000004 cycles: 29518247 heartbeat IPC: 0.77224 cumulative IPC: 0.826708 (Simulation time: 0 hr 37 min 57 sec) 

Region of Interest Statistics
cpu0_DTLB TOTAL     ACCESS:    3430070  HIT:    3391868  MISS:      38202
cpu0_DTLB LOAD      ACCESS:    3082438  HIT:    3052192  MISS:      30246
cpu0_DTLB RFO       ACCESS:     347632  HIT:     339676  MISS:       7956
cpu0_DTLB PREFETCH  ACCESS:          0  HIT:          0  MISS:          0
cpu0_DTLB WRITEBACK ACCESS:          0  HIT:          0  MISS:          0
cpu0_ITLB TOTAL     ACCESS:     630125  HIT:     630111  MISS:         14
cpu0_ITLB LOAD      ACCESS:     630125  HIT:     630111  MISS:         14
cpu0_ITLB RFO       ACCESS:          0  HIT:          0  MISS:          0
cpu0_ITLB PREFETCH  ACCESS:          0  HIT:          0  MISS:          0
cpu0_ITLB WRITEBACK ACCESS:          0  HIT:          0  MISS:          0
cpu0_L1I TOTAL     ACCESS:     166885  HIT:     166274  MISS:        611
cpu0_L1I LOAD      ACCESS:     166885  HIT:     166274  MISS:        611
cpu0_L1I RFO       ACCESS:          0  HIT:          0  MISS:          0
cpu0_L1I PREFETCH  ACCESS:          0  HIT:          0  MISS:          0
cpu0_L1I WRITEBACK ACCESS:          0  HIT:          0  MISS:          0
cpu0_STLB TOTAL     ACCESS:      38216  HIT:      35809  MISS:       2407
cpu0_STLB LOAD      ACCESS:      30260  HIT:      28127  MISS:       2133
cpu0_STLB RFO       ACCESS:       7956  HIT:       7682  MISS:        274
cpu0_STLB PREFETCH  ACCESS:          0  HIT:          0  MISS:          0
cpu0_STLB WRITEBACK ACCESS:          0  HIT:          0  MISS:          0
cpu0_L1D TOTAL     ACCESS:    3058748  HIT:    2695086  MISS:     363662
cpu0_L1D LOAD      ACCESS:    2478009  HIT:    2155690  MISS:     322319
cpu0_L1D RFO       ACCESS:     578502  HIT:     537595  MISS:      40907
cpu0_L1D PREFETCH  ACCESS:          0  HIT:          0  MISS:          0
cpu0_L1D WRITEBACK ACCESS:          0  HIT:          0  MISS:          0
cpu0_L2C TOTAL     ACCESS:     461357  HIT:     227065  MISS:     234292
cpu0_L2C LOAD      ACCESS:     322921  HIT:     106487  MISS:     216434
cpu0_L2C RFO       ACCESS:      40898  HIT:      23130  MISS:      17768
cpu0_L2C PREFETCH  ACCESS:          0  HIT:          0  MISS:          0
cpu0_L2C WRITEBACK ACCESS:      97102  HIT:      97057  MISS:         45
LLC TOTAL     ACCESS:     292252  HIT:     103057  MISS:     189195
LLC LOAD      ACCESS:     216434  HIT:      45059  MISS:     171375
LLC RFO       ACCESS:      17768  HIT:        411  MISS:      17357
LLC PREFETCH  ACCESS:          0  HIT:          0  MISS:          0
LLC WRITEBACK ACCESS:      58005  HIT:      57558  MISS:        447
Heartbeat CPU 0 instructions: 64000000 cycles: 32231431 heartbeat IPC: 0.73714 cumulative IPC: 0.812603 (Simulation time: 0 hr 40 min 10 sec) 

Region of Interest Statistics
cpu0_DTLB TOTAL     ACCESS:    3987067  HIT:    3944973  MISS:      42094
cpu0_DTLB LOAD      ACCESS:    3582355  HIT:    3548406  MISS:      33949
cpu0_DTLB RFO       ACCESS:     404712  HIT:     396567  MISS:       8145
cpu0_DTLB PREFETCH  ACCESS:          0  HIT:          0  MISS:          0
cpu0_DTLB WRITEBACK ACCESS:          0  HIT:          0  MISS:          0
cpu0_ITLB TOTAL     ACCESS:     719971  HIT:     719957  MISS:         14
cpu0_ITLB LOAD      ACCESS:     719971  HIT:     719957  MISS:         14
cpu0_ITLB RFO       ACCESS:          0  HIT:          0  MISS:          0
cpu0_ITLB PREFETCH  ACCESS:          0  HIT:          0  MISS:          0
cpu0_ITLB WRITEBACK ACCESS:          0  HIT:          0  MISS:          0
cpu0_L1I TOTAL     ACCESS:     195234  HIT:     194623  MISS:        611
cpu0_L1I LOAD      ACCESS:     195234  HIT:     194623  MISS:        611
cpu0_L1I RFO       ACCESS:          0  HIT:          0  MISS:          0
cpu0_L1I PREFETCH  ACCESS:          0  HIT:          0  MISS:          0
cpu0_L1I WRITEBACK ACCESS:          0  HIT:          0  MISS:          0
cpu0_STLB TOTAL     ACCESS:      42108  HIT:      39157  MISS:       2951
cpu0_STLB LOAD      ACCESS:      33963  HIT:      31286  MISS:       2677
cpu0_STLB RFO       ACCESS:       8145  HIT:       7871  MISS:        274
cpu0_STLB PREFETCH  ACCESS:          0  HIT:          0  MISS:          0
cpu0_STLB WRITEBACK ACCESS:          0  HIT:          0  MISS:          0
cpu0_L1D TOTAL     ACCESS:    3562040  HIT:    3147255  MISS:     414785
cpu0_L1D LOAD      ACCESS:    2851563  HIT:    2483230  MISS:     368333
cpu0_L1D RFO       ACCESS:     707734  HIT:     661846  MISS:      45888
cpu0_L1D PREFETCH  ACCESS:          0  HIT:          0  MISS:          0
cpu0_L1D WRITEBACK ACCESS:          0  HIT:          0  MISS:          0
cpu0_L2C TOTAL     ACCESS:     524526  HIT:     256657  MISS:     267869
cpu0_L2C LOAD      ACCESS:     368930  HIT:     118997  MISS:     249933
cpu0_L2C RFO       ACCESS:      45879  HIT:      28041  MISS:      17838
cpu0_L2C PREFETCH  ACCESS:          0  HIT:          0  MISS:          0
cpu0_L2C WRITEBACK ACCESS:     109153  HIT:     109102  MISS:         51
LLC TOTAL     ACCESS:     332058  HIT:     109463  MISS:     222595
LLC LOAD      ACCESS:     249933  HIT:      45230  MISS:     204703
LLC RFO       ACCESS:      17838  HIT:        411  MISS:      17427
LLC PREFETCH  ACCESS:          0  HIT:          0  MISS:          0
LLC WRITEBACK ACCESS:      64240  HIT:      63792  MISS:        448
Heartbeat CPU 0 instructions: 66000001 cycles: 34848049 heartbeat IPC: 0.764346 cumulative IPC: 0.80624 (Simulation time: 0 hr 42 min 28 sec) 

Region of Interest Statistics
cpu0_DTLB TOTAL     ACCESS:    4548722  HIT:    4502373  MISS:      46349
cpu0_DTLB LOAD      ACCESS:    4086598  HIT:    4048601  MISS:      37997
cpu0_DTLB RFO       ACCESS:     462124  HIT:     453772  MISS:       8352
cpu0_DTLB PREFETCH  ACCESS:          0  HIT:          0  MISS:          0
cpu0_DTLB WRITEBACK ACCESS:          0  HIT:          0  MISS:          0
cpu0_ITLB TOTAL     ACCESS:     810775  HIT:     810761  MISS:         14
cpu0_ITLB LOAD      ACCESS:     810775  HIT:     810761  MISS:         14
cpu0_ITLB RFO       ACCESS:          0  HIT:          0  MISS:          0
cpu0_ITLB PREFETCH  ACCESS:          0  HIT:          0  MISS:          0
cpu0_ITLB WRITEBACK ACCESS:          0  HIT:          0  MISS:          0
cpu0_L1I TOTAL     ACCESS:     224497  HIT:     223886  MISS:        611
cpu0_L1I LOAD      ACCESS:     224497  HIT:     223886  MISS:        611
cpu0_L1I RFO       ACCESS:          0  HIT:          0  MISS:          0
cpu0_L1I PREFETCH  ACCESS:          0  HIT:          0  MISS:          0
cpu0_L1I WRITEBACK ACCESS:          0  HIT:          0  MISS:          0
cpu0_STLB TOTAL     ACCESS:      46363  HIT:      42830  MISS:       3533
cpu0_STLB LOAD      ACCESS:      38011  HIT:      34752  MISS:       3259
cpu0_STLB RFO       ACCESS:       8352  HIT:       8078  MISS:        274
cpu0_STLB PREFETCH  ACCESS:          0  HIT:          0  MISS:          0
cpu0_STLB WRITEBACK ACCESS:          0  HIT:          0  MISS:          0
cpu0_L1D TOTAL     ACCESS:    4070288  HIT:    3603444  MISS:     466844
cpu0_L1D LOAD      ACCESS:    3231042  HIT:    2815835  MISS:     415207
cpu0_L1D RFO       ACCESS:     835974  HIT:     785033  MISS:      50941
cpu0_L1D PREFETCH  ACCESS:          0  HIT:          0  MISS:          0
cpu0_L1D WRITEBACK ACCESS:          0  HIT:          0  MISS:          0
cpu0_L2C TOTAL     ACCESS:     589176  HIT:     286933  MISS:     302243
cpu0_L2C LOAD      ACCESS:     415797  HIT:     131572  MISS:     284225
cpu0_L2C RFO       ACCESS:      50932  HIT:      33019  MISS:      17913
cpu0_L2C PREFETCH  ACCESS:          0  HIT:          0  MISS:          0
cpu0_L2C WRITEBACK ACCESS:     121751  HIT:     121696  MISS:         55
LLC TOTAL     ACCESS:     372937  HIT:     115997  MISS:     256940
LLC LOAD      ACCESS:     284225  HIT:      45255  MISS:     238970
LLC RFO       ACCESS:      17913  HIT:        411  MISS:      17502
LLC PREFETCH  ACCESS:          0  HIT:          0  MISS:          0
LLC WRITEBACK ACCESS:      70749  HIT:      70299  MISS:        450
Heartbeat CPU 0 instructions: 68000002 cycles: 41503468 heartbeat IPC: 0.300507 cumulative IPC: 0.679229 (Simulation time: 0 hr 46 min 54 sec) 

Region of Interest Statistics
cpu0_DTLB TOTAL     ACCESS:    5078705  HIT:    5012906  MISS:      65799
cpu0_DTLB LOAD      ACCESS:    4464913  HIT:    4411666  MISS:      53247
cpu0_DTLB RFO       ACCESS:     613792  HIT:     601240  MISS:      12552
cpu0_DTLB PREFETCH  ACCESS:          0  HIT:          0  MISS:          0
cpu0_DTLB WRITEBACK ACCESS:          0  HIT:          0  MISS:          0
cpu0_ITLB TOTAL     ACCESS:     925238  HIT:     925219  MISS:         19
cpu0_ITLB LOAD      ACCESS:     925238  HIT:     925219  MISS:         19
cpu0_ITLB RFO       ACCESS:          0  HIT:          0  MISS:          0
cpu0_ITLB PREFETCH  ACCESS:          0  HIT:          0  MISS:          0
cpu0_ITLB WRITEBACK ACCESS:          0  HIT:          0  MISS:          0
cpu0_L1I TOTAL     ACCESS:     246481  HIT:     245599  MISS:        882
cpu0_L1I LOAD      ACCESS:     246481  HIT:     245599  MISS:        882
cpu0_L1I RFO       ACCESS:          0  HIT:          0  MISS:          0
cpu0_L1I PREFETCH  ACCESS:          0  HIT:          0  MISS:          0
cpu0_L1I WRITEBACK ACCESS:          0  HIT:          0  MISS:          0
cpu0_STLB TOTAL     ACCESS:      65818  HIT:      60728  MISS:       5090
cpu0_STLB LOAD      ACCESS:      53266  HIT:      48956  MISS:       4310
cpu0_STLB RFO       ACCESS:      12552  HIT:      11772  MISS:        780
cpu0_STLB PREFETCH  ACCESS:          0  HIT:          0  MISS:          0
cpu0_STLB WRITEBACK ACCESS:          0  HIT:          0  MISS:          0
cpu0_L1D TOTAL     ACCESS:    4495490  HIT:    3905833  MISS:     589657
cpu0_L1D LOAD      ACCESS:    3476660  HIT:    2971438  MISS:     505222
cpu0_L1D RFO       ACCESS:    1014320  HIT:     930633  MISS:      83687
cpu0_L1D PREFETCH  ACCESS:          0  HIT:          0  MISS:          0
cpu0_L1D WRITEBACK ACCESS:          0  HIT:          0  MISS:          0
cpu0_L2C TOTAL     ACCESS:     780677  HIT:     360965  MISS:     419712
cpu0_L2C LOAD      ACCESS:     506081  HIT:     136334  MISS:     369747
cpu0_L2C RFO       ACCESS:      83678  HIT:      33844  MISS:      49834
cpu0_L2C PREFETCH  ACCESS:          0  HIT:          0  MISS:          0
cpu0_L2C WRITEBACK ACCESS:     190170  HIT:     190104  MISS:         66
LLC TOTAL     ACCESS:     555967  HIT:     212694  MISS:     343273
LLC LOAD      ACCESS:     369747  HIT:      76648  MISS:     293099
LLC RFO       ACCESS:      49834  HIT:        426  MISS:      49408
LLC PREFETCH  ACCESS:          0  HIT:          0  MISS:          0
LLC WRITEBACK ACCESS:     136321  HIT:     135584  MISS:        737
Heartbeat CPU 0 instructions: 70000004 cycles: 47835479 heartbeat IPC: 0.315856 cumulative IPC: 0.60915 (Simulation time: 0 hr 50 min 23 sec) 

Region of Interest Statistics
cpu0_DTLB TOTAL     ACCESS:    5535525  HIT:    5467434  MISS:      68091
cpu0_DTLB LOAD      ACCESS:    4808187  HIT:    4752882  MISS:      55305
cpu0_DTLB RFO       ACCESS:     727338  HIT:     714552  MISS:      12786
cpu0_DTLB PREFETCH  ACCESS:          0  HIT:          0  MISS:          0
cpu0_DTLB WRITEBACK ACCESS:          0  HIT:          0  MISS:          0
cpu0_ITLB TOTAL     ACCESS:    1046008  HIT:    1045973  MISS:         35
cpu0_ITLB LOAD      ACCESS:    1046008  HIT:    1045973  MISS:         35
cpu0_ITLB RFO       ACCESS:          0  HIT:          0  MISS:          0
cpu0_ITLB PREFETCH  ACCESS:          0  HIT:          0  MISS:          0
cpu0_ITLB WRITEBACK ACCESS:          0  HIT:          0  MISS:          0
cpu0_L1I TOTAL     ACCESS:     263790  HIT:     262540  MISS:       1250
cpu0_L1I LOAD      ACCESS:     263790  HIT:     262540  MISS:       1250
cpu0_L1I RFO       ACCESS:          0  HIT:          0  MISS:          0
cpu0_L1I PREFETCH  ACCESS:          0  HIT:          0  MISS:          0
cpu0_L1I WRITEBACK ACCESS:          0  HIT:          0  MISS:          0
cpu0_STLB TOTAL     ACCESS:      68126  HIT:      62111  MISS:       6015
cpu0_STLB LOAD      ACCESS:      55340  HIT:      50313  MISS:       5027
cpu0_STLB RFO       ACCESS:      12786  HIT:      11798  MISS:        988
cpu0_STLB PREFETCH  ACCESS:          0  HIT:          0  MISS:          0
cpu0_STLB WRITEBACK ACCESS:          0  HIT:          0  MISS:          0
cpu0_L1D TOTAL     ACCESS:    4878478  HIT:    4197733  MISS:     680745
cpu0_L1D LOAD      ACCESS:    3722729  HIT:    3145812  MISS:     576917
cpu0_L1D RFO       ACCESS:    1150533  HIT:    1047499  MISS:     103034
cpu0_L1D PREFETCH  ACCESS:          0  HIT:          0  MISS:          0
cpu0_L1D WRITEBACK ACCESS:          0  HIT:          0  MISS:          0
cpu0_L2C TOTAL     ACCESS:     922390  HIT:     419891  MISS:     502499
cpu0_L2C LOAD      ACCESS:     578144  HIT:     141578  MISS:     436566
cpu0_L2C RFO       ACCESS:     103023  HIT:      37249  MISS:      65774
cpu0_L2C PREFETCH  ACCESS:          0  HIT:          0  MISS:          0
cpu0_L2C WRITEBACK ACCESS:     240429  HIT:     240357  MISS:         72
LLC TOTAL     ACCESS:     682161  HIT:     276145  MISS:     406016
LLC LOAD      ACCESS:     436566  HIT:      95540  MISS:     341026
LLC RFO       ACCESS:      65774  HIT:       1564  MISS:      64210
LLC PREFETCH  ACCESS:          0  HIT:          0  MISS:          0
LLC WRITEBACK ACCESS:     179734  HIT:     178993  MISS:        741
Heartbeat CPU 0 instructions: 72000001 cycles: 50106038 heartbeat IPC: 0.880839 cumulative IPC: 0.626724 (Simulation time: 0 hr 52 min 3 sec) 

Region of Interest Statistics
cpu0_DTLB TOTAL     ACCESS:    5916133  HIT:    5847447  MISS:      68686
cpu0_DTLB LOAD      ACCESS:    5151660  HIT:    5095771  MISS:      55889
cpu0_DTLB RFO       ACCESS:     764473  HIT:     751676  MISS:      12797
cpu0_DTLB PREFETCH  ACCESS:          0  HIT:          0  MISS:          0
cpu0_DTLB WRITEBACK ACCESS:          0  HIT:          0  MISS:          0
cpu0_ITLB TOTAL     ACCESS:    1143204  HIT:    1143169  MISS:         35
cpu0_ITLB LOAD      ACCESS:    1143204  HIT:    1143169  MISS:         35
cpu0_ITLB RFO       ACCESS:          0  HIT:          0  MISS:          0
cpu0_ITLB PREFETCH  ACCESS:          0  HIT:          0  MISS:          0
cpu0_ITLB WRITEBACK ACCESS:          0  HIT:          0  MISS:          0
cpu0_L1I TOTAL     ACCESS:     274062  HIT:     272812  MISS:       1250
cpu0_L1I LOAD      ACCESS:     274062  HIT:     272812  MISS:       1250
cpu0_L1I RFO       ACCESS:          0  HIT:          0  MISS:          0
cpu0_L1I PREFETCH  ACCESS:          0  HIT:          0  MISS:          0
cpu0_L1I WRITEBACK ACCESS:          0  HIT:          0  MISS:          0
cpu0_STLB TOTAL     ACCESS:      68721  HIT:      62395  MISS:       6326
cpu0_STLB LOAD      ACCESS:      55924  HIT:      50586  MISS:       5338
cpu0_STLB RFO       ACCESS:      12797  HIT:      11809  MISS:        988
cpu0_STLB PREFETCH  ACCESS:          0  HIT:          0  MISS:          0
cpu0_STLB WRITEBACK ACCESS:          0  HIT:          0  MISS:          0
cpu0_L1D TOTAL     ACCESS:    5225233  HIT:    4500917  MISS:     724316
cpu0_L1D LOAD      ACCESS:    4003582  HIT:    3388749  MISS:     614833
cpu0_L1D RFO       ACCESS:    1216197  HIT:    1107587  MISS:     108610
cpu0_L1D PREFETCH  ACCESS:          0  HIT:          0  MISS:          0
cpu0_L1D WRITEBACK ACCESS:          0  HIT:          0  MISS:          0
cpu0_L2C TOTAL     ACCESS:     979963  HIT:     445896  MISS:     534067
cpu0_L2C LOAD      ACCESS:     616060  HIT:     147931  MISS:     468129
cpu0_L2C RFO       ACCESS:     108599  HIT:      42825  MISS:      65774
cpu0_L2C PREFETCH  ACCESS:          0  HIT:          0  MISS:          0
cpu0_L2C WRITEBACK ACCESS:     254431  HIT:     254359  MISS:         72
LLC TOTAL     ACCESS:     717454  HIT:     287100  MISS:     430354
LLC LOAD      ACCESS:     468129  HIT:     102765  MISS:     365364
LLC RFO       ACCESS:      65774  HIT:       1564  MISS:      64210
LLC PREFETCH  ACCESS:          0  HIT:          0  MISS:          0
LLC WRITEBACK ACCESS:     183459  HIT:     182718  MISS:        741
Heartbeat CPU 0 instructions: 74000004 cycles: 53283254 heartbeat IPC: 0.629483 cumulative IPC: 0.626953 (Simulation time: 0 hr 54 min 8 sec) 

Region of Interest Statistics
cpu0_DTLB TOTAL     ACCESS:    6298698  HIT:    6229390  MISS:      69308
cpu0_DTLB LOAD      ACCESS:    5496819  HIT:    5440331  MISS:      56488
cpu0_DTLB RFO       ACCESS:     801879  HIT:     789059  MISS:      12820
cpu0_DTLB PREFETCH  ACCESS:          0  HIT:          0  MISS:          0
cpu0_DTLB WRITEBACK ACCESS:          0  HIT:          0  MISS:          0
cpu0_ITLB TOTAL     ACCESS:    1239728  HIT:    1239693  MISS:         35
cpu0_ITLB LOAD      ACCESS:    1239728  HIT:    1239693  MISS:         35
cpu0_ITLB RFO       ACCESS:          0  HIT:          0  MISS:          0
cpu0_ITLB PREFETCH  ACCESS:          0  HIT:          0  MISS:          0
cpu0_ITLB WRITEBACK ACCESS:          0  HIT:          0  MISS:          0
cpu0_L1I TOTAL     ACCESS:     284345  HIT:     283095  MISS:       1250
cpu0_L1I LOAD      ACCESS:     284345  HIT:     283095  MISS:       1250
cpu0_L1I RFO       ACCESS:          0  HIT:          0  MISS:          0
cpu0_L1I PREFETCH  ACCESS:          0  HIT:          0  MISS:          0
cpu0_L1I WRITEBACK ACCESS:          0  HIT:          0  MISS:          0
cpu0_STLB TOTAL     ACCESS:      69343  HIT:      62716  MISS:       6627
cpu0_STLB LOAD      ACCESS:      56523  HIT:      50884  MISS:       5639
cpu0_STLB RFO       ACCESS:      12820  HIT:      11832  MISS:        988
cpu0_STLB PREFETCH  ACCESS:          0  HIT:          0  MISS:          0
cpu0_STLB WRITEBACK ACCESS:          0  HIT:          0  MISS:          0
cpu0_L1D TOTAL     ACCESS:    5570124  HIT:    4801432  MISS:     768692
cpu0_L1D LOAD      ACCESS:    4282015  HIT:    3628433  MISS:     653582
cpu0_L1D RFO       ACCESS:    1282417  HIT:    1168261  MISS:     114156
cpu0_L1D PREFETCH  ACCESS:          0  HIT:          0  MISS:          0
cpu0_L1D WRITEBACK ACCESS:          0  HIT:          0  MISS:          0
cpu0_L2C TOTAL     ACCESS:    1038741  HIT:     472334  MISS:     566407
cpu0_L2C LOAD      ACCESS:     654809  HIT:     154347  MISS:     500462
cpu0_L2C RFO       ACCESS:     114144  HIT:      48368  MISS:      65776
cpu0_L2C PREFETCH  ACCESS:          0  HIT:          0  MISS:          0
cpu0_L2C WRITEBACK ACCESS:     268834  HIT:     268762  MISS:         72
LLC TOTAL     ACCESS:     753276  HIT:     294977  MISS:     458299
LLC LOAD      ACCESS:     500462  HIT:     107154  MISS:     393308
LLC RFO       ACCESS:      65776  HIT:       1566  MISS:      64210
LLC PREFETCH  ACCESS:          0  HIT:          0  MISS:          0
LLC WRITEBACK ACCESS:     186941  HIT:     186200  MISS:        741
Heartbeat CPU 0 instructions: 76000000 cycles: 56489031 heartbeat IPC: 0.623872 cumulative IPC: 0.626715 (Simulation time: 0 hr 56 min 27 sec) 

Region of Interest Statistics
cpu0_DTLB TOTAL     ACCESS:    6840542  HIT:    6770153  MISS:      70389
cpu0_DTLB LOAD      ACCESS:    5994036  HIT:    5936520  MISS:      57516
cpu0_DTLB RFO       ACCESS:     846506  HIT:     833633  MISS:      12873
cpu0_DTLB PREFETCH  ACCESS:          0  HIT:          0  MISS:          0
cpu0_DTLB WRITEBACK ACCESS:          0  HIT:          0  MISS:          0
cpu0_ITLB TOTAL     ACCESS:    1366542  HIT:    1366507  MISS:         35
cpu0_ITLB LOAD      ACCESS:    1366542  HIT:    1366507  MISS:         35
cpu0_ITLB RFO       ACCESS:          0  HIT:          0  MISS:          0
cpu0_ITLB PREFETCH  ACCESS:          0  HIT:          0  MISS:          0
cpu0_ITLB WRITEBACK ACCESS:          0  HIT:          0  MISS:          0
cpu0_L1I TOTAL     ACCESS:     315016  HIT:     313630  MISS:       1386
cpu0_L1I LOAD      ACCESS:     315016  HIT:     313630  MISS:       1386
cpu0_L1I RFO       ACCESS:          0  HIT:          0  MISS:          0
cpu0_L1I PREFETCH  ACCESS:          0  HIT:          0  MISS:          0
cpu0_L1I WRITEBACK ACCESS:          0  HIT:          0  MISS:          0
cpu0_STLB TOTAL     ACCESS:      70424  HIT:      63566  MISS:       6858
cpu0_STLB LOAD      ACCESS:      57551  HIT:      51681  MISS:       5870
cpu0_STLB RFO       ACCESS:      12873  HIT:      11885  MISS:        988
cpu0_STLB PREFETCH  ACCESS:          0  HIT:          0  MISS:          0
cpu0_STLB WRITEBACK ACCESS:          0  HIT:          0  MISS:          0
cpu0_L1D TOTAL     ACCESS:    6074104  HIT:    5224566  MISS:     849538
cpu0_L1D LOAD      ACCESS:    4693222  HIT:    3965833  MISS:     727389
cpu0_L1D RFO       ACCESS:    1375017  HIT:    1253893  MISS:     121124
cpu0_L1D PREFETCH  ACCESS:          0  HIT:          0  MISS:          0
cpu0_L1D WRITEBACK ACCESS:          0  HIT:          0  MISS:          0
cpu0_L2C TOTAL     ACCESS:    1138197  HIT:     533513  MISS:     604684
cpu0_L2C LOAD      ACCESS:     728751  HIT:     190025  MISS:     538726
cpu0_L2C RFO       ACCESS:     121109  HIT:      55330  MISS:      65779
cpu0_L2C PREFETCH  ACCESS:          0  HIT:          0  MISS:          0
cpu0_L2C WRITEBACK ACCESS:     287312  HIT:     287238  MISS:         74
LLC TOTAL     ACCESS:     795728  HIT:     304647  MISS:     491081
LLC LOAD      ACCESS:     538726  HIT:     112645  MISS:     426081
LLC RFO       ACCESS:      65779  HIT:       1568  MISS:      64211
LLC PREFETCH  ACCESS:          0  HIT:          0  MISS:          0
LLC WRITEBACK ACCESS:     191118  HIT:     190371  MISS:        747
Heartbeat CPU 0 instructions: 78000003 cycles: 59601090 heartbeat IPC: 0.642662 cumulative IPC: 0.627827 (Simulation time: 0 hr 58 min 54 sec) 

Region of Interest Statistics
cpu0_DTLB TOTAL     ACCESS:    7401832  HIT:    7330336  MISS:      71496
cpu0_DTLB LOAD      ACCESS:    6510043  HIT:    6451483  MISS:      58560
cpu0_DTLB RFO       ACCESS:     891789  HIT:     878853  MISS:      12936
cpu0_DTLB PREFETCH  ACCESS:          0  HIT:          0  MISS:          0
cpu0_DTLB WRITEBACK ACCESS:          0  HIT:          0  MISS:          0
cpu0_ITLB TOTAL     ACCESS:    1497482  HIT:    1497447  MISS:         35
cpu0_ITLB LOAD      ACCESS:    1497482  HIT:    1497447  MISS:         35
cpu0_ITLB RFO       ACCESS:          0  HIT:          0  MISS:          0
cpu0_ITLB PREFETCH  ACCESS:          0  HIT:          0  MISS:          0
cpu0_ITLB WRITEBACK ACCESS:          0  HIT:          0  MISS:          0
cpu0_L1I TOTAL     ACCESS:     347944  HIT:     346558  MISS:       1386
cpu0_L1I LOAD      ACCESS:     347944  HIT:     346558  MISS:       1386
cpu0_L1I RFO       ACCESS:          0  HIT:          0  MISS:          0
cpu0_L1I PREFETCH  ACCESS:          0  HIT:          0  MISS:          0
cpu0_L1I WRITEBACK ACCESS:          0  HIT:          0  MISS:          0
cpu0_STLB TOTAL     ACCESS:      71531  HIT:      64423  MISS:       7108
cpu0_STLB LOAD      ACCESS:      58595  HIT:      52475  MISS:       6120
cpu0_STLB RFO       ACCESS:      12936  HIT:      11948  MISS:        988
cpu0_STLB PREFETCH  ACCESS:          0  HIT:          0  MISS:          0
cpu0_STLB WRITEBACK ACCESS:          0  HIT:          0  MISS:          0
cpu0_L1D TOTAL     ACCESS:    6595808  HIT:    5660490  MISS:     935318
cpu0_L1D LOAD      ACCESS:    5118286  HIT:    4312290  MISS:     805996
cpu0_L1D RFO       ACCESS:    1471465  HIT:    1343250  MISS:     128215
cpu0_L1D PREFETCH  ACCESS:          0  HIT:          0  MISS:          0
cpu0_L1D WRITEBACK ACCESS:          0  HIT:          0  MISS:          0
cpu0_L2C TOTAL     ACCESS:    1243220  HIT:     600004  MISS:     643216
cpu0_L2C LOAD      ACCESS:     807358  HIT:     230115  MISS:     577243
cpu0_L2C RFO       ACCESS:     128198  HIT:      62411  MISS:      65787
cpu0_L2C PREFETCH  ACCESS:          0  HIT:          0  MISS:          0
cpu0_L2C WRITEBACK ACCESS:     306557  HIT:     306483  MISS:         74
LLC TOTAL     ACCESS:     838490  HIT:     313547  MISS:     524943
LLC LOAD      ACCESS:     577243  HIT:     117303  MISS:     459940
LLC RFO       ACCESS:      65787  HIT:       1576  MISS:      64211
LLC PREFETCH  ACCESS:          0  HIT:          0  MISS:          0
LLC WRITEBACK ACCESS:     195348  HIT:     194598  MISS:        750
Heartbeat CPU 0 instructions: 80000002 cycles: 62013101 heartbeat IPC: 0.829183 cumulative IPC: 0.638159 (Simulation time: 1 hr 0 min 57 sec) 

Region of Interest Statistics
cpu0_DTLB TOTAL     ACCESS:    8008039  HIT:    7919118  MISS:      88921
cpu0_DTLB LOAD      ACCESS:    7055662  HIT:    6984483  MISS:      71179
cpu0_DTLB RFO       ACCESS:     952377  HIT:     934635  MISS:      17742
cpu0_DTLB PREFETCH  ACCESS:          0  HIT:          0  MISS:          0
cpu0_DTLB WRITEBACK ACCESS:          0  HIT:          0  MISS:          0
cpu0_ITLB TOTAL     ACCESS:    1598018  HIT:    1597977  MISS:         41
cpu0_ITLB LOAD      ACCESS:    1598018  HIT:    1597977  MISS:         41
cpu0_ITLB RFO       ACCESS:          0  HIT:          0  MISS:          0
cpu0_ITLB PREFETCH  ACCESS:          0  HIT:          0  MISS:          0
cpu0_ITLB WRITEBACK ACCESS:          0  HIT:          0  MISS:          0
cpu0_L1I TOTAL     ACCESS:     371281  HIT:     369657  MISS:       1624
cpu0_L1I LOAD      ACCESS:     371281  HIT:     369657  MISS:       1624
cpu0_L1I RFO       ACCESS:          0  HIT:          0  MISS:          0
cpu0_L1I PREFETCH  ACCESS:          0  HIT:          0  MISS:          0
cpu0_L1I WRITEBACK ACCESS:          0  HIT:          0  MISS:          0
cpu0_STLB TOTAL     ACCESS:      88962  HIT:      81351  MISS:       7611
cpu0_STLB LOAD      ACCESS:      71220  HIT:      64652  MISS:       6568
cpu0_STLB RFO       ACCESS:      17742  HIT:      16699  MISS:       1043
cpu0_STLB PREFETCH  ACCESS:          0  HIT:          0  MISS:          0
cpu0_STLB WRITEBACK ACCESS:          0  HIT:          0  MISS:          0
cpu0_L1D TOTAL     ACCESS:    7136249  HIT:    6144023  MISS:     992226
cpu0_L1D LOAD      ACCESS:    5581435  HIT:    4725143  MISS:     856292
cpu0_L1D RFO       ACCESS:    1548363  HIT:    1413603  MISS:     134760
cpu0_L1D PREFETCH  ACCESS:          0  HIT:          0  MISS:          0
cpu0_L1D WRITEBACK ACCESS:          0  HIT:          0  MISS:          0
cpu0_L2C TOTAL     ACCESS:    1316551  HIT:     634382  MISS:     682169
cpu0_L2C LOAD      ACCESS:     857892  HIT:     245409  MISS:     612483
cpu0_L2C RFO       ACCESS:     134743  HIT:      65270  MISS:      69473
cpu0_L2C PREFETCH  ACCESS:          0  HIT:          0  MISS:          0
cpu0_L2C WRITEBACK ACCESS:     322742  HIT:     322657  MISS:         85
LLC TOTAL     ACCESS:     887535  HIT:     330806  MISS:     556729
LLC LOAD      ACCESS:     612483  HIT:     124532  MISS:     487951
LLC RFO       ACCESS:      69473  HIT:       1776  MISS:      67697
LLC PREFETCH  ACCESS:          0  HIT:          0  MISS:          0
LLC WRITEBACK ACCESS:     205451  HIT:     204420  MISS:       1031
Heartbeat CPU 0 instructions: 82000003 cycles: 63715804 heartbeat IPC: 1.1746 cumulative IPC: 0.656909 (Simulation time: 1 hr 2 min 34 sec) 

Region of Interest Statistics
cpu0_DTLB TOTAL     ACCESS:    8616507  HIT:    8527010  MISS:      89497
cpu0_DTLB LOAD      ACCESS:    7607366  HIT:    7535698  MISS:      71668
cpu0_DTLB RFO       ACCESS:    1009141  HIT:     991312  MISS:      17829
cpu0_DTLB PREFETCH  ACCESS:          0  HIT:          0  MISS:          0
cpu0_DTLB WRITEBACK ACCESS:          0  HIT:          0  MISS:          0
cpu0_ITLB TOTAL     ACCESS:    1689626  HIT:    1689585  MISS:         41
cpu0_ITLB LOAD      ACCESS:    1689626  HIT:    1689585  MISS:         41
cpu0_ITLB RFO       ACCESS:          0  HIT:          0  MISS:          0
cpu0_ITLB PREFETCH  ACCESS:          0  HIT:          0  MISS:          0
cpu0_ITLB WRITEBACK ACCESS:          0  HIT:          0  MISS:          0
cpu0_L1I TOTAL     ACCESS:     392909  HIT:     391285  MISS:       1624
cpu0_L1I LOAD      ACCESS:     392909  HIT:     391285  MISS:       1624
cpu0_L1I RFO       ACCESS:          0  HIT:          0  MISS:          0
cpu0_L1I PREFETCH  ACCESS:          0  HIT:          0  MISS:          0
cpu0_L1I WRITEBACK ACCESS:          0  HIT:          0  MISS:          0
cpu0_STLB TOTAL     ACCESS:      89538  HIT:      81651  MISS:       7887
cpu0_STLB LOAD      ACCESS:      71709  HIT:      64931  MISS:       6778
cpu0_STLB RFO       ACCESS:      17829  HIT:      16720  MISS:       1109
cpu0_STLB PREFETCH  ACCESS:          0  HIT:          0  MISS:          0
cpu0_STLB WRITEBACK ACCESS:          0  HIT:          0  MISS:          0
cpu0_L1D TOTAL     ACCESS:    7673777  HIT:    6643856  MISS:    1029921
cpu0_L1D LOAD      ACCESS:    6052528  HIT:    5165281  MISS:     887247
cpu0_L1D RFO       ACCESS:    1614522  HIT:    1473069  MISS:     141453
cpu0_L1D PREFETCH  ACCESS:          0  HIT:          0  MISS:          0
cpu0_L1D WRITEBACK ACCESS:          0  HIT:          0  MISS:          0
cpu0_L2C TOTAL     ACCESS:    1362168  HIT:     654446  MISS:     707722
cpu0_L2C LOAD      ACCESS:     888846  HIT:     255092  MISS:     633754
cpu0_L2C RFO       ACCESS:     141436  HIT:      67686  MISS:      73750
cpu0_L2C PREFETCH  ACCESS:          0  HIT:          0  MISS:          0
cpu0_L2C WRITEBACK ACCESS:     330665  HIT:     330580  MISS:         85
LLC TOTAL     ACCESS:     917590  HIT:     339112  MISS:     578478
LLC LOAD      ACCESS:     633754  HIT:     128262  MISS:     505492
LLC RFO       ACCESS:      73750  HIT:       1846  MISS:      71904
LLC PREFETCH  ACCESS:          0  HIT:          0  MISS:          0
LLC WRITEBACK ACCESS:     209953  HIT:     208922  MISS:       1031
Heartbeat CPU 0 instructions: 84000003 cycles: 66576314 heartbeat IPC: 0.699176 cumulative IPC: 0.659254 (Simulation time: 1 hr 4 min 52 sec) 

Region of Interest Statistics
cpu0_DTLB TOTAL     ACCESS:    9168442  HIT:    9077699  MISS:      90743
cpu0_DTLB LOAD      ACCESS:    8085576  HIT:    8012826  MISS:      72750
cpu0_DTLB RFO       ACCESS:    1082866  HIT:    1064873  MISS:      17993
cpu0_DTLB PREFETCH  ACCESS:          0  HIT:          0  MISS:          0
cpu0_DTLB WRITEBACK ACCESS:          0  HIT:          0  MISS:          0
cpu0_ITLB TOTAL     ACCESS:    1812517  HIT:    1812476  MISS:         41
cpu0_ITLB LOAD      ACCESS:    1812517  HIT:    1812476  MISS:         41
cpu0_ITLB RFO       ACCESS:          0  HIT:          0  MISS:          0
cpu0_ITLB PREFETCH  ACCESS:          0  HIT:          0  MISS:          0
cpu0_ITLB WRITEBACK ACCESS:          0  HIT:          0  MISS:          0
cpu0_L1I TOTAL     ACCESS:     419252  HIT:     417563  MISS:       1689
cpu0_L1I LOAD      ACCESS:     419252  HIT:     417563  MISS:       1689
cpu0_L1I RFO       ACCESS:          0  HIT:          0  MISS:          0
cpu0_L1I PREFETCH  ACCESS:          0  HIT:          0  MISS:          0
cpu0_L1I WRITEBACK ACCESS:          0  HIT:          0  MISS:          0
cpu0_STLB TOTAL     ACCESS:      90784  HIT:      82346  MISS:       8438
cpu0_STLB LOAD      ACCESS:      72791  HIT:      65614  MISS:       7177
cpu0_STLB RFO       ACCESS:      17993  HIT:      16732  MISS:       1261
cpu0_STLB PREFETCH  ACCESS:          0  HIT:          0  MISS:          0
cpu0_STLB WRITEBACK ACCESS:          0  HIT:          0  MISS:          0
cpu0_L1D TOTAL     ACCESS:    8133437  HIT:    7030403  MISS:    1103034
cpu0_L1D LOAD      ACCESS:    6416491  HIT:    5468016  MISS:     948475
cpu0_L1D RFO       ACCESS:    1709670  HIT:    1556369  MISS:     153301
cpu0_L1D PREFETCH  ACCESS:          0  HIT:          0  MISS:          0
cpu0_L1D WRITEBACK ACCESS:          0  HIT:          0  MISS:          0
cpu0_L2C TOTAL     ACCESS:    1461669  HIT:     699825  MISS:     761844
cpu0_L2C LOAD      ACCESS:     950134  HIT:     271716  MISS:     678418
cpu0_L2C RFO       ACCESS:     153283  HIT:      70092  MISS:      83191
cpu0_L2C PREFETCH  ACCESS:          0  HIT:          0  MISS:          0
cpu0_L2C WRITEBACK ACCESS:     356994  HIT:     356896  MISS:         98
LLC TOTAL     ACCESS:     993808  HIT:     370387  MISS:     623421
LLC LOAD      ACCESS:     678418  HIT:     137540  MISS:     540878
LLC RFO       ACCESS:      83191  HIT:       1858  MISS:      81333
LLC PREFETCH  ACCESS:          0  HIT:          0  MISS:          0
LLC WRITEBACK ACCESS:     232062  HIT:     230904  MISS:       1158
Heartbeat CPU 0 instructions: 86000002 cycles: 68671427 heartbeat IPC: 0.954602 cumulative IPC: 0.670784 (Simulation time: 1 hr 6 min 41 sec) 

Region of Interest Statistics
cpu0_DTLB TOTAL     ACCESS:    9714766  HIT:    9613181  MISS:     101585
cpu0_DTLB LOAD      ACCESS:    8580484  HIT:    8499302  MISS:      81182
cpu0_DTLB RFO       ACCESS:    1134282  HIT:    1113879  MISS:      20403
cpu0_DTLB PREFETCH  ACCESS:          0  HIT:          0  MISS:          0
cpu0_DTLB WRITEBACK ACCESS:          0  HIT:          0  MISS:          0
cpu0_ITLB TOTAL     ACCESS:    1917589  HIT:    1917544  MISS:         45
cpu0_ITLB LOAD      ACCESS:    1917589  HIT:    1917544  MISS:         45
cpu0_ITLB RFO       ACCESS:          0  HIT:          0  MISS:          0
cpu0_ITLB PREFETCH  ACCESS:          0  HIT:          0  MISS:          0
cpu0_ITLB WRITEBACK ACCESS:          0  HIT:          0  MISS:          0
cpu0_L1I TOTAL     ACCESS:     454192  HIT:     452188  MISS:       2004
cpu0_L1I LOAD      ACCESS:     454192  HIT:     452188  MISS:       2004
cpu0_L1I RFO       ACCESS:          0  HIT:          0  MISS:          0
cpu0_L1I PREFETCH  ACCESS:          0  HIT:          0  MISS:          0
cpu0_L1I WRITEBACK ACCESS:          0  HIT:          0  MISS:          0
cpu0_STLB TOTAL     ACCESS:     101630  HIT:      92873  MISS:       8757
cpu0_STLB LOAD      ACCESS:      81227  HIT:      73732  MISS:       7495
cpu0_STLB RFO       ACCESS:      20403  HIT:      19141  MISS:       1262
cpu0_STLB PREFETCH  ACCESS:          0  HIT:          0  MISS:          0
cpu0_STLB WRITEBACK ACCESS:          0  HIT:          0  MISS:          0
cpu0_L1D TOTAL     ACCESS:    8631155  HIT:    7458951  MISS:    1172204
cpu0_L1D LOAD      ACCESS:    6808232  HIT:    5795000  MISS:    1013232
cpu0_L1D RFO       ACCESS:    1815334  HIT:    1657699  MISS:     157635
cpu0_L1D PREFETCH  ACCESS:          0  HIT:          0  MISS:          0
cpu0_L1D WRITEBACK ACCESS:          0  HIT:          0  MISS:          0
cpu0_L2C TOTAL     ACCESS:    1548379  HIT:     742012  MISS:     806367
cpu0_L2C LOAD      ACCESS:    1015203  HIT:     292551  MISS:     722652
cpu0_L2C RFO       ACCESS:     157613  HIT:      74158  MISS:      83455
cpu0_L2C PREFETCH  ACCESS:          0  HIT:          0  MISS:          0
cpu0_L2C WRITEBACK ACCESS:     374226  HIT:     374115  MISS:        111
LLC TOTAL     ACCESS:    1048486  HIT:     399167  MISS:     649319
LLC LOAD      ACCESS:     722652  HIT:     156056  MISS:     566596
LLC RFO       ACCESS:      83455  HIT:       1979  MISS:      81476
LLC PREFETCH  ACCESS:          0  HIT:          0  MISS:          0
LLC WRITEBACK ACCESS:     242230  HIT:     241041  MISS:       1189
Heartbeat CPU 0 instructions: 88000004 cycles: 71174162 heartbeat IPC: 0.799127 cumulative IPC: 0.676502 (Simulation time: 1 hr 8 min 49 sec) 

Region of Interest Statistics
cpu0_DTLB TOTAL     ACCESS:   10273492  HIT:   10168021  MISS:     105471
cpu0_DTLB LOAD      ACCESS:    9081783  HIT:    8996919  MISS:      84864
cpu0_DTLB RFO       ACCESS:    1191709  HIT:    1171102  MISS:      20607
cpu0_DTLB PREFETCH  ACCESS:          0  HIT:          0  MISS:          0
cpu0_DTLB WRITEBACK ACCESS:          0  HIT:          0  MISS:          0
cpu0_ITLB TOTAL     ACCESS:    2008031  HIT:    2007986  MISS:         45
cpu0_ITLB LOAD      ACCESS:    2008031  HIT:    2007986  MISS:         45
cpu0_ITLB RFO       ACCESS:          0  HIT:          0  MISS:          0
cpu0_ITLB PREFETCH  ACCESS:          0  HIT:          0  MISS:          0
cpu0_ITLB WRITEBACK ACCESS:          0  HIT:          0  MISS:          0
cpu0_L1I TOTAL     ACCESS:     482655  HIT:     480651  MISS:       2004
cpu0_L1I LOAD      ACCESS:     482655  HIT:     480651  MISS:       2004
cpu0_L1I RFO       ACCESS:          0  HIT:          0  MISS:          0
cpu0_L1I PREFETCH  ACCESS:          0  HIT:          0  MISS:          0
cpu0_L1I WRITEBACK ACCESS:          0  HIT:          0  MISS:          0
cpu0_STLB TOTAL     ACCESS:     105516  HIT:      96343  MISS:       9173
cpu0_STLB LOAD      ACCESS:      84909  HIT:      76998  MISS:       7911
cpu0_STLB RFO       ACCESS:      20607  HIT:      19345  MISS:       1262
cpu0_STLB PREFETCH  ACCESS:          0  HIT:          0  MISS:          0
cpu0_STLB WRITEBACK ACCESS:          0  HIT:          0  MISS:          0
cpu0_L1D TOTAL     ACCESS:    9138698  HIT:    7915072  MISS:    1223626
cpu0_L1D LOAD      ACCESS:    7186196  HIT:    6126738  MISS:    1059458
cpu0_L1D RFO       ACCESS:    1944510  HIT:    1781780  MISS:     162730
cpu0_L1D PREFETCH  ACCESS:          0  HIT:          0  MISS:          0
cpu0_L1D WRITEBACK ACCESS:          0  HIT:          0  MISS:          0
cpu0_L2C TOTAL     ACCESS:    1612038  HIT:     771786  MISS:     840252
cpu0_L2C LOAD      ACCESS:    1061427  HIT:     304966  MISS:     756461
cpu0_L2C RFO       ACCESS:     162707  HIT:      79182  MISS:      83525
cpu0_L2C PREFETCH  ACCESS:          0  HIT:          0  MISS:          0
cpu0_L2C WRITEBACK ACCESS:     386466  HIT:     386350  MISS:        116
LLC TOTAL     ACCESS:    1088391  HIT:     408283  MISS:     680108
LLC LOAD      ACCESS:     756461  HIT:     159146  MISS:     597315
LLC RFO       ACCESS:      83525  HIT:       1979  MISS:      81546
LLC PREFETCH  ACCESS:          0  HIT:          0  MISS:          0
LLC WRITEBACK ACCESS:     248255  HIT:     247066  MISS:       1189
Heartbeat CPU 0 instructions: 90000001 cycles: 73905961 heartbeat IPC: 0.732117 cumulative IPC: 0.679081 (Simulation time: 1 hr 11 min 3 sec) 

Region of Interest Statistics
cpu0_DTLB TOTAL     ACCESS:   10834343  HIT:   10724750  MISS:     109593
cpu0_DTLB LOAD      ACCESS:    9585590  HIT:    9496817  MISS:      88773
cpu0_DTLB RFO       ACCESS:    1248753  HIT:    1227933  MISS:      20820
cpu0_DTLB PREFETCH  ACCESS:          0  HIT:          0  MISS:          0
cpu0_DTLB WRITEBACK ACCESS:          0  HIT:          0  MISS:          0
cpu0_ITLB TOTAL     ACCESS:    2098935  HIT:    2098890  MISS:         45
cpu0_ITLB LOAD      ACCESS:    2098935  HIT:    2098890  MISS:         45
cpu0_ITLB RFO       ACCESS:          0  HIT:          0  MISS:          0
cpu0_ITLB PREFETCH  ACCESS:          0  HIT:          0  MISS:          0
cpu0_ITLB WRITEBACK ACCESS:          0  HIT:          0  MISS:          0
cpu0_L1I TOTAL     ACCESS:     511955  HIT:     509951  MISS:       2004
cpu0_L1I LOAD      ACCESS:     511955  HIT:     509951  MISS:       2004
cpu0_L1I RFO       ACCESS:          0  HIT:          0  MISS:          0
cpu0_L1I PREFETCH  ACCESS:          0  HIT:          0  MISS:          0
cpu0_L1I WRITEBACK ACCESS:          0  HIT:          0  MISS:          0
cpu0_STLB TOTAL     ACCESS:     109638  HIT:      99936  MISS:       9702
cpu0_STLB LOAD      ACCESS:      88818  HIT:      80378  MISS:       8440
cpu0_STLB RFO       ACCESS:      20820  HIT:      19558  MISS:       1262
cpu0_STLB PREFETCH  ACCESS:          0  HIT:          0  MISS:          0
cpu0_STLB WRITEBACK ACCESS:          0  HIT:          0  MISS:          0
cpu0_L1D TOTAL     ACCESS:    9648777  HIT:    8373398  MISS:    1275379
cpu0_L1D LOAD      ACCESS:    7568021  HIT:    6461918  MISS:    1106103
cpu0_L1D RFO       ACCESS:    2072266  HIT:    1904559  MISS:     167707
cpu0_L1D PREFETCH  ACCESS:          0  HIT:          0  MISS:          0
cpu0_L1D WRITEBACK ACCESS:          0  HIT:          0  MISS:          0
cpu0_L2C TOTAL     ACCESS:    1676192  HIT:     801858  MISS:     874334
cpu0_L2C LOAD      ACCESS:    1108069  HIT:     317610  MISS:     790459
cpu0_L2C RFO       ACCESS:     167684  HIT:      84084  MISS:      83600
cpu0_L2C PREFETCH  ACCESS:          0  HIT:          0  MISS:          0
cpu0_L2C WRITEBACK ACCESS:     398870  HIT:     398746  MISS:        124
LLC TOTAL     ACCESS:    1128787  HIT:     415049  MISS:     713738
LLC LOAD      ACCESS:     790459  HIT:     159592  MISS:     630867
LLC RFO       ACCESS:      83600  HIT:       1979  MISS:      81621
LLC PREFETCH  ACCESS:          0  HIT:          0  MISS:          0
LLC WRITEBACK ACCESS:     254577  HIT:     253385  MISS:       1192
Heartbeat CPU 0 instructions: 92000002 cycles: 76498869 heartbeat IPC: 0.771335 cumulative IPC: 0.682971 (Simulation time: 1 hr 13 min 11 sec) 

Region of Interest Statistics
cpu0_DTLB TOTAL     ACCESS:   11392065  HIT:   11278610  MISS:     113455
cpu0_DTLB LOAD      ACCESS:   10086404  HIT:    9993964  MISS:      92440
cpu0_DTLB RFO       ACCESS:    1305661  HIT:    1284646  MISS:      21015
cpu0_DTLB PREFETCH  ACCESS:          0  HIT:          0  MISS:          0
cpu0_DTLB WRITEBACK ACCESS:          0  HIT:          0  MISS:          0
cpu0_ITLB TOTAL     ACCESS:    2188391  HIT:    2188346  MISS:         45
cpu0_ITLB LOAD      ACCESS:    2188391  HIT:    2188346  MISS:         45
cpu0_ITLB RFO       ACCESS:          0  HIT:          0  MISS:          0
cpu0_ITLB PREFETCH  ACCESS:          0  HIT:          0  MISS:          0
cpu0_ITLB WRITEBACK ACCESS:          0  HIT:          0  MISS:          0
cpu0_L1I TOTAL     ACCESS:     540346  HIT:     538342  MISS:       2004
cpu0_L1I LOAD      ACCESS:     540346  HIT:     538342  MISS:       2004
cpu0_L1I RFO       ACCESS:          0  HIT:          0  MISS:          0
cpu0_L1I PREFETCH  ACCESS:          0  HIT:          0  MISS:          0
cpu0_L1I WRITEBACK ACCESS:          0  HIT:          0  MISS:          0
cpu0_STLB TOTAL     ACCESS:     113500  HIT:     103236  MISS:      10264
cpu0_STLB LOAD      ACCESS:      92485  HIT:      83483  MISS:       9002
cpu0_STLB RFO       ACCESS:      21015  HIT:      19753  MISS:       1262
cpu0_STLB PREFETCH  ACCESS:          0  HIT:          0  MISS:          0
cpu0_STLB WRITEBACK ACCESS:          0  HIT:          0  MISS:          0
cpu0_L1D TOTAL     ACCESS:   10152104  HIT:    8825691  MISS:    1326413
cpu0_L1D LOAD      ACCESS:    7941634  HIT:    6789525  MISS:    1152109
cpu0_L1D RFO       ACCESS:    2201470  HIT:    2028860  MISS:     172610
cpu0_L1D PREFETCH  ACCESS:          0  HIT:          0  MISS:          0
cpu0_L1D WRITEBACK ACCESS:          0  HIT:          0  MISS:          0
cpu0_L2C TOTAL     ACCESS:    1739325  HIT:     831466  MISS:     907859
cpu0_L2C LOAD      ACCESS:    1154070  HIT:     330165  MISS:     823905
cpu0_L2C RFO       ACCESS:     172587  HIT:      88917  MISS:      83670
cpu0_L2C PREFETCH  ACCESS:          0  HIT:          0  MISS:          0
cpu0_L2C WRITEBACK ACCESS:     410974  HIT:     410844  MISS:        130
LLC TOTAL     ACCESS:    1168415  HIT:     421214  MISS:     747201
LLC LOAD      ACCESS:     823905  HIT:     159648  MISS:     664257
LLC RFO       ACCESS:      83670  HIT:       1979  MISS:      81691
LLC PREFETCH  ACCESS:          0  HIT:          0  MISS:          0
LLC WRITEBACK ACCESS:     260686  HIT:     259493  MISS:       1193
Heartbeat CPU 0 instructions: 94000004 cycles: 84451272 heartbeat IPC: 0.251497 cumulative IPC: 0.633564 (Simulation time: 1 hr 18 min 10 sec) 

Region of Interest Statistics
cpu0_DTLB TOTAL     ACCESS:   11987502  HIT:   11869184  MISS:     118318
cpu0_DTLB LOAD      ACCESS:   10575464  HIT:   10478351  MISS:      97113
cpu0_DTLB RFO       ACCESS:    1412038  HIT:    1390833  MISS:      21205
cpu0_DTLB PREFETCH  ACCESS:          0  HIT:          0  MISS:          0
cpu0_DTLB WRITEBACK ACCESS:          0  HIT:          0  MISS:          0
cpu0_ITLB TOTAL     ACCESS:    2284330  HIT:    2284285  MISS:         45
cpu0_ITLB LOAD      ACCESS:    2284330  HIT:    2284285  MISS:         45
cpu0_ITLB RFO       ACCESS:          0  HIT:          0  MISS:          0
cpu0_ITLB PREFETCH  ACCESS:          0  HIT:          0  MISS:          0
cpu0_ITLB WRITEBACK ACCESS:          0  HIT:          0  MISS:          0
cpu0_L1I TOTAL     ACCESS:     558700  HIT:     556585  MISS:       2115
cpu0_L1I LOAD      ACCESS:     558700  HIT:     556585  MISS:       2115
cpu0_L1I RFO       ACCESS:          0  HIT:          0  MISS:          0
cpu0_L1I PREFETCH  ACCESS:          0  HIT:          0  MISS:          0
cpu0_L1I WRITEBACK ACCESS:          0  HIT:          0  MISS:          0
cpu0_STLB TOTAL     ACCESS:     118363  HIT:     107015  MISS:      11348
cpu0_STLB LOAD      ACCESS:      97158  HIT:      87072  MISS:      10086
cpu0_STLB RFO       ACCESS:      21205  HIT:      19943  MISS:       1262
cpu0_STLB PREFETCH  ACCESS:          0  HIT:          0  MISS:          0
cpu0_STLB WRITEBACK ACCESS:          0  HIT:          0  MISS:          0
cpu0_L1D TOTAL     ACCESS:   10653694  HIT:    9237098  MISS:    1416596
cpu0_L1D LOAD      ACCESS:    8248615  HIT:    7008906  MISS:    1239709
cpu0_L1D RFO       ACCESS:    2395461  HIT:    2220349  MISS:     175112
cpu0_L1D PREFETCH  ACCESS:          0  HIT:          0  MISS:          0
cpu0_L1D WRITEBACK ACCESS:          0  HIT:          0  MISS:          0
cpu0_L2C TOTAL     ACCESS:    1867744  HIT:     879175  MISS:     988569
cpu0_L2C LOAD      ACCESS:    1241776  HIT:     337228  MISS:     904548
cpu0_L2C RFO       ACCESS:     175089  HIT:      91370  MISS:      83719
cpu0_L2C PREFETCH  ACCESS:          0  HIT:          0  MISS:          0
cpu0_L2C WRITEBACK ACCESS:     449104  HIT:     448968  MISS:        136
LLC TOTAL     ACCESS:    1282035  HIT:     462256  MISS:     819779
LLC LOAD      ACCESS:     904548  HIT:     168043  MISS:     736505
LLC RFO       ACCESS:      83719  HIT:       1990  MISS:      81729
LLC PREFETCH  ACCESS:          0  HIT:          0  MISS:          0
LLC WRITEBACK ACCESS:     293602  HIT:     292125  MISS:       1477
Heartbeat CPU 0 instructions: 96000002 cycles: 91368734 heartbeat IPC: 0.289123 cumulative IPC: 0.602363 (Simulation time: 1 hr 22 min 26 sec) 

Region of Interest Statistics
cpu0_DTLB TOTAL     ACCESS:   12561464  HIT:   12419488  MISS:     141976
cpu0_DTLB LOAD      ACCESS:   11053339  HIT:   10936764  MISS:     116575
cpu0_DTLB RFO       ACCESS:    1508125  HIT:    1482724  MISS:      25401
cpu0_DTLB PREFETCH  ACCESS:          0  HIT:          0  MISS:          0
cpu0_DTLB WRITEBACK ACCESS:          0  HIT:          0  MISS:          0
cpu0_ITLB TOTAL     ACCESS:    2382225  HIT:    2382177  MISS:         48
cpu0_ITLB LOAD      ACCESS:    2382225  HIT:    2382177  MISS:         48
cpu0_ITLB RFO       ACCESS:          0  HIT:          0  MISS:          0
cpu0_ITLB PREFETCH  ACCESS:          0  HIT:          0  MISS:          0
cpu0_ITLB WRITEBACK ACCESS:          0  HIT:          0  MISS:          0
cpu0_L1I TOTAL     ACCESS:     583211  HIT:     580881  MISS:       2330
cpu0_L1I LOAD      ACCESS:     583211  HIT:     580881  MISS:       2330
cpu0_L1I RFO       ACCESS:          0  HIT:          0  MISS:          0
cpu0_L1I PREFETCH  ACCESS:          0  HIT:          0  MISS:          0
cpu0_L1I WRITEBACK ACCESS:          0  HIT:          0  MISS:          0
cpu0_STLB TOTAL     ACCESS:     142024  HIT:     129319  MISS:      12705
cpu0_STLB LOAD      ACCESS:     116623  HIT:     105329  MISS:      11294
cpu0_STLB RFO       ACCESS:      25401  HIT:      23990  MISS:       1411
cpu0_STLB PREFETCH  ACCESS:          0  HIT:          0  MISS:          0
cpu0_STLB WRITEBACK ACCESS:          0  HIT:          0  MISS:          0
cpu0_L1D TOTAL     ACCESS:   11112430  HIT:    9602049  MISS:    1510381
cpu0_L1D LOAD      ACCESS:    8590770  HIT:    7266408  MISS:    1324362
cpu0_L1D RFO       ACCESS:    2511088  HIT:    2326878  MISS:     184210
cpu0_L1D PREFETCH  ACCESS:          0  HIT:          0  MISS:          0
cpu0_L1D WRITEBACK ACCESS:          0  HIT:          0  MISS:          0
cpu0_L2C TOTAL     ACCESS:    2000964  HIT:     920732  MISS:    1080232
cpu0_L2C LOAD      ACCESS:    1326644  HIT:     339540  MISS:     987104
cpu0_L2C RFO       ACCESS:     184187  HIT:      91382  MISS:      92805
cpu0_L2C PREFETCH  ACCESS:          0  HIT:          0  MISS:          0
cpu0_L2C WRITEBACK ACCESS:     488324  HIT:     488183  MISS:        141
LLC TOTAL     ACCESS:    1413329  HIT:     523611  MISS:     889718
LLC LOAD      ACCESS:     987104  HIT:     189750  MISS:     797354
LLC RFO       ACCESS:      92805  HIT:       1994  MISS:      90811
LLC PREFETCH  ACCESS:          0  HIT:          0  MISS:          0
LLC WRITEBACK ACCESS:     333238  HIT:     331757  MISS:       1481
Heartbeat CPU 0 instructions: 98000002 cycles: 97517013 heartbeat IPC: 0.325294 cumulative IPC: 0.581718 (Simulation time: 1 hr 27 min 4 sec) 

Region of Interest Statistics
cpu0_DTLB TOTAL     ACCESS:   13071114  HIT:   12926876  MISS:     144238
cpu0_DTLB LOAD      ACCESS:   11454639  HIT:   11335972  MISS:     118667
cpu0_DTLB RFO       ACCESS:    1616475  HIT:    1590904  MISS:      25571
cpu0_DTLB PREFETCH  ACCESS:          0  HIT:          0  MISS:          0
cpu0_DTLB WRITEBACK ACCESS:          0  HIT:          0  MISS:          0
cpu0_ITLB TOTAL     ACCESS:    2502037  HIT:    2501978  MISS:         59
cpu0_ITLB LOAD      ACCESS:    2502037  HIT:    2501978  MISS:         59
cpu0_ITLB RFO       ACCESS:          0  HIT:          0  MISS:          0
cpu0_ITLB PREFETCH  ACCESS:          0  HIT:          0  MISS:          0
cpu0_ITLB WRITEBACK ACCESS:          0  HIT:          0  MISS:          0
cpu0_L1I TOTAL     ACCESS:     593200  HIT:     590585  MISS:       2615
cpu0_L1I LOAD      ACCESS:     593200  HIT:     590585  MISS:       2615
cpu0_L1I RFO       ACCESS:          0  HIT:          0  MISS:          0
cpu0_L1I PREFETCH  ACCESS:          0  HIT:          0  MISS:          0
cpu0_L1I WRITEBACK ACCESS:          0  HIT:          0  MISS:          0
cpu0_STLB TOTAL     ACCESS:     144297  HIT:     130572  MISS:      13725
cpu0_STLB LOAD      ACCESS:     118726  HIT:     106559  MISS:      12167
cpu0_STLB RFO       ACCESS:      25571  HIT:      24013  MISS:       1558
cpu0_STLB PREFETCH  ACCESS:          0  HIT:          0  MISS:          0
cpu0_STLB WRITEBACK ACCESS:          0  HIT:          0  MISS:          0
cpu0_L1D TOTAL     ACCESS:   11533241  HIT:    9933817  MISS:    1599424
cpu0_L1D LOAD      ACCESS:    8852276  HIT:    7453226  MISS:    1399050
cpu0_L1D RFO       ACCESS:    2669596  HIT:    2471072  MISS:     198524
cpu0_L1D PREFETCH  ACCESS:          0  HIT:          0  MISS:          0
cpu0_L1D WRITEBACK ACCESS:          0  HIT:          0  MISS:          0
cpu0_L2C TOTAL     ACCESS:    2144241  HIT:     980421  MISS:    1163820
cpu0_L2C LOAD      ACCESS:    1401617  HIT:     343157  MISS:    1058460
cpu0_L2C RFO       ACCESS:     198501  HIT:      93491  MISS:     105010
cpu0_L2C PREFETCH  ACCESS:          0  HIT:          0  MISS:          0
cpu0_L2C WRITEBACK ACCESS:     542273  HIT:     542126  MISS:        147
LLC TOTAL     ACCESS:    1544253  HIT:     588581  MISS:     955672
LLC LOAD      ACCESS:    1058460  HIT:     206239  MISS:     852221
LLC RFO       ACCESS:     105010  HIT:       3127  MISS:     101883
LLC PREFETCH  ACCESS:          0  HIT:          0  MISS:          0
LLC WRITEBACK ACCESS:     380580  HIT:     379094  MISS:       1486
Heartbeat CPU 0 instructions: 100000001 cycles: 106624983 heartbeat IPC: 0.219588 cumulative IPC: 0.54572 (Simulation time: 1 hr 34 min 11 sec) 

Region of Interest Statistics
cpu0_DTLB TOTAL     ACCESS:   13737886  HIT:   13592000  MISS:     145886
cpu0_DTLB LOAD      ACCESS:   12001344  HIT:   11881297  MISS:     120047
cpu0_DTLB RFO       ACCESS:    1736542  HIT:    1710703  MISS:      25839
cpu0_DTLB PREFETCH  ACCESS:          0  HIT:          0  MISS:          0
cpu0_DTLB WRITEBACK ACCESS:          0  HIT:          0  MISS:          0
cpu0_ITLB TOTAL     ACCESS:    2627979  HIT:    2627907  MISS:         72
cpu0_ITLB LOAD      ACCESS:    2627979  HIT:    2627907  MISS:         72
cpu0_ITLB RFO       ACCESS:          0  HIT:          0  MISS:          0
cpu0_ITLB PREFETCH  ACCESS:          0  HIT:          0  MISS:          0
cpu0_ITLB WRITEBACK ACCESS:          0  HIT:          0  MISS:          0
cpu0_L1I TOTAL     ACCESS:     601197  HIT:     598427  MISS:       2770
cpu0_L1I LOAD      ACCESS:     601197  HIT:     598427  MISS:       2770
cpu0_L1I RFO       ACCESS:          0  HIT:          0  MISS:          0
cpu0_L1I PREFETCH  ACCESS:          0  HIT:          0  MISS:          0
cpu0_L1I WRITEBACK ACCESS:          0  HIT:          0  MISS:          0
cpu0_STLB TOTAL     ACCESS:     145958  HIT:     130702  MISS:      15256
cpu0_STLB LOAD      ACCESS:     120119  HIT:     106689  MISS:      13430
cpu0_STLB RFO       ACCESS:      25839  HIT:      24013  MISS:       1826
cpu0_STLB PREFETCH  ACCESS:          0  HIT:          0  MISS:          0
cpu0_STLB WRITEBACK ACCESS:          0  HIT:          0  MISS:          0
cpu0_L1D TOTAL     ACCESS:   12000888  HIT:   10299620  MISS:    1701268
cpu0_L1D LOAD      ACCESS:    9140254  HIT:    7656308  MISS:    1483946
cpu0_L1D RFO       ACCESS:    2848127  HIT:    2632688  MISS:     215439
cpu0_L1D PREFETCH  ACCESS:          0  HIT:          0  MISS:          0
cpu0_L1D WRITEBACK ACCESS:          0  HIT:          0  MISS:          0
cpu0_L2C TOTAL     ACCESS:    2304008  HIT:    1038258  MISS:    1265750
cpu0_L2C LOAD      ACCESS:    1486668  HIT:     343218  MISS:    1143450
cpu0_L2C RFO       ACCESS:     215416  HIT:      93491  MISS:     121925
cpu0_L2C PREFETCH  ACCESS:          0  HIT:          0  MISS:          0
cpu0_L2C WRITEBACK ACCESS:     600041  HIT:     599889  MISS:        152
LLC TOTAL     ACCESS:    1700103  HIT:     644730  MISS:    1055373
LLC LOAD      ACCESS:    1143450  HIT:     208455  MISS:     934995
LLC RFO       ACCESS:     121925  HIT:       3129  MISS:     118796
LLC PREFETCH  ACCESS:          0  HIT:          0  MISS:          0
LLC WRITEBACK ACCESS:     434505  HIT:     433014  MISS:       1491
Heartbeat CPU 0 instructions: 102000000 cycles: 108183782 heartbeat IPC: 1.28304 cumulative IPC: 0.558054 (Simulation time: 1 hr 35 min 57 sec) 

Region of Interest Statistics
cpu0_DTLB TOTAL     ACCESS:   14332232  HIT:   14186005  MISS:     146227
cpu0_DTLB LOAD      ACCESS:   12540604  HIT:   12420382  MISS:     120222
cpu0_DTLB RFO       ACCESS:    1791628  HIT:    1765623  MISS:      26005
cpu0_DTLB PREFETCH  ACCESS:          0  HIT:          0  MISS:          0
cpu0_DTLB WRITEBACK ACCESS:          0  HIT:          0  MISS:          0
cpu0_ITLB TOTAL     ACCESS:    2675715  HIT:    2675634  MISS:         81
cpu0_ITLB LOAD      ACCESS:    2675715  HIT:    2675634  MISS:         81
cpu0_ITLB RFO       ACCESS:          0  HIT:          0  MISS:          0
cpu0_ITLB PREFETCH  ACCESS:          0  HIT:          0  MISS:          0
cpu0_ITLB WRITEBACK ACCESS:          0  HIT:          0  MISS:          0
cpu0_L1I TOTAL     ACCESS:     606320  HIT:     603391  MISS:       2929
cpu0_L1I LOAD      ACCESS:     606320  HIT:     603391  MISS:       2929
cpu0_L1I RFO       ACCESS:          0  HIT:          0  MISS:          0
cpu0_L1I PREFETCH  ACCESS:          0  HIT:          0  MISS:          0
cpu0_L1I WRITEBACK ACCESS:          0  HIT:          0  MISS:          0
cpu0_STLB TOTAL     ACCESS:     146308  HIT:     130756  MISS:      15552
cpu0_STLB LOAD      ACCESS:     120303  HIT:     106743  MISS:      13560
cpu0_STLB RFO       ACCESS:      26005  HIT:      24013  MISS:       1992
cpu0_STLB PREFETCH  ACCESS:          0  HIT:          0  MISS:          0
cpu0_STLB WRITEBACK ACCESS:          0  HIT:          0  MISS:          0
cpu0_L1D TOTAL     ACCESS:   12512348  HIT:   10772381  MISS:    1739967
cpu0_L1D LOAD      ACCESS:    9590227  HIT:    8079040  MISS:    1511187
cpu0_L1D RFO       ACCESS:    2909319  HIT:    2682472  MISS:     226847
cpu0_L1D PREFETCH  ACCESS:          0  HIT:          0  MISS:          0
cpu0_L1D WRITEBACK ACCESS:          0  HIT:          0  MISS:          0
cpu0_L2C TOTAL     ACCESS:    2359170  HIT:    1073425  MISS:    1285745
cpu0_L2C LOAD      ACCESS:    1514047  HIT:     360901  MISS:    1153146
cpu0_L2C RFO       ACCESS:     226824  HIT:      94612  MISS:     132212
cpu0_L2C PREFETCH  ACCESS:          0  HIT:          0  MISS:          0
cpu0_L2C WRITEBACK ACCESS:     616366  HIT:     616211  MISS:        155
LLC TOTAL     ACCESS:    1738617  HIT:     666122  MISS:    1072495
LLC LOAD      ACCESS:    1153146  HIT:     211315  MISS:     941831
LLC RFO       ACCESS:     132212  HIT:       3133  MISS:     129079
LLC PREFETCH  ACCESS:          0  HIT:          0  MISS:          0
LLC WRITEBACK ACCESS:     453027  HIT:     451536  MISS:       1491
Heartbeat CPU 0 instructions: 104000002 cycles: 109187196 heartbeat IPC: 1.9932 cumulative IPC: 0.573344 (Simulation time: 1 hr 37 min 23 sec) 

Region of Interest Statistics
cpu0_DTLB TOTAL     ACCESS:   14941630  HIT:   14795251  MISS:     146379
cpu0_DTLB LOAD      ACCESS:   13112406  HIT:   12992032  MISS:     120374
cpu0_DTLB RFO       ACCESS:    1829224  HIT:    1803219  MISS:      26005
cpu0_DTLB PREFETCH  ACCESS:          0  HIT:          0  MISS:          0
cpu0_DTLB WRITEBACK ACCESS:          0  HIT:          0  MISS:          0
cpu0_ITLB TOTAL     ACCESS:    2712835  HIT:    2712754  MISS:         81
cpu0_ITLB LOAD      ACCESS:    2712835  HIT:    2712754  MISS:         81
cpu0_ITLB RFO       ACCESS:          0  HIT:          0  MISS:          0
cpu0_ITLB PREFETCH  ACCESS:          0  HIT:          0  MISS:          0
cpu0_ITLB WRITEBACK ACCESS:          0  HIT:          0  MISS:          0
cpu0_L1I TOTAL     ACCESS:     607024  HIT:     604095  MISS:       2929
cpu0_L1I LOAD      ACCESS:     607024  HIT:     604095  MISS:       2929
cpu0_L1I RFO       ACCESS:          0  HIT:          0  MISS:          0
cpu0_L1I PREFETCH  ACCESS:          0  HIT:          0  MISS:          0
cpu0_L1I WRITEBACK ACCESS:          0  HIT:          0  MISS:          0
cpu0_STLB TOTAL     ACCESS:     146460  HIT:     130808  MISS:      15652
cpu0_STLB LOAD      ACCESS:     120455  HIT:     106795  MISS:      13660
cpu0_STLB RFO       ACCESS:      26005  HIT:      24013  MISS:       1992
cpu0_STLB PREFETCH  ACCESS:          0  HIT:          0  MISS:          0
cpu0_STLB WRITEBACK ACCESS:          0  HIT:          0  MISS:          0
cpu0_L1D TOTAL     ACCESS:   13047796  HIT:   11277526  MISS:    1770270
cpu0_L1D LOAD      ACCESS:   10071791  HIT:    8531597  MISS:    1540194
cpu0_L1D RFO       ACCESS:    2963103  HIT:    2735003  MISS:     228100
cpu0_L1D PREFETCH  ACCESS:          0  HIT:          0  MISS:          0
cpu0_L1D WRITEBACK ACCESS:          0  HIT:          0  MISS:          0
cpu0_L2C TOTAL     ACCESS:    2395328  HIT:    1100224  MISS:    1295104
cpu0_L2C LOAD      ACCESS:    1543028  HIT:     380523  MISS:    1162505
cpu0_L2C RFO       ACCESS:     228077  HIT:      95865  MISS:     132212
cpu0_L2C PREFETCH  ACCESS:          0  HIT:          0  MISS:          0
cpu0_L2C WRITEBACK ACCESS:     622247  HIT:     622092  MISS:        155
LLC TOTAL     ACCESS:    1751143  HIT:     672413  MISS:    1078730
LLC LOAD      ACCESS:    1162505  HIT:     214439  MISS:     948066
LLC RFO       ACCESS:     132212  HIT:       3133  MISS:     129079
LLC PREFETCH  ACCESS:          0  HIT:          0  MISS:          0
LLC WRITEBACK ACCESS:     456194  HIT:     454703  MISS:       1491
Heartbeat CPU 0 instructions: 106000004 cycles: 110176048 heartbeat IPC: 2.02255 cumulative IPC: 0.588401 (Simulation time: 1 hr 38 min 46 sec) 

Region of Interest Statistics
cpu0_DTLB TOTAL     ACCESS:   15497286  HIT:   15350742  MISS:     146544
cpu0_DTLB LOAD      ACCESS:   13630047  HIT:   13509511  MISS:     120536
cpu0_DTLB RFO       ACCESS:    1867239  HIT:    1841231  MISS:      26008
cpu0_DTLB PREFETCH  ACCESS:          0  HIT:          0  MISS:          0
cpu0_DTLB WRITEBACK ACCESS:          0  HIT:          0  MISS:          0
cpu0_ITLB TOTAL     ACCESS:    2753441  HIT:    2753359  MISS:         82
cpu0_ITLB LOAD      ACCESS:    2753441  HIT:    2753359  MISS:         82
cpu0_ITLB RFO       ACCESS:          0  HIT:          0  MISS:          0
cpu0_ITLB PREFETCH  ACCESS:          0  HIT:          0  MISS:          0
cpu0_ITLB WRITEBACK ACCESS:          0  HIT:          0  MISS:          0
cpu0_L1I TOTAL     ACCESS:     607965  HIT:     604960  MISS:       3005
cpu0_L1I LOAD      ACCESS:     607965  HIT:     604960  MISS:       3005
cpu0_L1I RFO       ACCESS:          0  HIT:          0  MISS:          0
cpu0_L1I PREFETCH  ACCESS:          0  HIT:          0  MISS:          0
cpu0_L1I WRITEBACK ACCESS:          0  HIT:          0  MISS:          0
cpu0_STLB TOTAL     ACCESS:     146626  HIT:     130884  MISS:      15742
cpu0_STLB LOAD      ACCESS:     120618  HIT:     106869  MISS:      13749
cpu0_STLB RFO       ACCESS:      26008  HIT:      24015  MISS:       1993
cpu0_STLB PREFETCH  ACCESS:          0  HIT:          0  MISS:          0
cpu0_STLB WRITEBACK ACCESS:          0  HIT:          0  MISS:          0
cpu0_L1D TOTAL     ACCESS:   13528968  HIT:   11734410  MISS:    1794558
cpu0_L1D LOAD      ACCESS:   10498266  HIT:    8934790  MISS:    1563476
cpu0_L1D RFO       ACCESS:    3017710  HIT:    2788637  MISS:     229073
cpu0_L1D PREFETCH  ACCESS:          0  HIT:          0  MISS:          0
cpu0_L1D WRITEBACK ACCESS:          0  HIT:          0  MISS:          0
cpu0_L2C TOTAL     ACCESS:    2424955  HIT:    1120107  MISS:    1304848
cpu0_L2C LOAD      ACCESS:    1566357  HIT:     394239  MISS:    1172118
cpu0_L2C RFO       ACCESS:     229050  HIT:      96711  MISS:     132339
cpu0_L2C PREFETCH  ACCESS:          0  HIT:          0  MISS:          0
[...]
cpu0_DTLB LOAD      ACCESS:  270048960  HIT:  269414747  MISS:     634213
cpu0_DTLB RFO       ACCESS:   47189793  HIT:   47006942  MISS:     182851
cpu0_DTLB PREFETCH  ACCESS:          0  HIT:          0  MISS:          0
cpu0_DTLB WRITEBACK ACCESS:          0  HIT:          0  MISS:          0
cpu0_ITLB TOTAL     ACCESS:   66975161  HIT:   66974317  MISS:        844
cpu0_ITLB LOAD      ACCESS:   66975161  HIT:   66974317  MISS:        844
cpu0_ITLB RFO       ACCESS:          0  HIT:          0  MISS:          0
cpu0_ITLB PREFETCH  ACCESS:          0  HIT:          0  MISS:          0
cpu0_ITLB WRITEBACK ACCESS:          0  HIT:          0  MISS:          0
cpu0_L1I TOTAL     ACCESS:  106354683  HIT:  106286667  MISS:      68016
cpu0_L1I LOAD      ACCESS:  106354683  HIT:  106286667  MISS:      68016
cpu0_L1I RFO       ACCESS:          0  HIT:          0  MISS:          0
cpu0_L1I PREFETCH  ACCESS:          0  HIT:          0  MISS:          0
cpu0_L1I WRITEBACK ACCESS:          0  HIT:          0  MISS:          0
cpu0_STLB TOTAL     ACCESS:     817908  HIT:     713656  MISS:     104252
cpu0_STLB LOAD      ACCESS:     635057  HIT:     554312  MISS:      80745
cpu0_STLB RFO       ACCESS:     182851  HIT:     159344  MISS:      23507
cpu0_STLB PREFETCH  ACCESS:          0  HIT:          0  MISS:          0
cpu0_STLB WRITEBACK ACCESS:          0  HIT:          0  MISS:          0
cpu0_L1D TOTAL     ACCESS:  326089134  HIT:  311691250  MISS:   14397884
cpu0_L1D LOAD      ACCESS:  252819292  HIT:  241490510  MISS:   11328782
cpu0_L1D RFO       ACCESS:   73180402  HIT:   70122343  MISS:    3058059
cpu0_L1D PREFETCH  ACCESS:          0  HIT:          0  MISS:          0
cpu0_L1D WRITEBACK ACCESS:          0  HIT:          0  MISS:          0
cpu0_L2C TOTAL     ACCESS:   20091980  HIT:    9838834  MISS:   10253146
cpu0_L2C LOAD      ACCESS:   11396083  HIT:    3270861  MISS:    8125222
cpu0_L2C RFO       ACCESS:    3057968  HIT:     935810  MISS:    2122158
cpu0_L2C PREFETCH  ACCESS:          0  HIT:          0  MISS:          0
cpu0_L2C WRITEBACK ACCESS:    5626886  HIT:    5622825  MISS:       4061
LLC TOTAL     ACCESS:   14457834  HIT:    7241690  MISS:    7216144
LLC LOAD      ACCESS:    8125222  HIT:    2584045  MISS:    5541177
LLC RFO       ACCESS:    2122148  HIT:     453842  MISS:    1668306
LLC PREFETCH  ACCESS:          0  HIT:          0  MISS:          0
LLC WRITEBACK ACCESS:    4208759  HIT:    4202711  MISS:       6048
Heartbeat CPU 0 instructions: 1550000000 cycles: 1578079745 heartbeat IPC: 0.950363 cumulative IPC: 0.959646 (Simulation time: 14 hr 46 min 8 sec) 

Region of Interest Statistics
cpu0_DTLB TOTAL     ACCESS:  317550123  HIT:  316733027  MISS:     817096
cpu0_DTLB LOAD      ACCESS:  270331088  HIT:  269696859  MISS:     634229
cpu0_DTLB RFO       ACCESS:   47219035  HIT:   47036168  MISS:     182867
cpu0_DTLB PREFETCH  ACCESS:          0  HIT:          0  MISS:          0
cpu0_DTLB WRITEBACK ACCESS:          0  HIT:          0  MISS:          0
cpu0_ITLB TOTAL     ACCESS:   67079889  HIT:   67079045  MISS:        844
cpu0_ITLB LOAD      ACCESS:   67079889  HIT:   67079045  MISS:        844
cpu0_ITLB RFO       ACCESS:          0  HIT:          0  MISS:          0
cpu0_ITLB PREFETCH  ACCESS:          0  HIT:          0  MISS:          0
cpu0_ITLB WRITEBACK ACCESS:          0  HIT:          0  MISS:          0
cpu0_L1I TOTAL     ACCESS:  106626500  HIT:  106558484  MISS:      68016
cpu0_L1I LOAD      ACCESS:  106626500  HIT:  106558484  MISS:      68016
cpu0_L1I RFO       ACCESS:          0  HIT:          0  MISS:          0
cpu0_L1I PREFETCH  ACCESS:          0  HIT:          0  MISS:          0
cpu0_L1I WRITEBACK ACCESS:          0  HIT:          0  MISS:          0
cpu0_STLB TOTAL     ACCESS:     817940  HIT:     713688  MISS:     104252
cpu0_STLB LOAD      ACCESS:     635073  HIT:     554328  MISS:      80745
cpu0_STLB RFO       ACCESS:     182867  HIT:     159360  MISS:      23507
cpu0_STLB PREFETCH  ACCESS:          0  HIT:          0  MISS:          0
cpu0_STLB WRITEBACK ACCESS:          0  HIT:          0  MISS:          0
cpu0_L1D TOTAL     ACCESS:  326435317  HIT:  312037426  MISS:   14397891
cpu0_L1D LOAD      ACCESS:  253088610  HIT:  241759827  MISS:   11328783
cpu0_L1D RFO       ACCESS:   73257267  HIT:   70199202  MISS:    3058065
cpu0_L1D PREFETCH  ACCESS:          0  HIT:          0  MISS:          0
cpu0_L1D WRITEBACK ACCESS:          0  HIT:          0  MISS:          0
cpu0_L2C TOTAL     ACCESS:   20091992  HIT:    9838841  MISS:   10253151
cpu0_L2C LOAD      ACCESS:   11396084  HIT:    3270861  MISS:    8125223
cpu0_L2C RFO       ACCESS:    3057974  HIT:     935812  MISS:    2122162
cpu0_L2C PREFETCH  ACCESS:          0  HIT:          0  MISS:          0
cpu0_L2C WRITEBACK ACCESS:    5626891  HIT:    5622830  MISS:       4061
LLC TOTAL     ACCESS:   14457842  HIT:    7241694  MISS:    7216148
LLC LOAD      ACCESS:    8125223  HIT:    2584045  MISS:    5541178
LLC RFO       ACCESS:    2122152  HIT:     453843  MISS:    1668309
LLC PREFETCH  ACCESS:          0  HIT:          0  MISS:          0
LLC WRITEBACK ACCESS:    4208762  HIT:    4202714  MISS:       6048
Finished CPU 0 instructions: 1500000000 cycles: 1563076904 cumulative IPC: 0.959646 (Simulation time: 14 hr 46 min 8 sec) 

ChampSim completed all CPUs

Region of Interest Statistics

CPU 0 cumulative IPC: 0.959646 instructions: 1500000000 cycles: 1563076904
cpu0_DTLB TOTAL     ACCESS:  317550123  HIT:  316733027  MISS:     817096
cpu0_DTLB LOAD      ACCESS:  270331088  HIT:  269696859  MISS:     634229
cpu0_DTLB RFO       ACCESS:   47219035  HIT:   47036168  MISS:     182867
cpu0_DTLB PREFETCH  ACCESS:          0  HIT:          0  MISS:          0
cpu0_DTLB WRITEBACK ACCESS:          0  HIT:          0  MISS:          0
cpu0_DTLB TRANSLATION ACCESS:          0  HIT:          0  MISS:          0
cpu0_DTLB PREFETCH  REQUESTED:          0  ISSUED:          0  USEFUL:          0  USELESS:          0
cpu0_DTLB AVERAGE MISS LATENCY: 23.7227 cycles
cpu0_ITLB TOTAL     ACCESS:   67079890  HIT:   67079046  MISS:        844
cpu0_ITLB LOAD      ACCESS:   67079890  HIT:   67079046  MISS:        844
cpu0_ITLB RFO       ACCESS:          0  HIT:          0  MISS:          0
cpu0_ITLB PREFETCH  ACCESS:          0  HIT:          0  MISS:          0
cpu0_ITLB WRITEBACK ACCESS:          0  HIT:          0  MISS:          0
cpu0_ITLB TRANSLATION ACCESS:          0  HIT:          0  MISS:          0
cpu0_ITLB PREFETCH  REQUESTED:          0  ISSUED:          0  USEFUL:          0  USELESS:          0
cpu0_ITLB AVERAGE MISS LATENCY: 159.058 cycles
cpu0_L1I TOTAL     ACCESS:  106626502  HIT:  106558486  MISS:      68016
cpu0_L1I LOAD      ACCESS:  106626502  HIT:  106558486  MISS:      68016
cpu0_L1I RFO       ACCESS:          0  HIT:          0  MISS:          0
cpu0_L1I PREFETCH  ACCESS:          0  HIT:          0  MISS:          0
cpu0_L1I WRITEBACK ACCESS:          0  HIT:          0  MISS:          0
cpu0_L1I TRANSLATION ACCESS:          0  HIT:          0  MISS:          0
cpu0_L1I PREFETCH  REQUESTED:          0  ISSUED:          0  USEFUL:          0  USELESS:          0
cpu0_L1I AVERAGE MISS LATENCY: 145.703 cycles
cpu0_STLB TOTAL     ACCESS:     817940  HIT:     713688  MISS:     104252
cpu0_STLB LOAD      ACCESS:     635073  HIT:     554328  MISS:      80745
cpu0_STLB RFO       ACCESS:     182867  HIT:     159360  MISS:      23507
cpu0_STLB PREFETCH  ACCESS:          0  HIT:          0  MISS:          0
cpu0_STLB WRITEBACK ACCESS:          0  HIT:          0  MISS:          0
cpu0_STLB TRANSLATION ACCESS:          0  HIT:          0  MISS:          0
cpu0_STLB PREFETCH  REQUESTED:          0  ISSUED:          0  USEFUL:          0  USELESS:          0
cpu0_STLB AVERAGE MISS LATENCY: 115.894 cycles
cpu0_L1D TOTAL     ACCESS:  326435317  HIT:  312037426  MISS:   14397891
cpu0_L1D LOAD      ACCESS:  253088610  HIT:  241759827  MISS:   11328783
cpu0_L1D RFO       ACCESS:   73257267  HIT:   70199202  MISS:    3058065
cpu0_L1D PREFETCH  ACCESS:          0  HIT:          0  MISS:          0
cpu0_L1D WRITEBACK ACCESS:          0  HIT:          0  MISS:          0
cpu0_L1D TRANSLATION ACCESS:      89440  HIT:      78397  MISS:      11043
cpu0_L1D PREFETCH  REQUESTED:          0  ISSUED:          0  USEFUL:          0  USELESS:          0
cpu0_L1D AVERAGE MISS LATENCY: 340.719 cycles
cpu0_L2C TOTAL     ACCESS:   20091992  HIT:    9838841  MISS:   10253151
cpu0_L2C LOAD      ACCESS:   11396084  HIT:    3270861  MISS:    8125223
cpu0_L2C RFO       ACCESS:    3057974  HIT:     935812  MISS:    2122162
cpu0_L2C PREFETCH  ACCESS:          0  HIT:          0  MISS:          0
cpu0_L2C WRITEBACK ACCESS:    5626891  HIT:    5622830  MISS:       4061
cpu0_L2C TRANSLATION ACCESS:      11043  HIT:       9338  MISS:       1705
cpu0_L2C PREFETCH  REQUESTED:          0  ISSUED:          0  USEFUL:          0  USELESS:          0
cpu0_L2C AVERAGE MISS LATENCY: 463.665 cycles
LLC TOTAL     ACCESS:   14457842  HIT:    7241694  MISS:    7216148
LLC LOAD      ACCESS:    8125223  HIT:    2584045  MISS:    5541178
LLC RFO       ACCESS:    2122152  HIT:     453843  MISS:    1668309
LLC PREFETCH  ACCESS:          0  HIT:          0  MISS:          0
LLC WRITEBACK ACCESS:    4208762  HIT:    4202714  MISS:       6048
LLC TRANSLATION ACCESS:       1705  HIT:       1092  MISS:        613
LLC PREFETCH  REQUESTED:          0  ISSUED:          0  USEFUL:          0  USELESS:          0
LLC AVERAGE MISS LATENCY: 628.975 cycles
~~~~~~~~~~Reuse Distance Profiler output~~~~~~~~~~
0	0	0
1	0	0
2	0	0
3	0	0
4	0	0
5	0	0
6	0	0
7	0	0
8	0	0
9	0	0
10	0	0
11	0	0
12	0	0
13	0	0
14	0	0
15	0	0
16	0	0
17	0	0
18	0	0
19	0	0
20	0	0
21	0	0
22	0	0
23	0	0
24	0	0
25	0	0
26	0	0
27	0	0
28	0	0
29	0	0
30	0	0
31	0	0
32	0	0
33	0	0
34	0	0
35	0	0
36	0	0
37	0	0
38	0	0
39	0	0
40	0	0
41	0	0
42	0	0
43	0	0
44	0	0
45	0	0
46	0	0
47	0	0
48	0	0
49	0	0
50	0	0
51	0	0
52	0	0
53	0	0
54	0	0
55	0	0
56	0	0
57	0	0
58	0	0
59	0	0
60	0	0
61	0	0
62	0	0
63	0	0
64	0	0
66	0	0
68	0	0
70	0	0
72	0	0
74	0	0
76	0	0
78	0	0
80	0	0
82	0	0
84	0	0
86	0	0
88	0	0
90	0	0
92	0	0
94	0	0
96	0	0
98	0	0
100	0	0
102	0	0
104	0	0
106	0	0
108	0	0
110	0	0
112	0	0
114	0	0
116	0	0
118	0	0
120	0	0
122	0	0
124	0	0
126	0	0
128	0	0
132	0	0
136	0	0
140	0	0
144	0	0
148	0	0
152	0	0
156	0	0
160	0	0
164	0	0
168	0	0
172	0	0
176	0	0
180	0	0
184	0	0
188	0	0
192	0	0
196	0	0
200	0	0
204	0	0
208	0	0
212	0	0
216	0	0
220	0	0
224	0	0
228	0	0
232	0	0
236	0	0
240	0	0
244	0	0
248	0	0
252	0	0
256	0	0
264	0	0
272	0	0
280	0	0
288	0	0
296	0	0
304	0	0
312	0	0
320	0	0
328	0	0
336	0	0
344	0	0
352	0	0
360	0	0
368	0	0
376	0	0
384	0	0
392	0	0
400	0	0
408	0	0
416	0	0
424	0	0
432	0	0
440	0	0
448	0	0
456	0	0
464	0	0
472	0	0
480	0	0
488	0	0
496	0	0
504	0	0
512	0	0
528	0	0
544	0	0
560	0	0
576	0	0
592	0	0
608	0	0
624	0	0
640	0	0
656	0	0
672	0	0
688	0	0
704	0	0
720	0	0
736	0	0
752	0	0
768	0	0
784	0	0
800	0	0
816	0	0
832	0	0
848	0	0
864	0	0
880	0	0
896	0	0
912	0	0
928	0	0
944	0	0
960	0	0
976	0	0
992	0	0
1008	0	0
1024	0	0
1056	0	0
1088	0	0
1120	0	0
1152	0	0
1184	0	0
1216	0	0
1248	0	0
1280	0	0
1312	0	0
1344	0	0
1376	0	0
1408	0	0
1440	0	0
1472	0	0
1504	0	0
1536	0	0
1568	0	0
1600	0	0
1632	0	0
1664	0	0
1696	0	0
1728	0	0
1760	0	0
1792	0	0
1824	0	0
1856	0	0
1888	0	0
1920	0	0
1952	0	0
1984	0	0
2016	0	0
2048	0	0
2112	0	0
2176	0	0
2240	0	0
2304	0	0
2368	0	0
2432	0	0
2496	0	0
2560	0	0
2624	0	0
2688	0	0
2752	0	0
2816	0	0
2880	0	0
2944	0	0
3008	0	0
3072	0	0
3136	0	0
3200	0	0
3264	0	0
3328	0	0
3392	0	0
3456	0	0
3520	0	0
3584	0	0
3648	0	0
3712	0	0
3776	0	0
3840	0	0
3904	0	0
3968	0	0
4032	0	0
4096	0	0
4224	0	0
4352	0	0
4480	0	0
4608	0	0
4736	0	0
4864	0	0
4992	0	0
5120	0	0
5248	0	0
5376	0	0
5504	0	0
5632	0	0
5760	0	0
5888	0	0
6016	0	0
6144	0	0
6272	0	0
6400	0	0
6528	0	0
6656	0	0
6784	0	0
6912	0	0
7040	0	0
7168	0	0
7296	0	0
7424	0	0
7552	0	0
7680	0	0
7808	0	0
7936	0	0
8064	0	0
8192	0	0
8448	0	0
8704	0	0
8960	0	0
9216	0	0
9472	0	0
9728	0	0
9984	0	0
10240	0	0
10496	0	0
10752	0	0
11008	0	0
11264	0	0
11520	0	0
11776	0	0
12032	0	0
12288	0	0
12544	0	0
12800	0	0
13056	0	0
13312	0	0
13568	0	0
13824	0	0
14080	0	0
14336	0	0
14592	0	0
14848	0	0
15104	0	0
15360	0	0
15616	0	0
15872	0	0
16128	0	0
16384	0	0
16896	0	0
17408	0	0
17920	0	0
18432	0	0
18944	0	0
19456	0	0
19968	0	0
20480	0	0
20992	0	0
21504	0	0
22016	0	0
22528	0	0
23040	0	0
23552	0	0
24064	0	0
24576	0	0
25088	0	0
25600	0	0
26112	0	0
26624	0	0
27136	0	0
27648	0	0
28160	0	0
28672	0	0
29184	0	0
29696	0	0
30208	0	0
30720	0	0
31232	0	0
31744	0	0
32256	0	0
32768	0	0
33792	0	0
34816	0	0
35840	0	0
36864	0	0
37888	0	0
38912	0	0
39936	0	0
40960	0	0
41984	0	0
43008	0	0
44032	0	0
45056	0	0
46080	0	0
47104	0	0
48128	0	0
49152	0	0
50176	0	0
51200	0	0
52224	0	0
53248	0	0
54272	0	0
55296	0	0
56320	0	0
57344	0	0
58368	0	0
59392	0	0
60416	0	0
61440	0	0
62464	0	0
63488	0	0
64512	0	0
65536	0	0
67584	0	0
69632	0	0
71680	0	0
73728	0	0
75776	0	0
77824	0	0
79872	0	0
81920	0	0
83968	0	0
86016	0	0
88064	0	0
90112	0	0
92160	0	0
94208	0	0
96256	0	0
98304	0	0
100352	0	0
102400	0	0
104448	0	0
106496	0	0
108544	0	0
110592	0	0
112640	0	0
114688	0	0
116736	0	0
118784	0	0
120832	0	0
122880	0	0
124928	0	0
126976	0	0
129024	0	0
131072	0	0
135168	0	0
139264	0	0
143360	0	0
147456	0	0
151552	0	0
155648	0	0
159744	0	0
163840	0	0
167936	0	0
172032	0	0
176128	0	0
180224	0	0
184320	0	0
188416	0	0
192512	0	0
196608	0	0
200704	0	0
204800	0	0
208896	0	0
212992	0	0
217088	0	0
221184	0	0
225280	0	0
229376	0	0
233472	0	0
237568	0	0
241664	0	0
245760	0	0
249856	0	0
253952	0	0
258048	0	0
262144	0	0
270336	0	0
278528	0	0
286720	0	0
294912	0	0
303104	0	0
311296	0	0
319488	0	0
327680	0	0
335872	0	0
344064	0	0
352256	0	0
360448	0	0
368640	0	0
376832	0	0
385024	0	0
393216	0	0
401408	0	0
409600	0	0
417792	0	0
425984	0	0
434176	0	0
442368	0	0
450560	0	0
458752	0	0
466944	0	0
475136	0	0
483328	0	0
491520	0	0
499712	0	0
507904	0	0
516096	0	0
524288	0	0
540672	0	0
557056	0	0
573440	0	0
589824	0	0
606208	0	0
622592	0	0
638976	0	0
655360	0	0
671744	0	0
688128	0	0
704512	0	0
720896	0	0
737280	0	0
753664	0	0
770048	0	0
786432	0	0
802816	0	0
819200	0	0
835584	0	0
851968	0	0
868352	0	0
884736	0	0
901120	0	0
917504	0	0
933888	0	0
950272	0	0
966656	0	0
983040	0	0
999424	0	0
1015808	0	0
1032192	0	0
1048576	0	0
1081344	0	0
1114112	0	0
1146880	0	0
1179648	0	0
1212416	0	0
1245184	0	0
1277952	0	0
1310720	0	0
1343488	0	0
1376256	0	0
1409024	0	0
1441792	0	0
1474560	0	0
1507328	0	0
1540096	0	0
1572864	0	0
1605632	0	0
1638400	0	0
1671168	0	0
1703936	0	0
1736704	0	0
1769472	0	0
1802240	0	0
1835008	0	0
1867776	0	0
1900544	0	0
1933312	0	0
1966080	0	0
1998848	0	0
2031616	0	0
2064384	0	0
2097152	0	0
2162688	0	0
2228224	0	0
2293760	0	0
2359296	0	0
2424832	0	0
2490368	0	0
2555904	0	0
2621440	0	0
2686976	0	0
2752512	0	0
2818048	0	0
2883584	0	0
2949120	0	0
3014656	0	0
3080192	0	0
3145728	0	0
3211264	0	0
3276800	0	0
3342336	0	0
3407872	0	0
3473408	0	0
3538944	0	0
3604480	0	0
3670016	0	0
3735552	0	0
3801088	0	0
3866624	0	0
3932160	0	0
3997696	0	0
4063232	0	0
4128768	0	0
4194304	0	0
4325376	0	0
4456448	0	0
4587520	0	0
4718592	0	0
4849664	0	0
4980736	0	0
5111808	0	0
5242880	0	0
5373952	0	0
5505024	0	0
5636096	0	0
5767168	0	0
5898240	0	0
6029312	0	0
6160384	0	0
6291456	0	0
6422528	0	0
6553600	0	0
6684672	0	0
6815744	0	0
6946816	0	0
7077888	0	0
7208960	0	0
7340032	0	0
7471104	0	0
7602176	0	0
7733248	0	0
7864320	0	0
7995392	0	0
8126464	0	0
8257536	0	0
8388608	0	0
8650752	0	0
8912896	0	0
9175040	0	0
9437184	0	0
9699328	0	0
9961472	0	0
10223616	0	0
10485760	0	0
10747904	0	0
11010048	0	0
11272192	0	0
11534336	0	0
11796480	0	0
12058624	0	0
12320768	0	0
12582912	0	0
12845056	0	0
13107200	0	0
13369344	0	0
13631488	0	0
13893632	0	0
14155776	0	0
14417920	0	0
14680064	0	0
14942208	0	0
15204352	0	0
15466496	0	0
15728640	0	0
15990784	0	0
16252928	0	0
16515072	0	0
16777216	0	0
17301504	0	0
17825792	0	0
18350080	0	0
18874368	0	0
19398656	0	0
19922944	0	0
20447232	0	0
20971520	0	0
21495808	0	0
22020096	0	0
22544384	0	0
23068672	0	0
23592960	0	0
24117248	0	0
24641536	0	0
25165824	0	0
25690112	0	0
26214400	0	0
26738688	0	0
27262976	0	0
27787264	0	0
28311552	0	0
28835840	0	0
29360128	0	0
29884416	0	0
30408704	0	0
30932992	0	0
31457280	0	0
31981568	0	0
32505856	0	0
33030144	0	0
33554432	0	0
34603008	0	0
35651584	0	0
36700160	0	0
37748736	0	0
38797312	0	0
39845888	0	0
40894464	0	0
41943040	0	0
42991616	0	0
44040192	0	0
45088768	0	0
46137344	0	0
47185920	0	0
48234496	0	0
49283072	0	0
50331648	0	0
51380224	0	0
52428800	0	0
53477376	0	0
54525952	0	0
55574528	0	0
56623104	0	0
57671680	0	0
58720256	0	0
59768832	0	0
60817408	0	0
61865984	0	0
62914560	0	0
63963136	0	0
65011712	0	0
66060288	0	0
67108864	0	0
69206016	0	0
71303168	0	0
73400320	0	0
75497472	0	0
77594624	0	0
79691776	0	0
81788928	0	0
83886080	0	0
85983232	0	0
88080384	0	0
90177536	0	0
92274688	0	0
94371840	0	0
96468992	0	0
98566144	0	0
100663296	0	0
102760448	0	0
104857600	0	0
106954752	0	0
109051904	0	0
111149056	0	0
113246208	0	0
115343360	0	0
117440512	0	0
119537664	0	0
121634816	0	0
123731968	0	0
125829120	0	0
127926272	0	0
130023424	0	0
132120576	0	0
134217728	0	0
138412032	0	0
142606336	0	0
146800640	0	0
150994944	0	0
155189248	0	0
159383552	0	0
163577856	0	0
167772160	0	0
171966464	0	0
176160768	0	0
180355072	0	0
184549376	0	0
188743680	0	0
192937984	0	0
197132288	0	0
201326592	0	0
205520896	0	0
209715200	0	0
213909504	0	0
218103808	0	0
222298112	0	0
226492416	0	0
230686720	0	0
234881024	0	0
239075328	0	0
243269632	0	0
247463936	0	0
251658240	0	0
255852544	0	0
260046848	0	0
264241152	0	0
268435456	0	0
276824064	0	0
285212672	0	0
293601280	0	0
301989888	0	0
310378496	0	0
318767104	0	0
327155712	0	0
335544320	0	0
343932928	0	0
352321536	0	0
360710144	0	0
369098752	0	0
377487360	0	0
385875968	0	0
394264576	0	0
402653184	0	0
411041792	0	0
419430400	0	0
427819008	0	0
436207616	0	0
444596224	0	0
452984832	0	0
461373440	0	0
469762048	0	0
478150656	0	0
486539264	0	0
494927872	0	0
503316480	0	0
511705088	0	0
520093696	0	0
528482304	0	0
536870912	0	0
553648128	0	0
570425344	0	0
587202560	0	0
603979776	0	0
620756992	0	0
637534208	0	0
654311424	0	0
671088640	0	0
687865856	0	0
704643072	0	0
721420288	0	0
738197504	0	0
754974720	0	0
771751936	0	0
788529152	0	0
805306368	0	0
822083584	0	0
838860800	0	0
855638016	0	0
872415232	0	0
889192448	0	0
905969664	0	0
922746880	0	0
939524096	0	0
956301312	0	0
973078528	0	0
989855744	0	0
1006632960	0	0
1023410176	0	0
1040187392	0	0
1056964608	0	0
1073741824	0	0
1107296256	0	0
1140850688	0	0
1174405120	0	0
1207959552	0	0
1241513984	0	0
1275068416	0	0
1308622848	0	0
1342177280	0	0
1375731712	0	0
1409286144	0	0
1442840576	0	0
1476395008	0	0
1509949440	0	0
1543503872	0	0
1577058304	0	0
1610612736	0	0
1644167168	0	0
1677721600	0	0
1711276032	0	0
1744830464	0	0
1778384896	0	0
1811939328	0	0
1845493760	0	0
1879048192	0	0
1912602624	0	0
1946157056	0	0
1979711488	0	0
2013265920	0	0
2046820352	0	0
2080374784	0	0
2113929216	0	0
2147483648	0	0
2214592512	0	0
2281701376	0	0
2348810240	0	0
2415919104	0	0
2483027968	0	0
2550136832	0	0
2617245696	0	0
2684354560	0	0
2751463424	0	0
2818572288	0	0
2885681152	0	0
2952790016	0	0
3019898880	0	0
3087007744	0	0
3154116608	0	0
3221225472	0	0
3288334336	0	0
3355443200	0	0
3422552064	0	0
3489660928	0	0
3556769792	0	0
3623878656	0	0
3690987520	0	0
3758096384	0	0
3825205248	0	0
3892314112	0	0
3959422976	0	0
4026531840	0	0
4093640704	0	0
4160749568	0	0
4227858432	0	0
~~~~~~~~~~Reuse Distance Profiler output end~~~~~~~~~~


DRAM Statistics
 CHANNEL 0
 RQ ROW_BUFFER_HIT:     830700  ROW_BUFFER_MISS:    6376742
 DBUS AVG_CONGESTED_CYCLE:    3.95868
 WQ ROW_BUFFER_HIT:     272857  ROW_BUFFER_MISS:    2777321  FULL:        527


CPU 0 Branch Prediction Accuracy: 95.2529% MPKI: 4.46789 Average ROB Occupancy at Mispredict: 138.967
Branch type MPKI
BRANCH_DIRECT_JUMP: 0.000275333
BRANCH_INDIRECT: 9.06667e-05
BRANCH_CONDITIONAL: 4.46504
BRANCH_DIRECT_CALL: 0.00193333
BRANCH_INDIRECT_CALL: 2.66667e-06
BRANCH_RETURN: 0.000548667

