
*** ChampSim Multicore Out-of-Order Simulator ***

Warmup Instructions: 50000000
Simulation Instructions: 1500000000
Number of CPUs: 1
Off-chip DRAM Size: 4 GiB Channels: 1 Width: 64-bit Data Rate: 3200 MT/s

VirtualMemory physical capacity: 8588881920 num_ppages: 2096895
VirtualMemory page size: 4096 log2_page_size: 12

CPU 0 runs traces/649.fotonik3d_s-7084B.champsimtrace.xz
CPU 0 Bimodal branch predictor
Basic BTB sets: 1024 ways: 8 indirect buffer size: 4096 RAS size: 64
Initializing LRU.
Initializing LRU.
Initializing LRU.
Initializing LRU.
Initializing rdLRU.
Initializing LRU.
Initializing LRU.
Heartbeat CPU 0 instructions: 2000000 cycles: 651456 heartbeat IPC: 3.07005 cumulative IPC: 3.07005 (Simulation time: 0 hr 1 min 9 sec) 
Heartbeat CPU 0 instructions: 4000003 cycles: 1302777 heartbeat IPC: 3.07069 cumulative IPC: 3.07037 (Simulation time: 0 hr 2 min 17 sec) 
Heartbeat CPU 0 instructions: 6000004 cycles: 1954100 heartbeat IPC: 3.07067 cumulative IPC: 3.07047 (Simulation time: 0 hr 3 min 24 sec) 
Heartbeat CPU 0 instructions: 8000000 cycles: 2605434 heartbeat IPC: 3.07062 cumulative IPC: 3.07051 (Simulation time: 0 hr 4 min 32 sec) 
Heartbeat CPU 0 instructions: 10000004 cycles: 3256752 heartbeat IPC: 3.0707 cumulative IPC: 3.07055 (Simulation time: 0 hr 5 min 39 sec) 
Heartbeat CPU 0 instructions: 12000001 cycles: 3908071 heartbeat IPC: 3.07069 cumulative IPC: 3.07057 (Simulation time: 0 hr 6 min 45 sec) 
Heartbeat CPU 0 instructions: 14000000 cycles: 4559391 heartbeat IPC: 3.07069 cumulative IPC: 3.07059 (Simulation time: 0 hr 7 min 56 sec) 
Heartbeat CPU 0 instructions: 16000000 cycles: 5210736 heartbeat IPC: 3.07057 cumulative IPC: 3.07058 (Simulation time: 0 hr 9 min 5 sec) 
Heartbeat CPU 0 instructions: 18000003 cycles: 5862059 heartbeat IPC: 3.07068 cumulative IPC: 3.07059 (Simulation time: 0 hr 10 min 15 sec) 
Heartbeat CPU 0 instructions: 20000003 cycles: 6513377 heartbeat IPC: 3.0707 cumulative IPC: 3.0706 (Simulation time: 0 hr 11 min 26 sec) 
Heartbeat CPU 0 instructions: 22000003 cycles: 7164698 heartbeat IPC: 3.07068 cumulative IPC: 3.07061 (Simulation time: 0 hr 12 min 34 sec) 
Heartbeat CPU 0 instructions: 24000000 cycles: 7816041 heartbeat IPC: 3.07057 cumulative IPC: 3.07061 (Simulation time: 0 hr 13 min 42 sec) 
Heartbeat CPU 0 instructions: 26000004 cycles: 8467356 heartbeat IPC: 3.07072 cumulative IPC: 3.07062 (Simulation time: 0 hr 14 min 49 sec) 
Heartbeat CPU 0 instructions: 28000002 cycles: 9118673 heartbeat IPC: 3.0707 cumulative IPC: 3.07062 (Simulation time: 0 hr 15 min 56 sec) 
Heartbeat CPU 0 instructions: 30000001 cycles: 9769996 heartbeat IPC: 3.07067 cumulative IPC: 3.07063 (Simulation time: 0 hr 17 min 4 sec) 
Heartbeat CPU 0 instructions: 32000001 cycles: 10421336 heartbeat IPC: 3.07059 cumulative IPC: 3.07062 (Simulation time: 0 hr 18 min 10 sec) 
Heartbeat CPU 0 instructions: 34000004 cycles: 11072655 heartbeat IPC: 3.0707 cumulative IPC: 3.07063 (Simulation time: 0 hr 19 min 20 sec) 
Heartbeat CPU 0 instructions: 36000001 cycles: 11723982 heartbeat IPC: 3.07065 cumulative IPC: 3.07063 (Simulation time: 0 hr 20 min 27 sec) 
Heartbeat CPU 0 instructions: 38000003 cycles: 12375308 heartbeat IPC: 3.07066 cumulative IPC: 3.07063 (Simulation time: 0 hr 21 min 36 sec) 
Heartbeat CPU 0 instructions: 40000000 cycles: 13026639 heartbeat IPC: 3.07063 cumulative IPC: 3.07063 (Simulation time: 0 hr 22 min 44 sec) 
Heartbeat CPU 0 instructions: 42000003 cycles: 13677964 heartbeat IPC: 3.07067 cumulative IPC: 3.07063 (Simulation time: 0 hr 23 min 49 sec) 
Heartbeat CPU 0 instructions: 44000003 cycles: 14329287 heartbeat IPC: 3.07067 cumulative IPC: 3.07063 (Simulation time: 0 hr 24 min 52 sec) 
Heartbeat CPU 0 instructions: 46000001 cycles: 14980624 heartbeat IPC: 3.0706 cumulative IPC: 3.07063 (Simulation time: 0 hr 25 min 58 sec) 
Heartbeat CPU 0 instructions: 48000002 cycles: 15631940 heartbeat IPC: 3.07071 cumulative IPC: 3.07064 (Simulation time: 0 hr 26 min 55 sec) 
Heartbeat CPU 0 instructions: 50000003 cycles: 16283259 heartbeat IPC: 3.07069 cumulative IPC: 3.07064 (Simulation time: 0 hr 27 min 56 sec) 

Warmup complete CPU 0 instructions: 50000003 cycles: 16283259 (Simulation time: 0 hr 27 min 56 sec) 

Heartbeat CPU 0 instructions: 52000002 cycles: 19320675 heartbeat IPC: 0.658454 cumulative IPC: 0.658454 (Simulation time: 0 hr 30 min 58 sec) 

Region of Interest Statistics
cpu0_DTLB TOTAL     ACCESS:     513100  HIT:     510064  MISS:       3036
cpu0_DTLB LOAD      ACCESS:     452771  HIT:     449835  MISS:       2936
cpu0_DTLB RFO       ACCESS:      60329  HIT:      60229  MISS:        100
cpu0_DTLB PREFETCH  ACCESS:          0  HIT:          0  MISS:          0
cpu0_DTLB WRITEBACK ACCESS:          0  HIT:          0  MISS:          0
cpu0_ITLB TOTAL     ACCESS:       5999  HIT:       5999  MISS:          0
cpu0_ITLB LOAD      ACCESS:       5999  HIT:       5999  MISS:          0
cpu0_ITLB RFO       ACCESS:          0  HIT:          0  MISS:          0
cpu0_ITLB PREFETCH  ACCESS:          0  HIT:          0  MISS:          0
cpu0_ITLB WRITEBACK ACCESS:          0  HIT:          0  MISS:          0
cpu0_STLB TOTAL     ACCESS:       3036  HIT:       2483  MISS:        553
cpu0_STLB LOAD      ACCESS:       2936  HIT:       2383  MISS:        553
cpu0_STLB RFO       ACCESS:        100  HIT:        100  MISS:          0
cpu0_STLB PREFETCH  ACCESS:          0  HIT:          0  MISS:          0
cpu0_STLB WRITEBACK ACCESS:          0  HIT:          0  MISS:          0
cpu0_L1D TOTAL     ACCESS:     506585  HIT:     473620  MISS:      32965
cpu0_L1D LOAD      ACCESS:     407656  HIT:     374849  MISS:      32807
cpu0_L1D RFO       ACCESS:      98377  HIT:      98377  MISS:          0
cpu0_L1D PREFETCH  ACCESS:          0  HIT:          0  MISS:          0
cpu0_L1D WRITEBACK ACCESS:          0  HIT:          0  MISS:          0
cpu0_L2C TOTAL     ACCESS:      43351  HIT:      10543  MISS:      32808
cpu0_L2C LOAD      ACCESS:      32807  HIT:          0  MISS:      32807
cpu0_L2C RFO       ACCESS:          0  HIT:          0  MISS:          0
cpu0_L2C PREFETCH  ACCESS:          0  HIT:          0  MISS:          0
cpu0_L2C WRITEBACK ACCESS:      10386  HIT:      10386  MISS:          0
LLC TOTAL     ACCESS:      43476  HIT:       1503  MISS:      41973
LLC LOAD      ACCESS:      32807  HIT:          0  MISS:      32807
LLC RFO       ACCESS:          0  HIT:          0  MISS:          0
LLC PREFETCH  ACCESS:          0  HIT:          0  MISS:          0
LLC WRITEBACK ACCESS:      10668  HIT:       1503  MISS:       9165
Heartbeat CPU 0 instructions: 54000002 cycles: 22312520 heartbeat IPC: 0.668484 cumulative IPC: 0.663431 (Simulation time: 0 hr 33 min 55 sec) 

Region of Interest Statistics
cpu0_DTLB TOTAL     ACCESS:    1025152  HIT:    1015518  MISS:       9634
cpu0_DTLB LOAD      ACCESS:     904123  HIT:     895031  MISS:       9092
cpu0_DTLB RFO       ACCESS:     121029  HIT:     120487  MISS:        542
cpu0_DTLB PREFETCH  ACCESS:          0  HIT:          0  MISS:          0
cpu0_DTLB WRITEBACK ACCESS:          0  HIT:          0  MISS:          0
cpu0_ITLB TOTAL     ACCESS:      12052  HIT:      12052  MISS:          0
cpu0_ITLB LOAD      ACCESS:      12052  HIT:      12052  MISS:          0
cpu0_ITLB RFO       ACCESS:          0  HIT:          0  MISS:          0
cpu0_ITLB PREFETCH  ACCESS:          0  HIT:          0  MISS:          0
cpu0_ITLB WRITEBACK ACCESS:          0  HIT:          0  MISS:          0
cpu0_STLB TOTAL     ACCESS:       9634  HIT:       8538  MISS:       1096
cpu0_STLB LOAD      ACCESS:       9092  HIT:       7996  MISS:       1096
cpu0_STLB RFO       ACCESS:        542  HIT:        542  MISS:          0
cpu0_STLB PREFETCH  ACCESS:          0  HIT:          0  MISS:          0
cpu0_STLB WRITEBACK ACCESS:          0  HIT:          0  MISS:          0
cpu0_L1D TOTAL     ACCESS:    1013940  HIT:     948089  MISS:      65851
cpu0_L1D LOAD      ACCESS:     816104  HIT:     750557  MISS:      65547
cpu0_L1D RFO       ACCESS:     196741  HIT:     196741  MISS:          0
cpu0_L1D PREFETCH  ACCESS:          0  HIT:          0  MISS:          0
cpu0_L1D WRITEBACK ACCESS:          0  HIT:          0  MISS:          0
cpu0_L2C TOTAL     ACCESS:      86623  HIT:      21074  MISS:      65549
cpu0_L2C LOAD      ACCESS:      65547  HIT:          0  MISS:      65547
cpu0_L2C RFO       ACCESS:          0  HIT:          0  MISS:          0
cpu0_L2C PREFETCH  ACCESS:          0  HIT:          0  MISS:          0
cpu0_L2C WRITEBACK ACCESS:      20772  HIT:      20772  MISS:          0
LLC TOTAL     ACCESS:      86493  HIT:       3673  MISS:      82820
LLC LOAD      ACCESS:      65547  HIT:          0  MISS:      65547
LLC RFO       ACCESS:          0  HIT:          0  MISS:          0
LLC PREFETCH  ACCESS:          0  HIT:          0  MISS:          0
LLC WRITEBACK ACCESS:      20944  HIT:       3673  MISS:      17271
Heartbeat CPU 0 instructions: 56000000 cycles: 25347879 heartbeat IPC: 0.6589 cumulative IPC: 0.661914 (Simulation time: 0 hr 37 min 39 sec) 

Region of Interest Statistics
cpu0_DTLB TOTAL     ACCESS:    1535960  HIT:    1515453  MISS:      20507
cpu0_DTLB LOAD      ACCESS:    1354709  HIT:    1335424  MISS:      19285
cpu0_DTLB RFO       ACCESS:     181251  HIT:     180029  MISS:       1222
cpu0_DTLB PREFETCH  ACCESS:          0  HIT:          0  MISS:          0
cpu0_DTLB WRITEBACK ACCESS:          0  HIT:          0  MISS:          0
cpu0_ITLB TOTAL     ACCESS:      18064  HIT:      18064  MISS:          0
cpu0_ITLB LOAD      ACCESS:      18064  HIT:      18064  MISS:          0
cpu0_ITLB RFO       ACCESS:          0  HIT:          0  MISS:          0
cpu0_ITLB PREFETCH  ACCESS:          0  HIT:          0  MISS:          0
cpu0_ITLB WRITEBACK ACCESS:          0  HIT:          0  MISS:          0
cpu0_STLB TOTAL     ACCESS:      20507  HIT:      18866  MISS:       1641
cpu0_STLB LOAD      ACCESS:      19285  HIT:      17644  MISS:       1641
cpu0_STLB RFO       ACCESS:       1222  HIT:       1222  MISS:          0
cpu0_STLB PREFETCH  ACCESS:          0  HIT:          0  MISS:          0
cpu0_STLB WRITEBACK ACCESS:          0  HIT:          0  MISS:          0
cpu0_L1D TOTAL     ACCESS:    1521461  HIT:    1422698  MISS:      98763
cpu0_L1D LOAD      ACCESS:    1224751  HIT:    1126452  MISS:      98299
cpu0_L1D RFO       ACCESS:     295070  HIT:     295070  MISS:          0
cpu0_L1D PREFETCH  ACCESS:          0  HIT:          0  MISS:          0
cpu0_L1D WRITEBACK ACCESS:          0  HIT:          0  MISS:          0
cpu0_L2C TOTAL     ACCESS:     129919  HIT:      31625  MISS:      98294
cpu0_L2C LOAD      ACCESS:      98299  HIT:          9  MISS:      98290
cpu0_L2C RFO       ACCESS:          0  HIT:          0  MISS:          0
cpu0_L2C PREFETCH  ACCESS:          0  HIT:          0  MISS:          0
cpu0_L2C WRITEBACK ACCESS:      31156  HIT:      31155  MISS:          1
LLC TOTAL     ACCESS:     129642  HIT:       5832  MISS:     123810
LLC LOAD      ACCESS:      98290  HIT:          1  MISS:      98289
LLC RFO       ACCESS:          0  HIT:          0  MISS:          0
LLC PREFETCH  ACCESS:          0  HIT:          0  MISS:          0
LLC WRITEBACK ACCESS:      31349  HIT:       5831  MISS:      25518
Heartbeat CPU 0 instructions: 58000003 cycles: 28374160 heartbeat IPC: 0.660878 cumulative IPC: 0.661655 (Simulation time: 0 hr 41 min 42 sec) 

Region of Interest Statistics
cpu0_DTLB TOTAL     ACCESS:    2046931  HIT:    2016511  MISS:      30420
cpu0_DTLB LOAD      ACCESS:    1805134  HIT:    1776783  MISS:      28351
cpu0_DTLB RFO       ACCESS:     241797  HIT:     239728  MISS:       2069
cpu0_DTLB PREFETCH  ACCESS:          0  HIT:          0  MISS:          0
cpu0_DTLB WRITEBACK ACCESS:          0  HIT:          0  MISS:          0
cpu0_ITLB TOTAL     ACCESS:      24082  HIT:      24082  MISS:          0
cpu0_ITLB LOAD      ACCESS:      24082  HIT:      24082  MISS:          0
cpu0_ITLB RFO       ACCESS:          0  HIT:          0  MISS:          0
cpu0_ITLB PREFETCH  ACCESS:          0  HIT:          0  MISS:          0
cpu0_ITLB WRITEBACK ACCESS:          0  HIT:          0  MISS:          0
cpu0_STLB TOTAL     ACCESS:      30420  HIT:      28233  MISS:       2187
cpu0_STLB LOAD      ACCESS:      28351  HIT:      26164  MISS:       2187
cpu0_STLB RFO       ACCESS:       2069  HIT:       2069  MISS:          0
cpu0_STLB PREFETCH  ACCESS:          0  HIT:          0  MISS:          0
cpu0_STLB WRITEBACK ACCESS:          0  HIT:          0  MISS:          0
cpu0_L1D TOTAL     ACCESS:    2032003  HIT:    1900338  MISS:     131665
cpu0_L1D LOAD      ACCESS:    1636417  HIT:    1505369  MISS:     131048
cpu0_L1D RFO       ACCESS:     393400  HIT:     393400  MISS:          0
cpu0_L1D PREFETCH  ACCESS:          0  HIT:          0  MISS:          0
cpu0_L1D WRITEBACK ACCESS:          0  HIT:          0  MISS:          0
cpu0_L2C TOTAL     ACCESS:     173222  HIT:      42188  MISS:     131034
cpu0_L2C LOAD      ACCESS:     131048  HIT:         19  MISS:     131029
cpu0_L2C RFO       ACCESS:          0  HIT:          0  MISS:          0
cpu0_L2C PREFETCH  ACCESS:          0  HIT:          0  MISS:          0
cpu0_L2C WRITEBACK ACCESS:      41557  HIT:      41556  MISS:          1
LLC TOTAL     ACCESS:     172880  HIT:       8120  MISS:     164760
LLC LOAD      ACCESS:     131029  HIT:          1  MISS:     131028
LLC RFO       ACCESS:          0  HIT:          0  MISS:          0
LLC PREFETCH  ACCESS:          0  HIT:          0  MISS:          0
LLC WRITEBACK ACCESS:      41847  HIT:       8119  MISS:      33728
Heartbeat CPU 0 instructions: 60000001 cycles: 31388716 heartbeat IPC: 0.663447 cumulative IPC: 0.662012 (Simulation time: 0 hr 45 min 30 sec) 

Region of Interest Statistics
cpu0_DTLB TOTAL     ACCESS:    2558695  HIT:    2523333  MISS:      35362
cpu0_DTLB LOAD      ACCESS:    2255979  HIT:    2223073  MISS:      32906
cpu0_DTLB RFO       ACCESS:     302716  HIT:     300260  MISS:       2456
cpu0_DTLB PREFETCH  ACCESS:          0  HIT:          0  MISS:          0
cpu0_DTLB WRITEBACK ACCESS:          0  HIT:          0  MISS:          0
cpu0_ITLB TOTAL     ACCESS:      30081  HIT:      30081  MISS:          0
cpu0_ITLB LOAD      ACCESS:      30081  HIT:      30081  MISS:          0
cpu0_ITLB RFO       ACCESS:          0  HIT:          0  MISS:          0
cpu0_ITLB PREFETCH  ACCESS:          0  HIT:          0  MISS:          0
cpu0_ITLB WRITEBACK ACCESS:          0  HIT:          0  MISS:          0
cpu0_STLB TOTAL     ACCESS:      35362  HIT:      32631  MISS:       2731
cpu0_STLB LOAD      ACCESS:      32906  HIT:      30175  MISS:       2731
cpu0_STLB RFO       ACCESS:       2456  HIT:       2456  MISS:          0
cpu0_STLB PREFETCH  ACCESS:          0  HIT:          0  MISS:          0
cpu0_STLB WRITEBACK ACCESS:          0  HIT:          0  MISS:          0
cpu0_L1D TOTAL     ACCESS:    2543226  HIT:    2378655  MISS:     164571
cpu0_L1D LOAD      ACCESS:    2048767  HIT:    1884981  MISS:     163786
cpu0_L1D RFO       ACCESS:     491729  HIT:     491729  MISS:          0
cpu0_L1D PREFETCH  ACCESS:          0  HIT:          0  MISS:          0
cpu0_L1D WRITEBACK ACCESS:          0  HIT:          0  MISS:          0
cpu0_L2C TOTAL     ACCESS:     216498  HIT:      52725  MISS:     163773
cpu0_L2C LOAD      ACCESS:     163786  HIT:         19  MISS:     163767
cpu0_L2C RFO       ACCESS:          0  HIT:          0  MISS:          0
cpu0_L2C PREFETCH  ACCESS:          0  HIT:          0  MISS:          0
cpu0_L2C WRITEBACK ACCESS:      51927  HIT:      51926  MISS:          1
LLC TOTAL     ACCESS:     216038  HIT:      10240  MISS:     205798
LLC LOAD      ACCESS:     163767  HIT:          1  MISS:     163766
LLC RFO       ACCESS:          0  HIT:          0  MISS:          0
LLC PREFETCH  ACCESS:          0  HIT:          0  MISS:          0
LLC WRITEBACK ACCESS:      52266  HIT:      10239  MISS:      42027
Heartbeat CPU 0 instructions: 62000002 cycles: 34392242 heartbeat IPC: 0.665884 cumulative IPC: 0.662655 (Simulation time: 0 hr 48 min 34 sec) 

Region of Interest Statistics
cpu0_DTLB TOTAL     ACCESS:    3071251  HIT:    3035002  MISS:      36249
cpu0_DTLB LOAD      ACCESS:    2707502  HIT:    2673734  MISS:      33768
cpu0_DTLB RFO       ACCESS:     363749  HIT:     361268  MISS:       2481
cpu0_DTLB PREFETCH  ACCESS:          0  HIT:          0  MISS:          0
cpu0_DTLB WRITEBACK ACCESS:          0  HIT:          0  MISS:          0
cpu0_ITLB TOTAL     ACCESS:      36148  HIT:      36148  MISS:          0
cpu0_ITLB LOAD      ACCESS:      36148  HIT:      36148  MISS:          0
cpu0_ITLB RFO       ACCESS:          0  HIT:          0  MISS:          0
cpu0_ITLB PREFETCH  ACCESS:          0  HIT:          0  MISS:          0
cpu0_ITLB WRITEBACK ACCESS:          0  HIT:          0  MISS:          0
cpu0_STLB TOTAL     ACCESS:      36249  HIT:      32972  MISS:       3277
cpu0_STLB LOAD      ACCESS:      33768  HIT:      30491  MISS:       3277
cpu0_STLB RFO       ACCESS:       2481  HIT:       2481  MISS:          0
cpu0_STLB PREFETCH  ACCESS:          0  HIT:          0  MISS:          0
cpu0_STLB WRITEBACK ACCESS:          0  HIT:          0  MISS:          0
cpu0_L1D TOTAL     ACCESS:    3054946  HIT:    2857487  MISS:     197459
cpu0_L1D LOAD      ACCESS:    2461577  HIT:    2265050  MISS:     196527
cpu0_L1D RFO       ACCESS:     590093  HIT:     590093  MISS:          0
cpu0_L1D PREFETCH  ACCESS:          0  HIT:          0  MISS:          0
cpu0_L1D WRITEBACK ACCESS:          0  HIT:          0  MISS:          0
cpu0_L2C TOTAL     ACCESS:     259782  HIT:      63267  MISS:     196515
cpu0_L2C LOAD      ACCESS:     196527  HIT:         19  MISS:     196508
cpu0_L2C RFO       ACCESS:          0  HIT:          0  MISS:          0
cpu0_L2C PREFETCH  ACCESS:          0  HIT:          0  MISS:          0
cpu0_L2C WRITEBACK ACCESS:      62323  HIT:      62322  MISS:          1
LLC TOTAL     ACCESS:     259137  HIT:      12322  MISS:     246815
LLC LOAD      ACCESS:     196508  HIT:          1  MISS:     196507
LLC RFO       ACCESS:          0  HIT:          0  MISS:          0
LLC PREFETCH  ACCESS:          0  HIT:          0  MISS:          0
LLC WRITEBACK ACCESS:      62623  HIT:      12321  MISS:      50302
Heartbeat CPU 0 instructions: 64000004 cycles: 37408111 heartbeat IPC: 0.663159 cumulative IPC: 0.662727 (Simulation time: 0 hr 50 min 55 sec) 

Region of Interest Statistics
cpu0_DTLB TOTAL     ACCESS:    3583777  HIT:    3546814  MISS:      36963
cpu0_DTLB LOAD      ACCESS:    3158971  HIT:    3124511  MISS:      34460
cpu0_DTLB RFO       ACCESS:     424806  HIT:     422303  MISS:       2503
cpu0_DTLB PREFETCH  ACCESS:          0  HIT:          0  MISS:          0
cpu0_DTLB WRITEBACK ACCESS:          0  HIT:          0  MISS:          0
cpu0_ITLB TOTAL     ACCESS:      42145  HIT:      42145  MISS:          0
cpu0_ITLB LOAD      ACCESS:      42145  HIT:      42145  MISS:          0
cpu0_ITLB RFO       ACCESS:          0  HIT:          0  MISS:          0
cpu0_ITLB PREFETCH  ACCESS:          0  HIT:          0  MISS:          0
cpu0_ITLB WRITEBACK ACCESS:          0  HIT:          0  MISS:          0
cpu0_STLB TOTAL     ACCESS:      36963  HIT:      33140  MISS:       3823
cpu0_STLB LOAD      ACCESS:      34460  HIT:      30637  MISS:       3823
cpu0_STLB RFO       ACCESS:       2503  HIT:       2503  MISS:          0
cpu0_STLB PREFETCH  ACCESS:          0  HIT:          0  MISS:          0
cpu0_STLB WRITEBACK ACCESS:          0  HIT:          0  MISS:          0
cpu0_L1D TOTAL     ACCESS:    3566463  HIT:    3336099  MISS:     230364
cpu0_L1D LOAD      ACCESS:    2874218  HIT:    2644946  MISS:     229272
cpu0_L1D RFO       ACCESS:     688423  HIT:     688423  MISS:          0
cpu0_L1D PREFETCH  ACCESS:          0  HIT:          0  MISS:          0
cpu0_L1D WRITEBACK ACCESS:          0  HIT:          0  MISS:          0
cpu0_L2C TOTAL     ACCESS:     303067  HIT:      73812  MISS:     229255
cpu0_L2C LOAD      ACCESS:     229272  HIT:         25  MISS:     229247
cpu0_L2C RFO       ACCESS:          0  HIT:          0  MISS:          0
cpu0_L2C PREFETCH  ACCESS:          0  HIT:          0  MISS:          0
cpu0_L2C WRITEBACK ACCESS:      72703  HIT:      72702  MISS:          1
LLC TOTAL     ACCESS:     302003  HIT:      14508  MISS:     287495
LLC LOAD      ACCESS:     229247  HIT:          1  MISS:     229246
LLC RFO       ACCESS:          0  HIT:          0  MISS:          0
LLC PREFETCH  ACCESS:          0  HIT:          0  MISS:          0
LLC WRITEBACK ACCESS:      72749  HIT:      14507  MISS:      58242
Heartbeat CPU 0 instructions: 66000004 cycles: 40472384 heartbeat IPC: 0.652683 cumulative IPC: 0.661454 (Simulation time: 0 hr 53 min 18 sec) 

Region of Interest Statistics
cpu0_DTLB TOTAL     ACCESS:    4096175  HIT:    4058661  MISS:      37514
cpu0_DTLB LOAD      ACCESS:    3610258  HIT:    3575247  MISS:      35011
cpu0_DTLB RFO       ACCESS:     485917  HIT:     483414  MISS:       2503
cpu0_DTLB PREFETCH  ACCESS:          0  HIT:          0  MISS:          0
cpu0_DTLB WRITEBACK ACCESS:          0  HIT:          0  MISS:          0
cpu0_ITLB TOTAL     ACCESS:      48173  HIT:      48173  MISS:          0
cpu0_ITLB LOAD      ACCESS:      48173  HIT:      48173  MISS:          0
cpu0_ITLB RFO       ACCESS:          0  HIT:          0  MISS:          0
cpu0_ITLB PREFETCH  ACCESS:          0  HIT:          0  MISS:          0
cpu0_ITLB WRITEBACK ACCESS:          0  HIT:          0  MISS:          0
cpu0_STLB TOTAL     ACCESS:      37514  HIT:      33149  MISS:       4365
cpu0_STLB LOAD      ACCESS:      35011  HIT:      30646  MISS:       4365
cpu0_STLB RFO       ACCESS:       2503  HIT:       2503  MISS:          0
cpu0_STLB PREFETCH  ACCESS:          0  HIT:          0  MISS:          0
cpu0_STLB WRITEBACK ACCESS:          0  HIT:          0  MISS:          0
cpu0_L1D TOTAL     ACCESS:    4075498  HIT:    3812218  MISS:     263280
cpu0_L1D LOAD      ACCESS:    3284381  HIT:    3022360  MISS:     262021
cpu0_L1D RFO       ACCESS:     786753  HIT:     786753  MISS:          0
cpu0_L1D PREFETCH  ACCESS:          0  HIT:          0  MISS:          0
cpu0_L1D WRITEBACK ACCESS:          0  HIT:          0  MISS:          0
cpu0_L2C TOTAL     ACCESS:     346363  HIT:      84368  MISS:     261995
cpu0_L2C LOAD      ACCESS:     262021  HIT:         38  MISS:     261983
cpu0_L2C RFO       ACCESS:          0  HIT:          0  MISS:          0
cpu0_L2C PREFETCH  ACCESS:          0  HIT:          0  MISS:          0
cpu0_L2C WRITEBACK ACCESS:      83083  HIT:      83082  MISS:          1
LLC TOTAL     ACCESS:     345257  HIT:      17083  MISS:     328174
LLC LOAD      ACCESS:     261983  HIT:          1  MISS:     261982
LLC RFO       ACCESS:          0  HIT:          0  MISS:          0
LLC PREFETCH  ACCESS:          0  HIT:          0  MISS:          0
LLC WRITEBACK ACCESS:      83263  HIT:      17082  MISS:      66181
Heartbeat CPU 0 instructions: 68000001 cycles: 43487091 heartbeat IPC: 0.663413 cumulative IPC: 0.661671 (Simulation time: 0 hr 55 min 37 sec) 

Region of Interest Statistics
cpu0_DTLB TOTAL     ACCESS:    4608829  HIT:    4570176  MISS:      38653
cpu0_DTLB LOAD      ACCESS:    4061883  HIT:    4025733  MISS:      36150
cpu0_DTLB RFO       ACCESS:     546946  HIT:     544443  MISS:       2503
cpu0_DTLB PREFETCH  ACCESS:          0  HIT:          0  MISS:          0
cpu0_DTLB WRITEBACK ACCESS:          0  HIT:          0  MISS:          0
cpu0_ITLB TOTAL     ACCESS:      54182  HIT:      54182  MISS:          0
cpu0_ITLB LOAD      ACCESS:      54182  HIT:      54182  MISS:          0
cpu0_ITLB RFO       ACCESS:          0  HIT:          0  MISS:          0
cpu0_ITLB PREFETCH  ACCESS:          0  HIT:          0  MISS:          0
cpu0_ITLB WRITEBACK ACCESS:          0  HIT:          0  MISS:          0
cpu0_STLB TOTAL     ACCESS:      38653  HIT:      33742  MISS:       4911
cpu0_STLB LOAD      ACCESS:      36150  HIT:      31239  MISS:       4911
cpu0_STLB RFO       ACCESS:       2503  HIT:       2503  MISS:          0
cpu0_STLB PREFETCH  ACCESS:          0  HIT:          0  MISS:          0
cpu0_STLB WRITEBACK ACCESS:          0  HIT:          0  MISS:          0
cpu0_L1D TOTAL     ACCESS:    4583494  HIT:    4287260  MISS:     296234
cpu0_L1D LOAD      ACCESS:    3693500  HIT:    3398743  MISS:     294757
cpu0_L1D RFO       ACCESS:     885084  HIT:     885084  MISS:          0
cpu0_L1D PREFETCH  ACCESS:          0  HIT:          0  MISS:          0
cpu0_L1D WRITEBACK ACCESS:          0  HIT:          0  MISS:          0
cpu0_L2C TOTAL     ACCESS:     389715  HIT:      94984  MISS:     294731
cpu0_L2C LOAD      ACCESS:     294757  HIT:         38  MISS:     294719
cpu0_L2C RFO       ACCESS:          0  HIT:          0  MISS:          0
cpu0_L2C PREFETCH  ACCESS:          0  HIT:          0  MISS:          0
cpu0_L2C WRITEBACK ACCESS:      93481  HIT:      93480  MISS:          1
LLC TOTAL     ACCESS:     388429  HIT:      18965  MISS:     369464
LLC LOAD      ACCESS:     294719  HIT:          1  MISS:     294718
LLC RFO       ACCESS:          0  HIT:          0  MISS:          0
LLC PREFETCH  ACCESS:          0  HIT:          0  MISS:          0
LLC WRITEBACK ACCESS:      93699  HIT:      18964  MISS:      74735
Heartbeat CPU 0 instructions: 70000001 cycles: 46415284 heartbeat IPC: 0.683015 cumulative IPC: 0.663746 (Simulation time: 0 hr 57 min 59 sec) 

Region of Interest Statistics
cpu0_DTLB TOTAL     ACCESS:    5121177  HIT:    5081965  MISS:      39212
cpu0_DTLB LOAD      ACCESS:    4513737  HIT:    4477028  MISS:      36709
cpu0_DTLB RFO       ACCESS:     607440  HIT:     604937  MISS:       2503
cpu0_DTLB PREFETCH  ACCESS:          0  HIT:          0  MISS:          0
cpu0_DTLB WRITEBACK ACCESS:          0  HIT:          0  MISS:          0
cpu0_ITLB TOTAL     ACCESS:      60251  HIT:      60251  MISS:          0
cpu0_ITLB LOAD      ACCESS:      60251  HIT:      60251  MISS:          0
cpu0_ITLB RFO       ACCESS:          0  HIT:          0  MISS:          0
cpu0_ITLB PREFETCH  ACCESS:          0  HIT:          0  MISS:          0
cpu0_ITLB WRITEBACK ACCESS:          0  HIT:          0  MISS:          0
cpu0_STLB TOTAL     ACCESS:      39212  HIT:      33746  MISS:       5466
cpu0_STLB LOAD      ACCESS:      36709  HIT:      31243  MISS:       5466
cpu0_STLB RFO       ACCESS:       2503  HIT:       2503  MISS:          0
cpu0_STLB PREFETCH  ACCESS:          0  HIT:          0  MISS:          0
cpu0_STLB WRITEBACK ACCESS:          0  HIT:          0  MISS:          0
cpu0_L1D TOTAL     ACCESS:    5089433  HIT:    4760158  MISS:     329275
cpu0_L1D LOAD      ACCESS:    4100474  HIT:    3772907  MISS:     327567
cpu0_L1D RFO       ACCESS:     983494  HIT:     983494  MISS:          0
cpu0_L1D PREFETCH  ACCESS:          0  HIT:          0  MISS:          0
cpu0_L1D WRITEBACK ACCESS:          0  HIT:          0  MISS:          0
cpu0_L2C TOTAL     ACCESS:     433150  HIT:     105605  MISS:     327545
cpu0_L2C LOAD      ACCESS:     327567  HIT:         38  MISS:     327529
cpu0_L2C RFO       ACCESS:          0  HIT:          0  MISS:          0
cpu0_L2C PREFETCH  ACCESS:          0  HIT:          0  MISS:          0
cpu0_L2C WRITEBACK ACCESS:     103875  HIT:     103874  MISS:          1
LLC TOTAL     ACCESS:     431629  HIT:      21186  MISS:     410443
LLC LOAD      ACCESS:     327529  HIT:          1  MISS:     327528
LLC RFO       ACCESS:          0  HIT:          0  MISS:          0
LLC PREFETCH  ACCESS:          0  HIT:          0  MISS:          0
LLC WRITEBACK ACCESS:     104085  HIT:      21185  MISS:      82900
Heartbeat CPU 0 instructions: 72000000 cycles: 49300454 heartbeat IPC: 0.6932 cumulative IPC: 0.666319 (Simulation time: 1 hr 0 min 21 sec) 

Region of Interest Statistics
cpu0_DTLB TOTAL     ACCESS:    5633063  HIT:    5592957  MISS:      40106
cpu0_DTLB LOAD      ACCESS:    4965107  HIT:    4927528  MISS:      37579
cpu0_DTLB RFO       ACCESS:     667956  HIT:     665429  MISS:       2527
cpu0_DTLB PREFETCH  ACCESS:          0  HIT:          0  MISS:          0
cpu0_DTLB WRITEBACK ACCESS:          0  HIT:          0  MISS:          0
cpu0_ITLB TOTAL     ACCESS:      66261  HIT:      66261  MISS:          0
cpu0_ITLB LOAD      ACCESS:      66261  HIT:      66261  MISS:          0
cpu0_ITLB RFO       ACCESS:          0  HIT:          0  MISS:          0
cpu0_ITLB PREFETCH  ACCESS:          0  HIT:          0  MISS:          0
cpu0_ITLB WRITEBACK ACCESS:          0  HIT:          0  MISS:          0
cpu0_STLB TOTAL     ACCESS:      40106  HIT:      34098  MISS:       6008
cpu0_STLB LOAD      ACCESS:      37579  HIT:      31571  MISS:       6008
cpu0_STLB RFO       ACCESS:       2527  HIT:       2527  MISS:          0
cpu0_STLB PREFETCH  ACCESS:          0  HIT:          0  MISS:          0
cpu0_STLB WRITEBACK ACCESS:          0  HIT:          0  MISS:          0
cpu0_L1D TOTAL     ACCESS:    5595302  HIT:    5233062  MISS:     362240
cpu0_L1D LOAD      ACCESS:    4507467  HIT:    4147162  MISS:     360305
cpu0_L1D RFO       ACCESS:    1081826  HIT:    1081826  MISS:          0
cpu0_L1D PREFETCH  ACCESS:          0  HIT:          0  MISS:          0
cpu0_L1D WRITEBACK ACCESS:          0  HIT:          0  MISS:          0
cpu0_L2C TOTAL     ACCESS:     476473  HIT:     116189  MISS:     360284
cpu0_L2C LOAD      ACCESS:     360305  HIT:         38  MISS:     360267
cpu0_L2C RFO       ACCESS:          0  HIT:          0  MISS:          0
cpu0_L2C PREFETCH  ACCESS:          0  HIT:          0  MISS:          0
cpu0_L2C WRITEBACK ACCESS:     114233  HIT:     114232  MISS:          1
LLC TOTAL     ACCESS:     474766  HIT:      22992  MISS:     451774
LLC LOAD      ACCESS:     360267  HIT:          1  MISS:     360266
LLC RFO       ACCESS:          0  HIT:          0  MISS:          0
LLC PREFETCH  ACCESS:          0  HIT:          0  MISS:          0
LLC WRITEBACK ACCESS:     114483  HIT:      22991  MISS:      91492
Heartbeat CPU 0 instructions: 74000004 cycles: 52199912 heartbeat IPC: 0.689785 cumulative IPC: 0.668214 (Simulation time: 1 hr 2 min 39 sec) 

Region of Interest Statistics
cpu0_DTLB TOTAL     ACCESS:    6145401  HIT:    6104234  MISS:      41167
cpu0_DTLB LOAD      ACCESS:    5416929  HIT:    5378301  MISS:      38628
cpu0_DTLB RFO       ACCESS:     728472  HIT:     725933  MISS:       2539
cpu0_DTLB PREFETCH  ACCESS:          0  HIT:          0  MISS:          0
cpu0_DTLB WRITEBACK ACCESS:          0  HIT:          0  MISS:          0
cpu0_ITLB TOTAL     ACCESS:      72267  HIT:      72267  MISS:          0
cpu0_ITLB LOAD      ACCESS:      72267  HIT:      72267  MISS:          0
cpu0_ITLB RFO       ACCESS:          0  HIT:          0  MISS:          0
cpu0_ITLB PREFETCH  ACCESS:          0  HIT:          0  MISS:          0
cpu0_ITLB WRITEBACK ACCESS:          0  HIT:          0  MISS:          0
cpu0_STLB TOTAL     ACCESS:      41167  HIT:      34612  MISS:       6555
cpu0_STLB LOAD      ACCESS:      38628  HIT:      32073  MISS:       6555
cpu0_STLB RFO       ACCESS:       2539  HIT:       2539  MISS:          0
cpu0_STLB PREFETCH  ACCESS:          0  HIT:          0  MISS:          0
cpu0_STLB WRITEBACK ACCESS:          0  HIT:          0  MISS:          0
cpu0_L1D TOTAL     ACCESS:    6104429  HIT:    5709208  MISS:     395221
cpu0_L1D LOAD      ACCESS:    4917719  HIT:    4524671  MISS:     393048
cpu0_L1D RFO       ACCESS:    1180156  HIT:    1180156  MISS:          0
cpu0_L1D PREFETCH  ACCESS:          0  HIT:          0  MISS:          0
cpu0_L1D WRITEBACK ACCESS:          0  HIT:          0  MISS:          0
cpu0_L2C TOTAL     ACCESS:     519860  HIT:     126836  MISS:     393024
cpu0_L2C LOAD      ACCESS:     393048  HIT:         41  MISS:     393007
cpu0_L2C RFO       ACCESS:          0  HIT:          0  MISS:          0
cpu0_L2C PREFETCH  ACCESS:          0  HIT:          0  MISS:          0
cpu0_L2C WRITEBACK ACCESS:     124639  HIT:     124638  MISS:          1
LLC TOTAL     ACCESS:     517924  HIT:      24779  MISS:     493145
LLC LOAD      ACCESS:     393007  HIT:          1  MISS:     393006
LLC RFO       ACCESS:          0  HIT:          0  MISS:          0
LLC PREFETCH  ACCESS:          0  HIT:          0  MISS:          0
LLC WRITEBACK ACCESS:     124901  HIT:      24778  MISS:     100123
Heartbeat CPU 0 instructions: 76000003 cycles: 55120917 heartbeat IPC: 0.684695 cumulative IPC: 0.669453 (Simulation time: 1 hr 4 min 56 sec) 

Region of Interest Statistics
cpu0_DTLB TOTAL     ACCESS:    6657521  HIT:    6615325  MISS:      42196
cpu0_DTLB LOAD      ACCESS:    5868645  HIT:    5829010  MISS:      39635
cpu0_DTLB RFO       ACCESS:     788876  HIT:     786315  MISS:       2561
cpu0_DTLB PREFETCH  ACCESS:          0  HIT:          0  MISS:          0
cpu0_DTLB WRITEBACK ACCESS:          0  HIT:          0  MISS:          0
cpu0_ITLB TOTAL     ACCESS:      78269  HIT:      78269  MISS:          0
cpu0_ITLB LOAD      ACCESS:      78269  HIT:      78269  MISS:          0
cpu0_ITLB RFO       ACCESS:          0  HIT:          0  MISS:          0
cpu0_ITLB PREFETCH  ACCESS:          0  HIT:          0  MISS:          0
cpu0_ITLB WRITEBACK ACCESS:          0  HIT:          0  MISS:          0
cpu0_STLB TOTAL     ACCESS:      42196  HIT:      35099  MISS:       7097
cpu0_STLB LOAD      ACCESS:      39635  HIT:      32538  MISS:       7097
cpu0_STLB RFO       ACCESS:       2561  HIT:       2561  MISS:          0
cpu0_STLB PREFETCH  ACCESS:          0  HIT:          0  MISS:          0
cpu0_STLB WRITEBACK ACCESS:          0  HIT:          0  MISS:          0
cpu0_L1D TOTAL     ACCESS:    6613560  HIT:    6185364  MISS:     428196
cpu0_L1D LOAD      ACCESS:    5327977  HIT:    4902196  MISS:     425781
cpu0_L1D RFO       ACCESS:    1278486  HIT:    1278486  MISS:          0
cpu0_L1D PREFETCH  ACCESS:          0  HIT:          0  MISS:          0
cpu0_L1D WRITEBACK ACCESS:          0  HIT:          0  MISS:          0
cpu0_L2C TOTAL     ACCESS:     563223  HIT:     137466  MISS:     425757
cpu0_L2C LOAD      ACCESS:     425781  HIT:         41  MISS:     425740
cpu0_L2C RFO       ACCESS:          0  HIT:          0  MISS:          0
cpu0_L2C PREFETCH  ACCESS:          0  HIT:          0  MISS:          0
cpu0_L2C WRITEBACK ACCESS:     135027  HIT:     135026  MISS:          1
LLC TOTAL     ACCESS:     560951  HIT:      27460  MISS:     533491
LLC LOAD      ACCESS:     425740  HIT:          1  MISS:     425739
LLC RFO       ACCESS:          0  HIT:          0  MISS:          0
LLC PREFETCH  ACCESS:          0  HIT:          0  MISS:          0
LLC WRITEBACK ACCESS:     135195  HIT:      27459  MISS:     107736
Heartbeat CPU 0 instructions: 78000004 cycles: 58008634 heartbeat IPC: 0.692589 cumulative IPC: 0.671054 (Simulation time: 1 hr 7 min 15 sec) 

Region of Interest Statistics
cpu0_DTLB TOTAL     ACCESS:    7169714  HIT:    7126640  MISS:      43074
cpu0_DTLB LOAD      ACCESS:    6320290  HIT:    6279799  MISS:      40491
cpu0_DTLB RFO       ACCESS:     849424  HIT:     846841  MISS:       2583
cpu0_DTLB PREFETCH  ACCESS:          0  HIT:          0  MISS:          0
cpu0_DTLB WRITEBACK ACCESS:          0  HIT:          0  MISS:          0
cpu0_ITLB TOTAL     ACCESS:      84324  HIT:      84324  MISS:          0
cpu0_ITLB LOAD      ACCESS:      84324  HIT:      84324  MISS:          0
cpu0_ITLB RFO       ACCESS:          0  HIT:          0  MISS:          0
cpu0_ITLB PREFETCH  ACCESS:          0  HIT:          0  MISS:          0
cpu0_ITLB WRITEBACK ACCESS:          0  HIT:          0  MISS:          0
cpu0_STLB TOTAL     ACCESS:      43074  HIT:      35433  MISS:       7641
cpu0_STLB LOAD      ACCESS:      40491  HIT:      32850  MISS:       7641
cpu0_STLB RFO       ACCESS:       2583  HIT:       2583  MISS:          0
cpu0_STLB PREFETCH  ACCESS:          0  HIT:          0  MISS:          0
cpu0_STLB WRITEBACK ACCESS:          0  HIT:          0  MISS:          0
cpu0_L1D TOTAL     ACCESS:    7122861  HIT:    6661700  MISS:     461161
cpu0_L1D LOAD      ACCESS:    5738373  HIT:    5279852  MISS:     458521
cpu0_L1D RFO       ACCESS:    1376848  HIT:    1376848  MISS:          0
cpu0_L1D PREFETCH  ACCESS:          0  HIT:          0  MISS:          0
cpu0_L1D WRITEBACK ACCESS:          0  HIT:          0  MISS:          0
cpu0_L2C TOTAL     ACCESS:     606579  HIT:     148082  MISS:     458497
cpu0_L2C LOAD      ACCESS:     458521  HIT:         41  MISS:     458480
cpu0_L2C RFO       ACCESS:          0  HIT:          0  MISS:          0
cpu0_L2C PREFETCH  ACCESS:          0  HIT:          0  MISS:          0
cpu0_L2C WRITEBACK ACCESS:     145418  HIT:     145417  MISS:          1
LLC TOTAL     ACCESS:     604138  HIT:      29251  MISS:     574887
LLC LOAD      ACCESS:     458480  HIT:          1  MISS:     458479
LLC RFO       ACCESS:          0  HIT:          0  MISS:          0
LLC PREFETCH  ACCESS:          0  HIT:          0  MISS:          0
LLC WRITEBACK ACCESS:     145642  HIT:      29250  MISS:     116392
Heartbeat CPU 0 instructions: 80000004 cycles: 60930085 heartbeat IPC: 0.684591 cumulative IPC: 0.67194 (Simulation time: 1 hr 9 min 33 sec) 

Region of Interest Statistics
cpu0_DTLB TOTAL     ACCESS:    7681987  HIT:    7638366  MISS:      43621
cpu0_DTLB LOAD      ACCESS:    6772077  HIT:    6731039  MISS:      41038
cpu0_DTLB RFO       ACCESS:     909910  HIT:     907327  MISS:       2583
cpu0_DTLB PREFETCH  ACCESS:          0  HIT:          0  MISS:          0
cpu0_DTLB WRITEBACK ACCESS:          0  HIT:          0  MISS:          0
cpu0_ITLB TOTAL     ACCESS:      90309  HIT:      90309  MISS:          0
cpu0_ITLB LOAD      ACCESS:      90309  HIT:      90309  MISS:          0
cpu0_ITLB RFO       ACCESS:          0  HIT:          0  MISS:          0
cpu0_ITLB PREFETCH  ACCESS:          0  HIT:          0  MISS:          0
cpu0_ITLB WRITEBACK ACCESS:          0  HIT:          0  MISS:          0
cpu0_STLB TOTAL     ACCESS:      43621  HIT:      35433  MISS:       8188
cpu0_STLB LOAD      ACCESS:      41038  HIT:      32850  MISS:       8188
cpu0_STLB RFO       ACCESS:       2583  HIT:       2583  MISS:          0
cpu0_STLB PREFETCH  ACCESS:          0  HIT:          0  MISS:          0
cpu0_STLB WRITEBACK ACCESS:          0  HIT:          0  MISS:          0
cpu0_L1D TOTAL     ACCESS:    7632408  HIT:    7138272  MISS:     494136
cpu0_L1D LOAD      ACCESS:    6149043  HIT:    5657785  MISS:     491258
cpu0_L1D RFO       ACCESS:    1475178  HIT:    1475178  MISS:          0
cpu0_L1D PREFETCH  ACCESS:          0  HIT:          0  MISS:          0
cpu0_L1D WRITEBACK ACCESS:          0  HIT:          0  MISS:          0
cpu0_L2C TOTAL     ACCESS:     649924  HIT:     158689  MISS:     491235
cpu0_L2C LOAD      ACCESS:     491258  HIT:         41  MISS:     491217
cpu0_L2C RFO       ACCESS:          0  HIT:          0  MISS:          0
cpu0_L2C PREFETCH  ACCESS:          0  HIT:          0  MISS:          0
cpu0_L2C WRITEBACK ACCESS:     155788  HIT:     155787  MISS:          1
LLC TOTAL     ACCESS:     647382  HIT:      31876  MISS:     615506
LLC LOAD      ACCESS:     491217  HIT:          1  MISS:     491216
LLC RFO       ACCESS:          0  HIT:          0  MISS:          0
LLC PREFETCH  ACCESS:          0  HIT:          0  MISS:          0
LLC WRITEBACK ACCESS:     156148  HIT:      31875  MISS:     124273
Heartbeat CPU 0 instructions: 82000002 cycles: 63826537 heartbeat IPC: 0.690499 cumulative IPC: 0.673071 (Simulation time: 1 hr 11 min 50 sec) 

Region of Interest Statistics
cpu0_DTLB TOTAL     ACCESS:    8193959  HIT:    8149761  MISS:      44198
cpu0_DTLB LOAD      ACCESS:    7223602  HIT:    7181991  MISS:      41611
cpu0_DTLB RFO       ACCESS:     970357  HIT:     967770  MISS:       2587
cpu0_DTLB PREFETCH  ACCESS:          0  HIT:          0  MISS:          0
cpu0_DTLB WRITEBACK ACCESS:          0  HIT:          0  MISS:          0
cpu0_ITLB TOTAL     ACCESS:      96320  HIT:      96320  MISS:          0
cpu0_ITLB LOAD      ACCESS:      96320  HIT:      96320  MISS:          0
cpu0_ITLB RFO       ACCESS:          0  HIT:          0  MISS:          0
cpu0_ITLB PREFETCH  ACCESS:          0  HIT:          0  MISS:          0
cpu0_ITLB WRITEBACK ACCESS:          0  HIT:          0  MISS:          0
cpu0_STLB TOTAL     ACCESS:      44198  HIT:      35464  MISS:       8734
cpu0_STLB LOAD      ACCESS:      41611  HIT:      32877  MISS:       8734
cpu0_STLB RFO       ACCESS:       2587  HIT:       2587  MISS:          0
cpu0_STLB PREFETCH  ACCESS:          0  HIT:          0  MISS:          0
cpu0_STLB WRITEBACK ACCESS:          0  HIT:          0  MISS:          0
cpu0_L1D TOTAL     ACCESS:    8140576  HIT:    7613484  MISS:     527092
cpu0_L1D LOAD      ACCESS:    6558334  HIT:    6034339  MISS:     523995
cpu0_L1D RFO       ACCESS:    1573509  HIT:    1573509  MISS:          0
cpu0_L1D PREFETCH  ACCESS:          0  HIT:          0  MISS:          0
cpu0_L1D WRITEBACK ACCESS:          0  HIT:          0  MISS:          0
cpu0_L2C TOTAL     ACCESS:     693261  HIT:     169286  MISS:     523975
cpu0_L2C LOAD      ACCESS:     523995  HIT:         41  MISS:     523954
cpu0_L2C RFO       ACCESS:          0  HIT:          0  MISS:          0
cpu0_L2C PREFETCH  ACCESS:          0  HIT:          0  MISS:          0
cpu0_L2C WRITEBACK ACCESS:     166169  HIT:     166168  MISS:          1
LLC TOTAL     ACCESS:     690352  HIT:      33537  MISS:     656815
LLC LOAD      ACCESS:     523954  HIT:          1  MISS:     523953
LLC RFO       ACCESS:          0  HIT:          0  MISS:          0
LLC PREFETCH  ACCESS:          0  HIT:          0  MISS:          0
LLC WRITEBACK ACCESS:     166378  HIT:      33536  MISS:     132842
Heartbeat CPU 0 instructions: 84000000 cycles: 66730250 heartbeat IPC: 0.688773 cumulative IPC: 0.673975 (Simulation time: 1 hr 14 min 8 sec) 

Region of Interest Statistics
cpu0_DTLB TOTAL     ACCESS:    8705925  HIT:    8661158  MISS:      44767
cpu0_DTLB LOAD      ACCESS:    7675135  HIT:    7632958  MISS:      42177
cpu0_DTLB RFO       ACCESS:    1030790  HIT:    1028200  MISS:       2590
cpu0_DTLB PREFETCH  ACCESS:          0  HIT:          0  MISS:          0
cpu0_DTLB WRITEBACK ACCESS:          0  HIT:          0  MISS:          0
cpu0_ITLB TOTAL     ACCESS:     102323  HIT:     102323  MISS:          0
cpu0_ITLB LOAD      ACCESS:     102323  HIT:     102323  MISS:          0
cpu0_ITLB RFO       ACCESS:          0  HIT:          0  MISS:          0
cpu0_ITLB PREFETCH  ACCESS:          0  HIT:          0  MISS:          0
cpu0_ITLB WRITEBACK ACCESS:          0  HIT:          0  MISS:          0
cpu0_STLB TOTAL     ACCESS:      44767  HIT:      35488  MISS:       9279
cpu0_STLB LOAD      ACCESS:      42177  HIT:      32898  MISS:       9279
cpu0_STLB RFO       ACCESS:       2590  HIT:       2590  MISS:          0
cpu0_STLB PREFETCH  ACCESS:          0  HIT:          0  MISS:          0
cpu0_STLB WRITEBACK ACCESS:          0  HIT:          0  MISS:          0
cpu0_L1D TOTAL     ACCESS:    8645891  HIT:    8085861  MISS:     560030
cpu0_L1D LOAD      ACCESS:    6964775  HIT:    6408039  MISS:     556736
cpu0_L1D RFO       ACCESS:    1671838  HIT:    1671838  MISS:          0
cpu0_L1D PREFETCH  ACCESS:          0  HIT:          0  MISS:          0
cpu0_L1D WRITEBACK ACCESS:          0  HIT:          0  MISS:          0
cpu0_L2C TOTAL     ACCESS:     736581  HIT:     179866  MISS:     556715
cpu0_L2C LOAD      ACCESS:     556736  HIT:         44  MISS:     556692
cpu0_L2C RFO       ACCESS:          0  HIT:          0  MISS:          0
cpu0_L2C PREFETCH  ACCESS:          0  HIT:          0  MISS:          0
cpu0_L2C WRITEBACK ACCESS:     176551  HIT:     176550  MISS:          1
LLC TOTAL     ACCESS:     733450  HIT:      35469  MISS:     697981
LLC LOAD      ACCESS:     556692  HIT:          1  MISS:     556691
LLC RFO       ACCESS:          0  HIT:          0  MISS:          0
LLC PREFETCH  ACCESS:          0  HIT:          0  MISS:          0
LLC WRITEBACK ACCESS:     176736  HIT:      35468  MISS:     141268
Heartbeat CPU 0 instructions: 86000004 cycles: 69640619 heartbeat IPC: 0.687199 cumulative IPC: 0.674696 (Simulation time: 1 hr 16 min 21 sec) 

Region of Interest Statistics
cpu0_DTLB TOTAL     ACCESS:    9218063  HIT:    9172198  MISS:      45865
cpu0_DTLB LOAD      ACCESS:    8126510  HIT:    8083288  MISS:      43222
cpu0_DTLB RFO       ACCESS:    1091553  HIT:    1088910  MISS:       2643
cpu0_DTLB PREFETCH  ACCESS:          0  HIT:          0  MISS:          0
cpu0_DTLB WRITEBACK ACCESS:          0  HIT:          0  MISS:          0
cpu0_ITLB TOTAL     ACCESS:     108395  HIT:     108395  MISS:          0
cpu0_ITLB LOAD      ACCESS:     108395  HIT:     108395  MISS:          0
cpu0_ITLB RFO       ACCESS:          0  HIT:          0  MISS:          0
cpu0_ITLB PREFETCH  ACCESS:          0  HIT:          0  MISS:          0
cpu0_ITLB WRITEBACK ACCESS:          0  HIT:          0  MISS:          0
cpu0_STLB TOTAL     ACCESS:      45865  HIT:      36030  MISS:       9835
cpu0_STLB LOAD      ACCESS:      43222  HIT:      33387  MISS:       9835
cpu0_STLB RFO       ACCESS:       2643  HIT:       2643  MISS:          0
cpu0_STLB PREFETCH  ACCESS:          0  HIT:          0  MISS:          0
cpu0_STLB WRITEBACK ACCESS:          0  HIT:          0  MISS:          0
cpu0_L1D TOTAL     ACCESS:    9151946  HIT:    8558928  MISS:     593018
cpu0_L1D LOAD      ACCESS:    7371863  HIT:    6782322  MISS:     589541
cpu0_L1D RFO       ACCESS:    1770250  HIT:    1770250  MISS:          0
cpu0_L1D PREFETCH  ACCESS:          0  HIT:          0  MISS:          0
cpu0_L1D WRITEBACK ACCESS:          0  HIT:          0  MISS:          0
cpu0_L2C TOTAL     ACCESS:     779941  HIT:     190420  MISS:     589521
cpu0_L2C LOAD      ACCESS:     589541  HIT:         44  MISS:     589497
cpu0_L2C RFO       ACCESS:          0  HIT:          0  MISS:          0
cpu0_L2C PREFETCH  ACCESS:          0  HIT:          0  MISS:          0
cpu0_L2C WRITEBACK ACCESS:     186923  HIT:     186922  MISS:          1
LLC TOTAL     ACCESS:     776679  HIT:      37853  MISS:     738826
LLC LOAD      ACCESS:     589497  HIT:          1  MISS:     589496
LLC RFO       ACCESS:          0  HIT:          0  MISS:          0
LLC PREFETCH  ACCESS:          0  HIT:          0  MISS:          0
LLC WRITEBACK ACCESS:     187159  HIT:      37852  MISS:     149307
Heartbeat CPU 0 instructions: 88000001 cycles: 72505906 heartbeat IPC: 0.698009 cumulative IPC: 0.675884 (Simulation time: 1 hr 18 min 25 sec) 

Region of Interest Statistics
cpu0_DTLB TOTAL     ACCESS:    9729609  HIT:    9683151  MISS:      46458
cpu0_DTLB LOAD      ACCESS:    8576933  HIT:    8533119  MISS:      43814
cpu0_DTLB RFO       ACCESS:    1152676  HIT:    1150032  MISS:       2644
cpu0_DTLB PREFETCH  ACCESS:          0  HIT:          0  MISS:          0
cpu0_DTLB WRITEBACK ACCESS:          0  HIT:          0  MISS:          0
cpu0_ITLB TOTAL     ACCESS:     114408  HIT:     114408  MISS:          0
cpu0_ITLB LOAD      ACCESS:     114408  HIT:     114408  MISS:          0
cpu0_ITLB RFO       ACCESS:          0  HIT:          0  MISS:          0
cpu0_ITLB PREFETCH  ACCESS:          0  HIT:          0  MISS:          0
cpu0_ITLB WRITEBACK ACCESS:          0  HIT:          0  MISS:          0
cpu0_STLB TOTAL     ACCESS:      46458  HIT:      36078  MISS:      10380
cpu0_STLB LOAD      ACCESS:      43814  HIT:      33434  MISS:      10380
cpu0_STLB RFO       ACCESS:       2644  HIT:       2644  MISS:          0
cpu0_STLB PREFETCH  ACCESS:          0  HIT:          0  MISS:          0
cpu0_STLB WRITEBACK ACCESS:          0  HIT:          0  MISS:          0
cpu0_L1D TOTAL     ACCESS:    9657766  HIT:    9031854  MISS:     625912
cpu0_L1D LOAD      ACCESS:    7778809  HIT:    7156533  MISS:     622276
cpu0_L1D RFO       ACCESS:    1868579  HIT:    1868579  MISS:          0
cpu0_L1D PREFETCH  ACCESS:          0  HIT:          0  MISS:          0
cpu0_L1D WRITEBACK ACCESS:          0  HIT:          0  MISS:          0
cpu0_L2C TOTAL     ACCESS:     823231  HIT:     200973  MISS:     622258
cpu0_L2C LOAD      ACCESS:     622276  HIT:         44  MISS:     622232
cpu0_L2C RFO       ACCESS:          0  HIT:          0  MISS:          0
cpu0_L2C PREFETCH  ACCESS:          0  HIT:          0  MISS:          0
cpu0_L2C WRITEBACK ACCESS:     197319  HIT:     197318  MISS:          1
LLC TOTAL     ACCESS:     819772  HIT:      39436  MISS:     780336
LLC LOAD      ACCESS:     622232  HIT:          1  MISS:     622231
LLC RFO       ACCESS:          0  HIT:          0  MISS:          0
LLC PREFETCH  ACCESS:          0  HIT:          0  MISS:          0
LLC WRITEBACK ACCESS:     197515  HIT:      39435  MISS:     158080
Heartbeat CPU 0 instructions: 90000004 cycles: 75426068 heartbeat IPC: 0.684895 cumulative IPC: 0.676329 (Simulation time: 1 hr 20 min 42 sec) 

Region of Interest Statistics
cpu0_DTLB TOTAL     ACCESS:   10242089  HIT:   10194995  MISS:      47094
cpu0_DTLB LOAD      ACCESS:    9028191  HIT:    8983745  MISS:      44446
cpu0_DTLB RFO       ACCESS:    1213898  HIT:    1211250  MISS:       2648
cpu0_DTLB PREFETCH  ACCESS:          0  HIT:          0  MISS:          0
cpu0_DTLB WRITEBACK ACCESS:          0  HIT:          0  MISS:          0
cpu0_ITLB TOTAL     ACCESS:     120410  HIT:     120410  MISS:          0
cpu0_ITLB LOAD      ACCESS:     120410  HIT:     120410  MISS:          0
cpu0_ITLB RFO       ACCESS:          0  HIT:          0  MISS:          0
cpu0_ITLB PREFETCH  ACCESS:          0  HIT:          0  MISS:          0
cpu0_ITLB WRITEBACK ACCESS:          0  HIT:          0  MISS:          0
cpu0_STLB TOTAL     ACCESS:      47094  HIT:      36166  MISS:      10928
cpu0_STLB LOAD      ACCESS:      44446  HIT:      33518  MISS:      10928
cpu0_STLB RFO       ACCESS:       2648  HIT:       2648  MISS:          0
cpu0_STLB PREFETCH  ACCESS:          0  HIT:          0  MISS:          0
cpu0_STLB WRITEBACK ACCESS:          0  HIT:          0  MISS:          0
cpu0_L1D TOTAL     ACCESS:   10165903  HIT:    9507066  MISS:     658837
cpu0_L1D LOAD      ACCESS:    8188068  HIT:    7533047  MISS:     655021
cpu0_L1D RFO       ACCESS:    1966909  HIT:    1966909  MISS:          0
cpu0_L1D PREFETCH  ACCESS:          0  HIT:          0  MISS:          0
cpu0_L1D WRITEBACK ACCESS:          0  HIT:          0  MISS:          0
cpu0_L2C TOTAL     ACCESS:     866531  HIT:     211529  MISS:     655002
cpu0_L2C LOAD      ACCESS:     655021  HIT:         47  MISS:     654974
cpu0_L2C RFO       ACCESS:          0  HIT:          0  MISS:          0
cpu0_L2C PREFETCH  ACCESS:          0  HIT:          0  MISS:          0
cpu0_L2C WRITEBACK ACCESS:     207694  HIT:     207692  MISS:          2
LLC TOTAL     ACCESS:     862837  HIT:      42331  MISS:     820506
LLC LOAD      ACCESS:     654974  HIT:          2  MISS:     654972
LLC RFO       ACCESS:          0  HIT:          0  MISS:          0
LLC PREFETCH  ACCESS:          0  HIT:          0  MISS:          0
LLC WRITEBACK ACCESS:     207837  HIT:      42329  MISS:     165508
Heartbeat CPU 0 instructions: 92000001 cycles: 78298760 heartbeat IPC: 0.69621 cumulative IPC: 0.67725 (Simulation time: 1 hr 22 min 53 sec) 

Region of Interest Statistics
cpu0_DTLB TOTAL     ACCESS:   10754424  HIT:   10706691  MISS:      47733
cpu0_DTLB LOAD      ACCESS:    9479479  HIT:    9434398  MISS:      45081
cpu0_DTLB RFO       ACCESS:    1274945  HIT:    1272293  MISS:       2652
cpu0_DTLB PREFETCH  ACCESS:          0  HIT:          0  MISS:          0
cpu0_DTLB WRITEBACK ACCESS:          0  HIT:          0  MISS:          0
cpu0_ITLB TOTAL     ACCESS:     126423  HIT:     126423  MISS:          0
cpu0_ITLB LOAD      ACCESS:     126423  HIT:     126423  MISS:          0
cpu0_ITLB RFO       ACCESS:          0  HIT:          0  MISS:          0
cpu0_ITLB PREFETCH  ACCESS:          0  HIT:          0  MISS:          0
cpu0_ITLB WRITEBACK ACCESS:          0  HIT:          0  MISS:          0
cpu0_STLB TOTAL     ACCESS:      47733  HIT:      36262  MISS:      11471
cpu0_STLB LOAD      ACCESS:      45081  HIT:      33610  MISS:      11471
cpu0_STLB RFO       ACCESS:       2652  HIT:       2652  MISS:          0
cpu0_STLB PREFETCH  ACCESS:          0  HIT:          0  MISS:          0
cpu0_STLB WRITEBACK ACCESS:          0  HIT:          0  MISS:          0
cpu0_L1D TOTAL     ACCESS:   10675776  HIT:    9984012  MISS:     691764
cpu0_L1D LOAD      ACCESS:    8599069  HIT:    7911292  MISS:     687777
cpu0_L1D RFO       ACCESS:    2065238  HIT:    2065238  MISS:          0
cpu0_L1D PREFETCH  ACCESS:          0  HIT:          0  MISS:          0
cpu0_L1D WRITEBACK ACCESS:          0  HIT:          0  MISS:          0
cpu0_L2C TOTAL     ACCESS:     909856  HIT:     222117  MISS:     687739
cpu0_L2C LOAD      ACCESS:     687777  HIT:         66  MISS:     687711
cpu0_L2C RFO       ACCESS:          0  HIT:          0  MISS:          0
cpu0_L2C PREFETCH  ACCESS:          0  HIT:          0  MISS:          0
cpu0_L2C WRITEBACK ACCESS:     218092  HIT:     218090  MISS:          2
LLC TOTAL     ACCESS:     906114  HIT:      45164  MISS:     860950
LLC LOAD      ACCESS:     687711  HIT:          3  MISS:     687708
LLC RFO       ACCESS:          0  HIT:          0  MISS:          0
LLC PREFETCH  ACCESS:          0  HIT:          0  MISS:          0
LLC WRITEBACK ACCESS:     218377  HIT:      45161  MISS:     173216
Heartbeat CPU 0 instructions: 94000000 cycles: 81166845 heartbeat IPC: 0.697329 cumulative IPC: 0.678138 (Simulation time: 1 hr 25 min 9 sec) 

Region of Interest Statistics
cpu0_DTLB TOTAL     ACCESS:   11266473  HIT:   11218103  MISS:      48370
cpu0_DTLB LOAD      ACCESS:    9930319  HIT:    9884607  MISS:      45712
cpu0_DTLB RFO       ACCESS:    1336154  HIT:    1333496  MISS:       2658
cpu0_DTLB PREFETCH  ACCESS:          0  HIT:          0  MISS:          0
cpu0_DTLB WRITEBACK ACCESS:          0  HIT:          0  MISS:          0
cpu0_ITLB TOTAL     ACCESS:     132489  HIT:     132489  MISS:          0
cpu0_ITLB LOAD      ACCESS:     132489  HIT:     132489  MISS:          0
cpu0_ITLB RFO       ACCESS:          0  HIT:          0  MISS:          0
cpu0_ITLB PREFETCH  ACCESS:          0  HIT:          0  MISS:          0
cpu0_ITLB WRITEBACK ACCESS:          0  HIT:          0  MISS:          0
cpu0_STLB TOTAL     ACCESS:      48370  HIT:      36353  MISS:      12017
cpu0_STLB LOAD      ACCESS:      45712  HIT:      33695  MISS:      12017
cpu0_STLB RFO       ACCESS:       2658  HIT:       2658  MISS:          0
cpu0_STLB PREFETCH  ACCESS:          0  HIT:          0  MISS:          0
cpu0_STLB WRITEBACK ACCESS:          0  HIT:          0  MISS:          0
cpu0_L1D TOTAL     ACCESS:   11185738  HIT:   10461049  MISS:     724689
cpu0_L1D LOAD      ACCESS:    9010120  HIT:    8289594  MISS:     720526
cpu0_L1D RFO       ACCESS:    2163603  HIT:    2163603  MISS:          0
cpu0_L1D PREFETCH  ACCESS:          0  HIT:          0  MISS:          0
cpu0_L1D WRITEBACK ACCESS:          0  HIT:          0  MISS:          0
cpu0_L2C TOTAL     ACCESS:     953154  HIT:     232669  MISS:     720485
cpu0_L2C LOAD      ACCESS:     720526  HIT:         70  MISS:     720456
cpu0_L2C RFO       ACCESS:          0  HIT:          0  MISS:          0
cpu0_L2C PREFETCH  ACCESS:          0  HIT:          0  MISS:          0
cpu0_L2C WRITEBACK ACCESS:     228465  HIT:     228463  MISS:          2
LLC TOTAL     ACCESS:     949107  HIT:      46629  MISS:     902478
LLC LOAD      ACCESS:     720456  HIT:          3  MISS:     720453
LLC RFO       ACCESS:          0  HIT:          0  MISS:          0
LLC PREFETCH  ACCESS:          0  HIT:          0  MISS:          0
LLC WRITEBACK ACCESS:     228624  HIT:      46626  MISS:     181998
Heartbeat CPU 0 instructions: 96000002 cycles: 84066561 heartbeat IPC: 0.689723 cumulative IPC: 0.678633 (Simulation time: 1 hr 27 min 25 sec) 

Region of Interest Statistics
cpu0_DTLB TOTAL     ACCESS:   11778130  HIT:   11729158  MISS:      48972
cpu0_DTLB LOAD      ACCESS:   10380830  HIT:   10334519  MISS:      46311
cpu0_DTLB RFO       ACCESS:    1397300  HIT:    1394639  MISS:       2661
cpu0_DTLB PREFETCH  ACCESS:          0  HIT:          0  MISS:          0
cpu0_DTLB WRITEBACK ACCESS:          0  HIT:          0  MISS:          0
cpu0_ITLB TOTAL     ACCESS:     138494  HIT:     138494  MISS:          0
cpu0_ITLB LOAD      ACCESS:     138494  HIT:     138494  MISS:          0
cpu0_ITLB RFO       ACCESS:          0  HIT:          0  MISS:          0
cpu0_ITLB PREFETCH  ACCESS:          0  HIT:          0  MISS:          0
cpu0_ITLB WRITEBACK ACCESS:          0  HIT:          0  MISS:          0
cpu0_STLB TOTAL     ACCESS:      48972  HIT:      36412  MISS:      12560
cpu0_STLB LOAD      ACCESS:      46311  HIT:      33751  MISS:      12560
cpu0_STLB RFO       ACCESS:       2661  HIT:       2661  MISS:          0
cpu0_STLB PREFETCH  ACCESS:          0  HIT:          0  MISS:          0
cpu0_STLB WRITEBACK ACCESS:          0  HIT:          0  MISS:          0
cpu0_L1D TOTAL     ACCESS:   11695276  HIT:   10937674  MISS:     757602
cpu0_L1D LOAD      ACCESS:    9420786  HIT:    8667524  MISS:     753262
cpu0_L1D RFO       ACCESS:    2261932  HIT:    2261932  MISS:          0
cpu0_L1D PREFETCH  ACCESS:          0  HIT:          0  MISS:          0
cpu0_L1D WRITEBACK ACCESS:          0  HIT:          0  MISS:          0
cpu0_L2C TOTAL     ACCESS:     996442  HIT:     243219  MISS:     753223
cpu0_L2C LOAD      ACCESS:     753263  HIT:         70  MISS:     753193
cpu0_L2C RFO       ACCESS:          0  HIT:          0  MISS:          0
cpu0_L2C PREFETCH  ACCESS:          0  HIT:          0  MISS:          0
cpu0_L2C WRITEBACK ACCESS:     238839  HIT:     238837  MISS:          2
LLC TOTAL     ACCESS:     992226  HIT:      48768  MISS:     943458
LLC LOAD      ACCESS:     753193  HIT:          3  MISS:     753190
LLC RFO       ACCESS:          0  HIT:          0  MISS:          0
LLC PREFETCH  ACCESS:          0  HIT:          0  MISS:          0
LLC WRITEBACK ACCESS:     239005  HIT:      48765  MISS:     190240
Heartbeat CPU 0 instructions: 98000001 cycles: 86973116 heartbeat IPC: 0.6881 cumulative IPC: 0.679022 (Simulation time: 1 hr 29 min 42 sec) 

Region of Interest Statistics
cpu0_DTLB TOTAL     ACCESS:   12290383  HIT:   12240784  MISS:      49599
cpu0_DTLB LOAD      ACCESS:   10831858  HIT:   10784924  MISS:      46934
cpu0_DTLB RFO       ACCESS:    1458525  HIT:    1455860  MISS:       2665
cpu0_DTLB PREFETCH  ACCESS:          0  HIT:          0  MISS:          0
cpu0_DTLB WRITEBACK ACCESS:          0  HIT:          0  MISS:          0
cpu0_ITLB TOTAL     ACCESS:     144502  HIT:     144502  MISS:          0
cpu0_ITLB LOAD      ACCESS:     144502  HIT:     144502  MISS:          0
cpu0_ITLB RFO       ACCESS:          0  HIT:          0  MISS:          0
cpu0_ITLB PREFETCH  ACCESS:          0  HIT:          0  MISS:          0
cpu0_ITLB WRITEBACK ACCESS:          0  HIT:          0  MISS:          0
cpu0_STLB TOTAL     ACCESS:      49599  HIT:      36493  MISS:      13106
cpu0_STLB LOAD      ACCESS:      46934  HIT:      33828  MISS:      13106
cpu0_STLB RFO       ACCESS:       2665  HIT:       2665  MISS:          0
cpu0_STLB PREFETCH  ACCESS:          0  HIT:          0  MISS:          0
cpu0_STLB WRITEBACK ACCESS:          0  HIT:          0  MISS:          0
cpu0_L1D TOTAL     ACCESS:   12204565  HIT:   11414067  MISS:     790498
cpu0_L1D LOAD      ACCESS:    9831200  HIT:    9045200  MISS:     786000
cpu0_L1D RFO       ACCESS:    2360261  HIT:    2360261  MISS:          0
cpu0_L1D PREFETCH  ACCESS:          0  HIT:          0  MISS:          0
cpu0_L1D WRITEBACK ACCESS:          0  HIT:          0  MISS:          0
cpu0_L2C TOTAL     ACCESS:    1039739  HIT:     253778  MISS:     785961
cpu0_L2C LOAD      ACCESS:     786000  HIT:         70  MISS:     785930
cpu0_L2C RFO       ACCESS:          0  HIT:          0  MISS:          0
cpu0_L2C PREFETCH  ACCESS:          0  HIT:          0  MISS:          0
cpu0_L2C WRITEBACK ACCESS:     249241  HIT:     249239  MISS:          2
LLC TOTAL     ACCESS:    1035368  HIT:      50408  MISS:     984960
LLC LOAD      ACCESS:     785930  HIT:          3  MISS:     785927
LLC RFO       ACCESS:          0  HIT:          0  MISS:          0
LLC PREFETCH  ACCESS:          0  HIT:          0  MISS:          0
LLC WRITEBACK ACCESS:     249409  HIT:      50405  MISS:     199004
Heartbeat CPU 0 instructions: 100000002 cycles: 89860668 heartbeat IPC: 0.692629 cumulative IPC: 0.679556 (Simulation time: 1 hr 32 min 7 sec) 

Region of Interest Statistics
cpu0_DTLB TOTAL     ACCESS:   12802372  HIT:   12752086  MISS:      50286
cpu0_DTLB LOAD      ACCESS:   11282807  HIT:   11235193  MISS:      47614
cpu0_DTLB RFO       ACCESS:    1519565  HIT:    1516893  MISS:       2672
cpu0_DTLB PREFETCH  ACCESS:          0  HIT:          0  MISS:          0
cpu0_DTLB WRITEBACK ACCESS:          0  HIT:          0  MISS:          0
cpu0_ITLB TOTAL     ACCESS:     150516  HIT:     150516  MISS:          0
cpu0_ITLB LOAD      ACCESS:     150516  HIT:     150516  MISS:          0
cpu0_ITLB RFO       ACCESS:          0  HIT:          0  MISS:          0
cpu0_ITLB PREFETCH  ACCESS:          0  HIT:          0  MISS:          0
cpu0_ITLB WRITEBACK ACCESS:          0  HIT:          0  MISS:          0
cpu0_STLB TOTAL     ACCESS:      50286  HIT:      36637  MISS:      13649
cpu0_STLB LOAD      ACCESS:      47614  HIT:      33965  MISS:      13649
cpu0_STLB RFO       ACCESS:       2672  HIT:       2672  MISS:          0
cpu0_STLB PREFETCH  ACCESS:          0  HIT:          0  MISS:          0
cpu0_STLB WRITEBACK ACCESS:          0  HIT:          0  MISS:          0
cpu0_L1D TOTAL     ACCESS:   12710990  HIT:   11887565  MISS:     823425
cpu0_L1D LOAD      ACCESS:   10238750  HIT:    9420003  MISS:     818747
cpu0_L1D RFO       ACCESS:    2458593  HIT:    2458593  MISS:          0
cpu0_L1D PREFETCH  ACCESS:          0  HIT:          0  MISS:          0
cpu0_L1D WRITEBACK ACCESS:          0  HIT:          0  MISS:          0
cpu0_L2C TOTAL     ACCESS:    1083049  HIT:     264351  MISS:     818698
cpu0_L2C LOAD      ACCESS:     818747  HIT:         81  MISS:     818666
cpu0_L2C RFO       ACCESS:          0  HIT:          0  MISS:          0
cpu0_L2C PREFETCH  ACCESS:          0  HIT:          0  MISS:          0
cpu0_L2C WRITEBACK ACCESS:     259624  HIT:     259622  MISS:          2
LLC TOTAL     ACCESS:    1078434  HIT:      52266  MISS:    1026168
LLC LOAD      ACCESS:     818666  HIT:          3  MISS:     818663
LLC RFO       ACCESS:          0  HIT:          0  MISS:          0
LLC PREFETCH  ACCESS:          0  HIT:          0  MISS:          0
LLC WRITEBACK ACCESS:     259738  HIT:      52263  MISS:     207475
Heartbeat CPU 0 instructions: 102000001 cycles: 92751017 heartbeat IPC: 0.691958 cumulative IPC: 0.680025 (Simulation time: 1 hr 34 min 25 sec) 

Region of Interest Statistics
cpu0_DTLB TOTAL     ACCESS:   13314237  HIT:   13263390  MISS:      50847
cpu0_DTLB LOAD      ACCESS:   11733600  HIT:   11685425  MISS:      48175
cpu0_DTLB RFO       ACCESS:    1580637  HIT:    1577965  MISS:       2672
cpu0_DTLB PREFETCH  ACCESS:          0  HIT:          0  MISS:          0
cpu0_DTLB WRITEBACK ACCESS:          0  HIT:          0  MISS:          0
cpu0_ITLB TOTAL     ACCESS:     156594  HIT:     156594  MISS:          0
cpu0_ITLB LOAD      ACCESS:     156594  HIT:     156594  MISS:          0
cpu0_ITLB RFO       ACCESS:          0  HIT:          0  MISS:          0
cpu0_ITLB PREFETCH  ACCESS:          0  HIT:          0  MISS:          0
cpu0_ITLB WRITEBACK ACCESS:          0  HIT:          0  MISS:          0
cpu0_STLB TOTAL     ACCESS:      50847  HIT:      36637  MISS:      14210
cpu0_STLB LOAD      ACCESS:      48175  HIT:      33965  MISS:      14210
cpu0_STLB RFO       ACCESS:       2672  HIT:       2672  MISS:          0
cpu0_STLB PREFETCH  ACCESS:          0  HIT:          0  MISS:          0
cpu0_STLB WRITEBACK ACCESS:          0  HIT:          0  MISS:          0
cpu0_L1D TOTAL     ACCESS:   13217117  HIT:   12360688  MISS:     856429
cpu0_L1D LOAD      ACCESS:   10645907  HIT:    9794325  MISS:     851582
cpu0_L1D RFO       ACCESS:    2557003  HIT:    2557003  MISS:          0
cpu0_L1D PREFETCH  ACCESS:          0  HIT:          0  MISS:          0
cpu0_L1D WRITEBACK ACCESS:          0  HIT:          0  MISS:          0
cpu0_L2C TOTAL     ACCESS:    1126453  HIT:     274936  MISS:     851517
cpu0_L2C LOAD      ACCESS:     851582  HIT:         99  MISS:     851483
cpu0_L2C RFO       ACCESS:          0  HIT:          0  MISS:          0
cpu0_L2C PREFETCH  ACCESS:          0  HIT:          0  MISS:          0
cpu0_L2C WRITEBACK ACCESS:     270024  HIT:     270022  MISS:          2
LLC TOTAL     ACCESS:    1121569  HIT:      54036  MISS:    1067533
LLC LOAD      ACCESS:     851483  HIT:          3  MISS:     851480
LLC RFO       ACCESS:          0  HIT:          0  MISS:          0
LLC PREFETCH  ACCESS:          0  HIT:          0  MISS:          0
LLC WRITEBACK ACCESS:     270054  HIT:      54033  MISS:     216021
Heartbeat CPU 0 instructions: 104000001 cycles: 95647141 heartbeat IPC: 0.690578 cumulative IPC: 0.68041 (Simulation time: 1 hr 36 min 44 sec) 

Region of Interest Statistics
cpu0_DTLB TOTAL     ACCESS:   13828693  HIT:   13777302  MISS:      51391
cpu0_DTLB LOAD      ACCESS:   12187729  HIT:   12139010  MISS:      48719
cpu0_DTLB RFO       ACCESS:    1640964  HIT:    1638292  MISS:       2672
cpu0_DTLB PREFETCH  ACCESS:          0  HIT:          0  MISS:          0
cpu0_DTLB WRITEBACK ACCESS:          0  HIT:          0  MISS:          0
cpu0_ITLB TOTAL     ACCESS:     162618  HIT:     162618  MISS:          0
cpu0_ITLB LOAD      ACCESS:     162618  HIT:     162618  MISS:          0
cpu0_ITLB RFO       ACCESS:          0  HIT:          0  MISS:          0
cpu0_ITLB PREFETCH  ACCESS:          0  HIT:          0  MISS:          0
cpu0_ITLB WRITEBACK ACCESS:          0  HIT:          0  MISS:          0
cpu0_STLB TOTAL     ACCESS:      51391  HIT:      36637  MISS:      14754
cpu0_STLB LOAD      ACCESS:      48719  HIT:      33965  MISS:      14754
cpu0_STLB RFO       ACCESS:       2672  HIT:       2672  MISS:          0
cpu0_STLB PREFETCH  ACCESS:          0  HIT:          0  MISS:          0
cpu0_STLB WRITEBACK ACCESS:          0  HIT:          0  MISS:          0
cpu0_L1D TOTAL     ACCESS:   13724133  HIT:   12834801  MISS:     889332
cpu0_L1D LOAD      ACCESS:   11054048  HIT:   10169729  MISS:     884319
cpu0_L1D RFO       ACCESS:    2655334  HIT:    2655334  MISS:          0
cpu0_L1D PREFETCH  ACCESS:          0  HIT:          0  MISS:          0
cpu0_L1D WRITEBACK ACCESS:          0  HIT:          0  MISS:          0
cpu0_L2C TOTAL     ACCESS:    1169736  HIT:     285482  MISS:     884254
cpu0_L2C LOAD      ACCESS:     884319  HIT:         99  MISS:     884220
cpu0_L2C RFO       ACCESS:          0  HIT:          0  MISS:          0
cpu0_L2C PREFETCH  ACCESS:          0  HIT:          0  MISS:          0
cpu0_L2C WRITEBACK ACCESS:     280404  HIT:     280402  MISS:          2
LLC TOTAL     ACCESS:    1164745  HIT:      56083  MISS:    1108662
LLC LOAD      ACCESS:     884220  HIT:          3  MISS:     884217
LLC RFO       ACCESS:          0  HIT:          0  MISS:          0
LLC PREFETCH  ACCESS:          0  HIT:          0  MISS:          0
LLC WRITEBACK ACCESS:     280493  HIT:      56080  MISS:     224413
Heartbeat CPU 0 instructions: 106000004 cycles: 98514981 heartbeat IPC: 0.69739 cumulative IPC: 0.681002 (Simulation time: 1 hr 39 min 2 sec) 

Region of Interest Statistics
cpu0_DTLB TOTAL     ACCESS:   14343139  HIT:   14291205  MISS:      51934
cpu0_DTLB LOAD      ACCESS:   12641856  HIT:   12592594  MISS:      49262
cpu0_DTLB RFO       ACCESS:    1701283  HIT:    1698611  MISS:       2672
cpu0_DTLB PREFETCH  ACCESS:          0  HIT:          0  MISS:          0
cpu0_DTLB WRITEBACK ACCESS:          0  HIT:          0  MISS:          0
cpu0_ITLB TOTAL     ACCESS:     168633  HIT:     168633  MISS:          0
cpu0_ITLB LOAD      ACCESS:     168633  HIT:     168633  MISS:          0
cpu0_ITLB RFO       ACCESS:          0  HIT:          0  MISS:          0
cpu0_ITLB PREFETCH  ACCESS:          0  HIT:          0  MISS:          0
cpu0_ITLB WRITEBACK ACCESS:          0  HIT:          0  MISS:          0
cpu0_STLB TOTAL     ACCESS:      51934  HIT:      36637  MISS:      15297
cpu0_STLB LOAD      ACCESS:      49262  HIT:      33965  MISS:      15297
cpu0_STLB RFO       ACCESS:       2672  HIT:       2672  MISS:          0
cpu0_STLB PREFETCH  ACCESS:          0  HIT:          0  MISS:          0
cpu0_STLB WRITEBACK ACCESS:          0  HIT:          0  MISS:          0
cpu0_L1D TOTAL     ACCESS:   14232648  HIT:   13310417  MISS:     922231
cpu0_L1D LOAD      ACCESS:   11463690  HIT:   10546633  MISS:     917057
cpu0_L1D RFO       ACCESS:    2753664  HIT:    2753664  MISS:          0
cpu0_L1D PREFETCH  ACCESS:          0  HIT:          0  MISS:          0
cpu0_L1D WRITEBACK ACCESS:          0  HIT:          0  MISS:          0
cpu0_L2C TOTAL     ACCESS:    1212998  HIT:     296002  MISS:     916996
cpu0_L2C LOAD      ACCESS:     917057  HIT:         99  MISS:     916958
cpu0_L2C RFO       ACCESS:          0  HIT:          0  MISS:          0
cpu0_L2C PREFETCH  ACCESS:          0  HIT:          0  MISS:          0
cpu0_L2C WRITEBACK ACCESS:     290767  HIT:     290765  MISS:          2
LLC TOTAL     ACCESS:    1208077  HIT:      57494  MISS:    1150583
LLC LOAD      ACCESS:     916958  HIT:          3  MISS:     916955
LLC RFO       ACCESS:          0  HIT:          0  MISS:          0
LLC PREFETCH  ACCESS:          0  HIT:          0  MISS:          0
LLC WRITEBACK ACCESS:     291083  HIT:      57491  MISS:     233592
Heartbeat CPU 0 instructions: 108000002 cycles: 101456822 heartbeat IPC: 0.679846 cumulative IPC: 0.680962 (Simulation time: 1 hr 41 min 20 sec) 

Region of Interest Statistics
cpu0_DTLB TOTAL     ACCESS:   14857554  HIT:   14805074  MISS:      52480
cpu0_DTLB LOAD      ACCESS:   13095932  HIT:   13046124  MISS:      49808
cpu0_DTLB RFO       ACCESS:    1761622  HIT:    1758950  MISS:       2672
cpu0_DTLB PREFETCH  ACCESS:          0  HIT:          0  MISS:          0
cpu0_DTLB WRITEBACK ACCESS:          0  HIT:          0  MISS:          0
cpu0_ITLB TOTAL     ACCESS:     174709  HIT:     174709  MISS:          0
cpu0_ITLB LOAD      ACCESS:     174709  HIT:     174709  MISS:          0
cpu0_ITLB RFO       ACCESS:          0  HIT:          0  MISS:          0
cpu0_ITLB PREFETCH  ACCESS:          0  HIT:          0  MISS:          0
cpu0_ITLB WRITEBACK ACCESS:          0  HIT:          0  MISS:          0
cpu0_STLB TOTAL     ACCESS:      52480  HIT:      36637  MISS:      15843
cpu0_STLB LOAD      ACCESS:      49808  HIT:      33965  MISS:      15843
cpu0_STLB RFO       ACCESS:       2672  HIT:       2672  MISS:          0
cpu0_STLB PREFETCH  ACCESS:          0  HIT:          0  MISS:          0
cpu0_STLB WRITEBACK ACCESS:          0  HIT:          0  MISS:          0
cpu0_L1D TOTAL     ACCESS:   14743319  HIT:   13788204  MISS:     955115
cpu0_L1D LOAD      ACCESS:   11875451  HIT:   10925656  MISS:     949795
cpu0_L1D RFO       ACCESS:    2852028  HIT:    2852028  MISS:          0
cpu0_L1D PREFETCH  ACCESS:          0  HIT:          0  MISS:          0
cpu0_L1D WRITEBACK ACCESS:          0  HIT:          0  MISS:          0
cpu0_L2C TOTAL     ACCESS:    1256276  HIT:     306541  MISS:     949735
cpu0_L2C LOAD      ACCESS:     949795  HIT:         99  MISS:     949696
cpu0_L2C RFO       ACCESS:          0  HIT:          0  MISS:          0
cpu0_L2C PREFETCH  ACCESS:          0  HIT:          0  MISS:          0
cpu0_L2C WRITEBACK ACCESS:     301161  HIT:     301159  MISS:          2
LLC TOTAL     ACCESS:    1251144  HIT:      60140  MISS:    1191004
LLC LOAD      ACCESS:     949696  HIT:          3  MISS:     949693
LLC RFO       ACCESS:          0  HIT:          0  MISS:          0
LLC PREFETCH  ACCESS:          0  HIT:          0  MISS:          0
LLC WRITEBACK ACCESS:     301411  HIT:      60137  MISS:     241274
Heartbeat CPU 0 instructions: 110000004 cycles: 104332493 heartbeat IPC: 0.695491 cumulative IPC: 0.681437 (Simulation time: 1 hr 43 min 33 sec) 

Region of Interest Statistics
cpu0_DTLB TOTAL     ACCESS:   15371800  HIT:   15318776  MISS:      53024
cpu0_DTLB LOAD      ACCESS:   13549820  HIT:   13499468  MISS:      50352
cpu0_DTLB RFO       ACCESS:    1821980  HIT:    1819308  MISS:       2672
cpu0_DTLB PREFETCH  ACCESS:          0  HIT:          0  MISS:          0
cpu0_DTLB WRITEBACK ACCESS:          0  HIT:          0  MISS:          0
cpu0_ITLB TOTAL     ACCESS:     180729  HIT:     180729  MISS:          0
cpu0_ITLB LOAD      ACCESS:     180729  HIT:     180729  MISS:          0
cpu0_ITLB RFO       ACCESS:          0  HIT:          0  MISS:          0
cpu0_ITLB PREFETCH  ACCESS:          0  HIT:          0  MISS:          0
cpu0_ITLB WRITEBACK ACCESS:          0  HIT:          0  MISS:          0
cpu0_STLB TOTAL     ACCESS:      53024  HIT:      36637  MISS:      16387
cpu0_STLB LOAD      ACCESS:      50352  HIT:      33965  MISS:      16387
cpu0_STLB RFO       ACCESS:       2672  HIT:       2672  MISS:          0
cpu0_STLB PREFETCH  ACCESS:          0  HIT:          0  MISS:          0
cpu0_STLB WRITEBACK ACCESS:          0  HIT:          0  MISS:          0
cpu0_L1D TOTAL     ACCESS:   15254501  HIT:   14266487  MISS:     988014
cpu0_L1D LOAD      ACCESS:   12287759  HIT:   11305228  MISS:     982531
cpu0_L1D RFO       ACCESS:    2950358  HIT:    2950358  MISS:          0
cpu0_L1D PREFETCH  ACCESS:          0  HIT:          0  MISS:          0
cpu0_L1D WRITEBACK ACCESS:          0  HIT:          0  MISS:          0
cpu0_L2C TOTAL     ACCESS:    1299572  HIT:     317100  MISS:     982472
cpu0_L2C LOAD      ACCESS:     982531  HIT:         99  MISS:     982432
cpu0_L2C RFO       ACCESS:          0  HIT:          0  MISS:          0
cpu0_L2C PREFETCH  ACCESS:          0  HIT:          0  MISS:          0
cpu0_L2C WRITEBACK ACCESS:     311558  HIT:     311556  MISS:          2
LLC TOTAL     ACCESS:    1294155  HIT:      62123  MISS:    1232032
LLC LOAD      ACCESS:     982432  HIT:          3  MISS:     982429
LLC RFO       ACCESS:          0  HIT:          0  MISS:          0
LLC PREFETCH  ACCESS:          0  HIT:          0  MISS:          0
LLC WRITEBACK ACCESS:     311685  HIT:      62120  MISS:     249565
Heartbeat CPU 0 instructions: 112000000 cycles: 107208031 heartbeat IPC: 0.695521 cumulative IPC: 0.681882 (Simulation time: 1 hr 45 min 53 sec) 

Region of Interest Statistics
cpu0_DTLB TOTAL     ACCESS:   15886250  HIT:   15832683  MISS:      53567
cpu0_DTLB LOAD      ACCESS:   14003957  HIT:   13953062  MISS:      50895
cpu0_DTLB RFO       ACCESS:    1882293  HIT:    1879621  MISS:       2672
cpu0_DTLB PREFETCH  ACCESS:          0  HIT:          0  MISS:          0
cpu0_DTLB WRITEBACK ACCESS:          0  HIT:          0  MISS:          0
cpu0_ITLB TOTAL     ACCESS:     186743  HIT:     186743  MISS:          0
cpu0_ITLB LOAD      ACCESS:     186743  HIT:     186743  MISS:          0
cpu0_ITLB RFO       ACCESS:          0  HIT:          0  MISS:          0
cpu0_ITLB PREFETCH  ACCESS:          0  HIT:          0  MISS:          0
cpu0_ITLB WRITEBACK ACCESS:          0  HIT:          0  MISS:          0
cpu0_STLB TOTAL     ACCESS:      53567  HIT:      36637  MISS:      16930
cpu0_STLB LOAD      ACCESS:      50895  HIT:      33965  MISS:      16930
cpu0_STLB RFO       ACCESS:       2672  HIT:       2672  MISS:          0
cpu0_STLB PREFETCH  ACCESS:          0  HIT:          0  MISS:          0
cpu0_STLB WRITEBACK ACCESS:          0  HIT:          0  MISS:          0
cpu0_L1D TOTAL     ACCESS:   15765297  HIT:   14744393  MISS:    1020904
cpu0_L1D LOAD      ACCESS:   12699683  HIT:   11684415  MISS:    1015268
cpu0_L1D RFO       ACCESS:    3048687  HIT:    3048687  MISS:          0
cpu0_L1D PREFETCH  ACCESS:          0  HIT:          0  MISS:          0
cpu0_L1D WRITEBACK ACCESS:          0  HIT:          0  MISS:          0
cpu0_L2C TOTAL     ACCESS:    1342852  HIT:     327643  MISS:    1015209
cpu0_L2C LOAD      ACCESS:    1015268  HIT:         99  MISS:    1015169
cpu0_L2C RFO       ACCESS:          0  HIT:          0  MISS:          0
cpu0_L2C PREFETCH  ACCESS:          0  HIT:          0  MISS:          0
cpu0_L2C WRITEBACK ACCESS:     321948  HIT:     321946  MISS:          2
LLC TOTAL     ACCESS:    1337387  HIT:      64349  MISS:    1273038
LLC LOAD      ACCESS:    1015169  HIT:          3  MISS:    1015166
LLC RFO       ACCESS:          0  HIT:          0  MISS:          0
LLC PREFETCH  ACCESS:          0  HIT:          0  MISS:          0
LLC WRITEBACK ACCESS:     322180  HIT:      64346  MISS:     257834
Heartbeat CPU 0 instructions: 114000003 cycles: 110081678 heartbeat IPC: 0.695981 cumulative IPC: 0.682314 (Simulation time: 1 hr 48 min 11 sec) 

Region of Interest Statistics
cpu0_DTLB TOTAL     ACCESS:   16400806  HIT:   16346694  MISS:      54112
cpu0_DTLB LOAD      ACCESS:   14458145  HIT:   14406705  MISS:      51440
cpu0_DTLB RFO       ACCESS:    1942661  HIT:    1939989  MISS:       2672
cpu0_DTLB PREFETCH  ACCESS:          0  HIT:          0  MISS:          0
cpu0_DTLB WRITEBACK ACCESS:          0  HIT:          0  MISS:          0
cpu0_ITLB TOTAL     ACCESS:     192751  HIT:     192751  MISS:          0
cpu0_ITLB LOAD      ACCESS:     192751  HIT:     192751  MISS:          0
cpu0_ITLB RFO       ACCESS:          0  HIT:          0  MISS:          0
cpu0_ITLB PREFETCH  ACCESS:          0  HIT:          0  MISS:          0
cpu0_ITLB WRITEBACK ACCESS:          0  HIT:          0  MISS:          0
cpu0_STLB TOTAL     ACCESS:      54112  HIT:      36637  MISS:      17475
cpu0_STLB LOAD      ACCESS:      51440  HIT:      33965  MISS:      17475
cpu0_STLB RFO       ACCESS:       2672  HIT:       2672  MISS:          0
cpu0_STLB PREFETCH  ACCESS:          0  HIT:          0  MISS:          0
cpu0_STLB WRITEBACK ACCESS:          0  HIT:          0  MISS:          0
cpu0_L1D TOTAL     ACCESS:   16276482  HIT:   15222661  MISS:    1053821
cpu0_L1D LOAD      ACCESS:   13111992  HIT:   12063986  MISS:    1048006
cpu0_L1D RFO       ACCESS:    3147018  HIT:    3147018  MISS:          0
cpu0_L1D PREFETCH  ACCESS:          0  HIT:          0  MISS:          0
cpu0_L1D WRITEBACK ACCESS:          0  HIT:          0  MISS:          0
cpu0_L2C TOTAL     ACCESS:    1386117  HIT:     338166  MISS:    1047951
cpu0_L2C LOAD      ACCESS:    1048006  HIT:         99  MISS:    1047907
cpu0_L2C RFO       ACCESS:          0  HIT:          0  MISS:          0
cpu0_L2C PREFETCH  ACCESS:          0  HIT:          0  MISS:          0
cpu0_L2C WRITEBACK ACCESS:     332296  HIT:     332294  MISS:          2
LLC TOTAL     ACCESS:    1380492  HIT:      66228  MISS:    1314264
LLC LOAD      ACCESS:    1047907  HIT:          3  MISS:    1047904
LLC RFO       ACCESS:          0  HIT:          0  MISS:          0
LLC PREFETCH  ACCESS:          0  HIT:          0  MISS:          0
LLC WRITEBACK ACCESS:     332543  HIT:      66225  MISS:     266318
Heartbeat CPU 0 instructions: 116000001 cycles: 112996152 heartbeat IPC: 0.686229 cumulative IPC: 0.682432 (Simulation time: 1 hr 50 min 17 sec) 

Region of Interest Statistics
cpu0_DTLB TOTAL     ACCESS:   16915014  HIT:   16860356  MISS:      54658
cpu0_DTLB LOAD      ACCESS:   14912041  HIT:   14860055  MISS:      51986
cpu0_DTLB RFO       ACCESS:    2002973  HIT:    2000301  MISS:       2672
[...]
cpu0_DTLB LOAD      ACCESS:  361636838  HIT:  360007808  MISS:    1629030
cpu0_DTLB RFO       ACCESS:   49313186  HIT:   49210026  MISS:     103160
cpu0_DTLB PREFETCH  ACCESS:          0  HIT:          0  MISS:          0
cpu0_DTLB WRITEBACK ACCESS:          0  HIT:          0  MISS:          0
cpu0_ITLB TOTAL     ACCESS:    7413992  HIT:    7413982  MISS:         10
cpu0_ITLB LOAD      ACCESS:    7413992  HIT:    7413982  MISS:         10
cpu0_ITLB RFO       ACCESS:          0  HIT:          0  MISS:          0
cpu0_ITLB PREFETCH  ACCESS:          0  HIT:          0  MISS:          0
cpu0_ITLB WRITEBACK ACCESS:          0  HIT:          0  MISS:          0
cpu0_L1I TOTAL     ACCESS:   18956994  HIT:   18956873  MISS:        121
cpu0_L1I LOAD      ACCESS:   18956994  HIT:   18956873  MISS:        121
cpu0_L1I RFO       ACCESS:          0  HIT:          0  MISS:          0
cpu0_L1I PREFETCH  ACCESS:          0  HIT:          0  MISS:          0
cpu0_L1I WRITEBACK ACCESS:          0  HIT:          0  MISS:          0
cpu0_STLB TOTAL     ACCESS:    1732200  HIT:     883251  MISS:     848949
cpu0_STLB LOAD      ACCESS:    1629040  HIT:     780111  MISS:     848929
cpu0_STLB RFO       ACCESS:     103160  HIT:     103140  MISS:         20
cpu0_STLB PREFETCH  ACCESS:          0  HIT:          0  MISS:          0
cpu0_STLB WRITEBACK ACCESS:          0  HIT:          0  MISS:          0
cpu0_L1D TOTAL     ACCESS:  416779560  HIT:  392232303  MISS:   24547257
cpu0_L1D LOAD      ACCESS:  338716089  HIT:  314295125  MISS:   24420964
cpu0_L1D RFO       ACCESS:   77247027  HIT:   77247009  MISS:         18
cpu0_L1D PREFETCH  ACCESS:          0  HIT:          0  MISS:          0
cpu0_L1D WRITEBACK ACCESS:          0  HIT:          0  MISS:          0
cpu0_L2C TOTAL     ACCESS:   32729165  HIT:    8308729  MISS:   24420436
cpu0_L2C LOAD      ACCESS:   24421085  HIT:       2267  MISS:   24418818
cpu0_L2C RFO       ACCESS:         18  HIT:          0  MISS:         18
cpu0_L2C PREFETCH  ACCESS:          0  HIT:          0  MISS:          0
cpu0_L2C WRITEBACK ACCESS:    8181787  HIT:    8181719  MISS:         68
LLC TOTAL     ACCESS:   32601186  HIT:    1570174  MISS:   31031012
LLC LOAD      ACCESS:   24418818  HIT:         32  MISS:   24418786
LLC RFO       ACCESS:         18  HIT:          4  MISS:         14
LLC PREFETCH  ACCESS:          0  HIT:          0  MISS:          0
LLC WRITEBACK ACCESS:    8180818  HIT:    1570130  MISS:    6610688
Heartbeat CPU 0 instructions: 1550000004 cycles: 2295822771 heartbeat IPC: 0.553399 cumulative IPC: 0.658028 (Simulation time: 18 hr 22 min 18 sec) 

Region of Interest Statistics
cpu0_DTLB TOTAL     ACCESS:  411772025  HIT:  410027025  MISS:    1745000
cpu0_DTLB LOAD      ACCESS:  362353899  HIT:  360713576  MISS:    1640323
cpu0_DTLB RFO       ACCESS:   49418126  HIT:   49313449  MISS:     104677
cpu0_DTLB PREFETCH  ACCESS:          0  HIT:          0  MISS:          0
cpu0_DTLB WRITEBACK ACCESS:          0  HIT:          0  MISS:          0
cpu0_ITLB TOTAL     ACCESS:    7453099  HIT:    7453089  MISS:         10
cpu0_ITLB LOAD      ACCESS:    7453099  HIT:    7453089  MISS:         10
cpu0_ITLB RFO       ACCESS:          0  HIT:          0  MISS:          0
cpu0_ITLB PREFETCH  ACCESS:          0  HIT:          0  MISS:          0
cpu0_ITLB WRITEBACK ACCESS:          0  HIT:          0  MISS:          0
cpu0_L1I TOTAL     ACCESS:   19174390  HIT:   19174269  MISS:        121
cpu0_L1I LOAD      ACCESS:   19174390  HIT:   19174269  MISS:        121
cpu0_L1I RFO       ACCESS:          0  HIT:          0  MISS:          0
cpu0_L1I PREFETCH  ACCESS:          0  HIT:          0  MISS:          0
cpu0_L1I WRITEBACK ACCESS:          0  HIT:          0  MISS:          0
cpu0_STLB TOTAL     ACCESS:    1745010  HIT:     890477  MISS:     854533
cpu0_STLB LOAD      ACCESS:    1640333  HIT:     785820  MISS:     854513
cpu0_STLB RFO       ACCESS:     104677  HIT:     104657  MISS:         20
cpu0_STLB PREFETCH  ACCESS:          0  HIT:          0  MISS:          0
cpu0_STLB WRITEBACK ACCESS:          0  HIT:          0  MISS:          0
cpu0_L1D TOTAL     ACCESS:  417705843  HIT:  393127102  MISS:   24578741
cpu0_L1D LOAD      ACCESS:  339497880  HIT:  315045556  MISS:   24452324
cpu0_L1D RFO       ACCESS:   77386243  HIT:   77386225  MISS:         18
cpu0_L1D PREFETCH  ACCESS:          0  HIT:          0  MISS:          0
cpu0_L1D WRITEBACK ACCESS:          0  HIT:          0  MISS:          0
cpu0_L2C TOTAL     ACCESS:   32775558  HIT:    8323759  MISS:   24451799
cpu0_L2C LOAD      ACCESS:   24452445  HIT:       2267  MISS:   24450178
cpu0_L2C RFO       ACCESS:         18  HIT:          0  MISS:         18
cpu0_L2C PREFETCH  ACCESS:          0  HIT:          0  MISS:          0
cpu0_L2C WRITEBACK ACCESS:    8196696  HIT:    8196628  MISS:         68
LLC TOTAL     ACCESS:   32647458  HIT:    1571675  MISS:   31075783
LLC LOAD      ACCESS:   24450178  HIT:         32  MISS:   24450146
LLC RFO       ACCESS:         18  HIT:          4  MISS:         14
LLC PREFETCH  ACCESS:          0  HIT:          0  MISS:          0
LLC WRITEBACK ACCESS:    8195727  HIT:    1571631  MISS:    6624096
Finished CPU 0 instructions: 1500000001 cycles: 2279539512 cumulative IPC: 0.658028 (Simulation time: 18 hr 22 min 18 sec) 

ChampSim completed all CPUs

Region of Interest Statistics

CPU 0 cumulative IPC: 0.658028 instructions: 1500000001 cycles: 2279539512
cpu0_DTLB TOTAL     ACCESS:  411772025  HIT:  410027025  MISS:    1745000
cpu0_DTLB LOAD      ACCESS:  362353899  HIT:  360713576  MISS:    1640323
cpu0_DTLB RFO       ACCESS:   49418126  HIT:   49313449  MISS:     104677
cpu0_DTLB PREFETCH  ACCESS:          0  HIT:          0  MISS:          0
cpu0_DTLB WRITEBACK ACCESS:          0  HIT:          0  MISS:          0
cpu0_DTLB TRANSLATION ACCESS:          0  HIT:          0  MISS:          0
cpu0_DTLB PREFETCH  REQUESTED:          0  ISSUED:          0  USEFUL:          0  USELESS:          0
cpu0_DTLB AVERAGE MISS LATENCY: 89.5499 cycles
cpu0_ITLB TOTAL     ACCESS:    7453099  HIT:    7453089  MISS:         10
cpu0_ITLB LOAD      ACCESS:    7453099  HIT:    7453089  MISS:         10
cpu0_ITLB RFO       ACCESS:          0  HIT:          0  MISS:          0
cpu0_ITLB PREFETCH  ACCESS:          0  HIT:          0  MISS:          0
cpu0_ITLB WRITEBACK ACCESS:          0  HIT:          0  MISS:          0
cpu0_ITLB TRANSLATION ACCESS:          0  HIT:          0  MISS:          0
cpu0_ITLB PREFETCH  REQUESTED:          0  ISSUED:          0  USEFUL:          0  USELESS:          0
cpu0_ITLB AVERAGE MISS LATENCY: 328 cycles
cpu0_L1I TOTAL     ACCESS:   19174390  HIT:   19174269  MISS:        121
cpu0_L1I LOAD      ACCESS:   19174390  HIT:   19174269  MISS:        121
cpu0_L1I RFO       ACCESS:          0  HIT:          0  MISS:          0
cpu0_L1I PREFETCH  ACCESS:          0  HIT:          0  MISS:          0
cpu0_L1I WRITEBACK ACCESS:          0  HIT:          0  MISS:          0
cpu0_L1I TRANSLATION ACCESS:          0  HIT:          0  MISS:          0
cpu0_L1I PREFETCH  REQUESTED:          0  ISSUED:          0  USEFUL:          0  USELESS:          0
cpu0_L1I AVERAGE MISS LATENCY: 381.19 cycles
cpu0_STLB TOTAL     ACCESS:    1745010  HIT:     890477  MISS:     854533
cpu0_STLB LOAD      ACCESS:    1640333  HIT:     785820  MISS:     854513
cpu0_STLB RFO       ACCESS:     104677  HIT:     104657  MISS:         20
cpu0_STLB PREFETCH  ACCESS:          0  HIT:          0  MISS:          0
cpu0_STLB WRITEBACK ACCESS:          0  HIT:          0  MISS:          0
cpu0_STLB TRANSLATION ACCESS:          0  HIT:          0  MISS:          0
cpu0_STLB PREFETCH  REQUESTED:          0  ISSUED:          0  USEFUL:          0  USELESS:          0
cpu0_STLB AVERAGE MISS LATENCY: 164.386 cycles
cpu0_L1D TOTAL     ACCESS:  417705843  HIT:  393127102  MISS:   24578741
cpu0_L1D LOAD      ACCESS:  339497880  HIT:  315045556  MISS:   24452324
cpu0_L1D RFO       ACCESS:   77386243  HIT:   77386225  MISS:         18
cpu0_L1D PREFETCH  ACCESS:          0  HIT:          0  MISS:          0
cpu0_L1D WRITEBACK ACCESS:          0  HIT:          0  MISS:          0
cpu0_L1D TRANSLATION ACCESS:     821720  HIT:     695321  MISS:     126399
cpu0_L1D PREFETCH  REQUESTED:          0  ISSUED:          0  USEFUL:          0  USELESS:          0
cpu0_L1D AVERAGE MISS LATENCY: 451.476 cycles
cpu0_L2C TOTAL     ACCESS:   32775558  HIT:    8323759  MISS:   24451799
cpu0_L2C LOAD      ACCESS:   24452445  HIT:       2267  MISS:   24450178
cpu0_L2C RFO       ACCESS:         18  HIT:          0  MISS:         18
cpu0_L2C PREFETCH  ACCESS:          0  HIT:          0  MISS:          0
cpu0_L2C WRITEBACK ACCESS:    8196696  HIT:    8196628  MISS:         68
cpu0_L2C TRANSLATION ACCESS:     126399  HIT:     124864  MISS:       1535
cpu0_L2C PREFETCH  REQUESTED:          0  ISSUED:          0  USEFUL:          0  USELESS:          0
cpu0_L2C AVERAGE MISS LATENCY: 442.737 cycles
LLC TOTAL     ACCESS:   32647458  HIT:    1571675  MISS:   31075783
LLC LOAD      ACCESS:   24450178  HIT:         32  MISS:   24450146
LLC RFO       ACCESS:         18  HIT:          4  MISS:         14
LLC PREFETCH  ACCESS:          0  HIT:          0  MISS:          0
LLC WRITEBACK ACCESS:    8195727  HIT:    1571631  MISS:    6624096
LLC TRANSLATION ACCESS:       1535  HIT:          8  MISS:       1527
LLC PREFETCH  REQUESTED:          0  ISSUED:          0  USEFUL:          0  USELESS:          0
LLC AVERAGE MISS LATENCY: 331.841 cycles
~~~~~~~~~~Reuse Distance Profiler output~~~~~~~~~~
0	0	0
1	0	0
2	0	0
3	0	0
4	0	0
5	0	0
6	0	0
7	0	0
8	0	0
9	0	0
10	0	0
11	0	0
12	0	0
13	0	0
14	0	0
15	0	0
16	0	0
17	0	0
18	0	0
19	0	0
20	0	0
21	0	0
22	0	0
23	0	0
24	0	0
25	0	0
26	0	0
27	0	0
28	0	0
29	0	0
30	0	0
31	0	0
32	0	0
33	0	0
34	0	0
35	0	0
36	0	0
37	0	0
38	0	0
39	0	0
40	0	0
41	0	0
42	0	0
43	0	0
44	0	0
45	0	0
46	0	0
47	0	0
48	0	0
49	0	0
50	0	0
51	0	0
52	0	0
53	0	0
54	0	0
55	0	0
56	0	0
57	0	0
58	0	0
59	0	0
60	0	0
61	0	0
62	0	0
63	0	0
64	0	0
66	0	0
68	0	0
70	0	0
72	0	0
74	0	0
76	0	0
78	0	0
80	0	0
82	0	0
84	0	0
86	0	0
88	0	0
90	0	0
92	0	0
94	0	0
96	0	0
98	0	0
100	0	0
102	0	0
104	0	0
106	0	0
108	0	0
110	0	0
112	0	0
114	0	0
116	0	0
118	0	0
120	0	0
122	0	0
124	0	0
126	0	0
128	0	0
132	0	0
136	0	0
140	0	0
144	0	0
148	0	0
152	0	0
156	0	0
160	0	0
164	0	0
168	0	0
172	0	0
176	0	0
180	0	0
184	0	0
188	0	0
192	0	0
196	0	0
200	0	0
204	0	0
208	0	0
212	0	0
216	0	0
220	0	0
224	0	0
228	0	0
232	0	0
236	0	0
240	0	0
244	0	0
248	0	0
252	0	0
256	0	0
264	0	0
272	0	0
280	0	0
288	0	0
296	0	0
304	0	0
312	0	0
320	0	0
328	0	0
336	0	0
344	0	0
352	0	0
360	0	0
368	0	0
376	0	0
384	0	0
392	0	0
400	0	0
408	0	0
416	0	0
424	0	0
432	0	0
440	0	0
448	0	0
456	0	0
464	0	0
472	0	0
480	0	0
488	0	0
496	0	0
504	0	0
512	0	0
528	0	0
544	0	0
560	0	0
576	0	0
592	0	0
608	0	0
624	0	0
640	0	0
656	0	0
672	0	0
688	0	0
704	0	0
720	0	0
736	0	0
752	0	0
768	0	0
784	0	0
800	0	0
816	0	0
832	0	0
848	0	0
864	0	0
880	0	0
896	0	0
912	0	0
928	0	0
944	0	0
960	0	0
976	0	0
992	0	0
1008	0	0
1024	0	0
1056	0	0
1088	0	0
1120	0	0
1152	0	0
1184	0	0
1216	0	0
1248	0	0
1280	0	0
1312	0	0
1344	0	0
1376	0	0
1408	0	0
1440	0	0
1472	0	0
1504	0	0
1536	0	0
1568	0	0
1600	0	0
1632	0	0
1664	0	0
1696	0	0
1728	0	0
1760	0	0
1792	0	0
1824	0	0
1856	0	0
1888	0	0
1920	0	0
1952	0	0
1984	0	0
2016	0	0
2048	0	0
2112	0	0
2176	0	0
2240	0	0
2304	0	0
2368	0	0
2432	0	0
2496	0	0
2560	0	0
2624	0	0
2688	0	0
2752	0	0
2816	0	0
2880	0	0
2944	0	0
3008	0	0
3072	0	0
3136	0	0
3200	0	0
3264	0	0
3328	0	0
3392	0	0
3456	0	0
3520	0	0
3584	0	0
3648	0	0
3712	0	0
3776	0	0
3840	0	0
3904	0	0
3968	0	0
4032	0	0
4096	0	0
4224	0	0
4352	0	0
4480	0	0
4608	0	0
4736	0	0
4864	0	0
4992	0	0
5120	0	0
5248	0	0
5376	0	0
5504	0	0
5632	0	0
5760	0	0
5888	0	0
6016	0	0
6144	0	0
6272	0	0
6400	0	0
6528	0	0
6656	0	0
6784	0	0
6912	0	0
7040	0	0
7168	0	0
7296	0	0
7424	0	0
7552	0	0
7680	0	0
7808	0	0
7936	0	0
8064	0	0
8192	0	0
8448	0	0
8704	0	0
8960	0	0
9216	0	0
9472	0	0
9728	0	0
9984	0	0
10240	0	0
10496	0	0
10752	0	0
11008	0	0
11264	0	0
11520	0	0
11776	0	0
12032	0	0
12288	0	0
12544	0	0
12800	0	0
13056	0	0
13312	0	0
13568	0	0
13824	0	0
14080	0	0
14336	0	0
14592	0	0
14848	0	0
15104	0	0
15360	0	0
15616	0	0
15872	0	0
16128	0	0
16384	0	0
16896	0	0
17408	0	0
17920	0	0
18432	0	0
18944	0	0
19456	0	0
19968	0	0
20480	0	0
20992	0	0
21504	0	0
22016	0	0
22528	0	0
23040	0	0
23552	0	0
24064	0	0
24576	0	0
25088	0	0
25600	0	0
26112	0	0
26624	0	0
27136	0	0
27648	0	0
28160	0	0
28672	0	0
29184	0	0
29696	0	0
30208	0	0
30720	0	0
31232	0	0
31744	0	0
32256	0	0
32768	0	0
33792	0	0
34816	0	0
35840	0	0
36864	0	0
37888	0	0
38912	0	0
39936	0	0
40960	0	0
41984	0	0
43008	0	0
44032	0	0
45056	0	0
46080	0	0
47104	0	0
48128	0	0
49152	0	0
50176	0	0
51200	0	0
52224	0	0
53248	0	0
54272	0	0
55296	0	0
56320	0	0
57344	0	0
58368	0	0
59392	0	0
60416	0	0
61440	0	0
62464	0	0
63488	0	0
64512	0	0
65536	0	0
67584	0	0
69632	0	0
71680	0	0
73728	0	0
75776	0	0
77824	0	0
79872	0	0
81920	0	0
83968	0	0
86016	0	0
88064	0	0
90112	0	0
92160	0	0
94208	0	0
96256	0	0
98304	0	0
100352	0	0
102400	0	0
104448	0	0
106496	0	0
108544	0	0
110592	0	0
112640	0	0
114688	0	0
116736	0	0
118784	0	0
120832	0	0
122880	0	0
124928	0	0
126976	0	0
129024	0	0
131072	0	0
135168	0	0
139264	0	0
143360	0	0
147456	0	0
151552	0	0
155648	0	0
159744	0	0
163840	0	0
167936	0	0
172032	0	0
176128	0	0
180224	0	0
184320	0	0
188416	0	0
192512	0	0
196608	0	0
200704	0	0
204800	0	0
208896	0	0
212992	0	0
217088	0	0
221184	0	0
225280	0	0
229376	0	0
233472	0	0
237568	0	0
241664	0	0
245760	0	0
249856	0	0
253952	0	0
258048	0	0
262144	0	0
270336	0	0
278528	0	0
286720	0	0
294912	0	0
303104	0	0
311296	0	0
319488	0	0
327680	0	0
335872	0	0
344064	0	0
352256	0	0
360448	0	0
368640	0	0
376832	0	0
385024	0	0
393216	0	0
401408	0	0
409600	0	0
417792	0	0
425984	0	0
434176	0	0
442368	0	0
450560	0	0
458752	0	0
466944	0	0
475136	0	0
483328	0	0
491520	0	0
499712	0	0
507904	0	0
516096	0	0
524288	0	0
540672	0	0
557056	0	0
573440	0	0
589824	0	0
606208	0	0
622592	0	0
638976	0	0
655360	0	0
671744	0	0
688128	0	0
704512	0	0
720896	0	0
737280	0	0
753664	0	0
770048	0	0
786432	0	0
802816	0	0
819200	0	0
835584	0	0
851968	0	0
868352	0	0
884736	0	0
901120	0	0
917504	0	0
933888	0	0
950272	0	0
966656	0	0
983040	0	0
999424	0	0
1015808	0	0
1032192	0	0
1048576	0	0
1081344	0	0
1114112	0	0
1146880	0	0
1179648	0	0
1212416	0	0
1245184	0	0
1277952	0	0
1310720	0	0
1343488	0	0
1376256	0	0
1409024	0	0
1441792	0	0
1474560	0	0
1507328	0	0
1540096	0	0
1572864	0	0
1605632	0	0
1638400	0	0
1671168	0	0
1703936	0	0
1736704	0	0
1769472	0	0
1802240	0	0
1835008	0	0
1867776	0	0
1900544	0	0
1933312	0	0
1966080	0	0
1998848	0	0
2031616	0	0
2064384	0	0
2097152	0	0
2162688	0	0
2228224	0	0
2293760	0	0
2359296	0	0
2424832	0	0
2490368	0	0
2555904	0	0
2621440	0	0
2686976	0	0
2752512	0	0
2818048	0	0
2883584	0	0
2949120	0	0
3014656	0	0
3080192	0	0
3145728	0	0
3211264	0	0
3276800	0	0
3342336	0	0
3407872	0	0
3473408	0	0
3538944	0	0
3604480	0	0
3670016	0	0
3735552	0	0
3801088	0	0
3866624	0	0
3932160	0	0
3997696	0	0
4063232	0	0
4128768	0	0
4194304	0	0
4325376	0	0
4456448	0	0
4587520	0	0
4718592	0	0
4849664	0	0
4980736	0	0
5111808	0	0
5242880	0	0
5373952	0	0
5505024	0	0
5636096	0	0
5767168	0	0
5898240	0	0
6029312	0	0
6160384	0	0
6291456	0	0
6422528	0	0
6553600	0	0
6684672	0	0
6815744	0	0
6946816	0	0
7077888	0	0
7208960	0	0
7340032	0	0
7471104	0	0
7602176	0	0
7733248	0	0
7864320	0	0
7995392	0	0
8126464	0	0
8257536	0	0
8388608	0	0
8650752	0	0
8912896	0	0
9175040	0	0
9437184	0	0
9699328	0	0
9961472	0	0
10223616	0	0
10485760	0	0
10747904	0	0
11010048	0	0
11272192	0	0
11534336	0	0
11796480	0	0
12058624	0	0
12320768	0	0
12582912	0	0
12845056	0	0
13107200	0	0
13369344	0	0
13631488	0	0
13893632	0	0
14155776	0	0
14417920	0	0
14680064	0	0
14942208	0	0
15204352	0	0
15466496	0	0
15728640	0	0
15990784	0	0
16252928	0	0
16515072	0	0
16777216	0	0
17301504	0	0
17825792	0	0
18350080	0	0
18874368	0	0
19398656	0	0
19922944	0	0
20447232	0	0
20971520	0	0
21495808	0	0
22020096	0	0
22544384	0	0
23068672	0	0
23592960	0	0
24117248	0	0
24641536	0	0
25165824	0	0
25690112	0	0
26214400	0	0
26738688	0	0
27262976	0	0
27787264	0	0
28311552	0	0
28835840	0	0
29360128	0	0
29884416	0	0
30408704	0	0
30932992	0	0
31457280	0	0
31981568	0	0
32505856	0	0
33030144	0	0
33554432	0	0
34603008	0	0
35651584	0	0
36700160	0	0
37748736	0	0
38797312	0	0
39845888	0	0
40894464	0	0
41943040	0	0
42991616	0	0
44040192	0	0
45088768	0	0
46137344	0	0
47185920	0	0
48234496	0	0
49283072	0	0
50331648	0	0
51380224	0	0
52428800	0	0
53477376	0	0
54525952	0	0
55574528	0	0
56623104	0	0
57671680	0	0
58720256	0	0
59768832	0	0
60817408	0	0
61865984	0	0
62914560	0	0
63963136	0	0
65011712	0	0
66060288	0	0
67108864	0	0
69206016	0	0
71303168	0	0
73400320	0	0
75497472	0	0
77594624	0	0
79691776	0	0
81788928	0	0
83886080	0	0
85983232	0	0
88080384	0	0
90177536	0	0
92274688	0	0
94371840	0	0
96468992	0	0
98566144	0	0
100663296	0	0
102760448	0	0
104857600	0	0
106954752	0	0
109051904	0	0
111149056	0	0
113246208	0	0
115343360	0	0
117440512	0	0
119537664	0	0
121634816	0	0
123731968	0	0
125829120	0	0
127926272	0	0
130023424	0	0
132120576	0	0
134217728	0	0
138412032	0	0
142606336	0	0
146800640	0	0
150994944	0	0
155189248	0	0
159383552	0	0
163577856	0	0
167772160	0	0
171966464	0	0
176160768	0	0
180355072	0	0
184549376	0	0
188743680	0	0
192937984	0	0
197132288	0	0
201326592	0	0
205520896	0	0
209715200	0	0
213909504	0	0
218103808	0	0
222298112	0	0
226492416	0	0
230686720	0	0
234881024	0	0
239075328	0	0
243269632	0	0
247463936	0	0
251658240	0	0
255852544	0	0
260046848	0	0
264241152	0	0
268435456	0	0
276824064	0	0
285212672	0	0
293601280	0	0
301989888	0	0
310378496	0	0
318767104	0	0
327155712	0	0
335544320	0	0
343932928	0	0
352321536	0	0
360710144	0	0
369098752	0	0
377487360	0	0
385875968	0	0
394264576	0	0
402653184	0	0
411041792	0	0
419430400	0	0
427819008	0	0
436207616	0	0
444596224	0	0
452984832	0	0
461373440	0	0
469762048	0	0
478150656	0	0
486539264	0	0
494927872	0	0
503316480	0	0
511705088	0	0
520093696	0	0
528482304	0	0
536870912	0	0
553648128	0	0
570425344	0	0
587202560	0	0
603979776	0	0
620756992	0	0
637534208	0	0
654311424	0	0
671088640	0	0
687865856	0	0
704643072	0	0
721420288	0	0
738197504	0	0
754974720	0	0
771751936	0	0
788529152	0	0
805306368	0	0
822083584	0	0
838860800	0	0
855638016	0	0
872415232	0	0
889192448	0	0
905969664	0	0
922746880	0	0
939524096	0	0
956301312	0	0
973078528	0	0
989855744	0	0
1006632960	0	0
1023410176	0	0
1040187392	0	0
1056964608	0	0
1073741824	0	0
1107296256	0	0
1140850688	0	0
1174405120	0	0
1207959552	0	0
1241513984	0	0
1275068416	0	0
1308622848	0	0
1342177280	0	0
1375731712	0	0
1409286144	0	0
1442840576	0	0
1476395008	0	0
1509949440	0	0
1543503872	0	0
1577058304	0	0
1610612736	0	0
1644167168	0	0
1677721600	0	0
1711276032	0	0
1744830464	0	0
1778384896	0	0
1811939328	0	0
1845493760	0	0
1879048192	0	0
1912602624	0	0
1946157056	0	0
1979711488	0	0
2013265920	0	0
2046820352	0	0
2080374784	0	0
2113929216	0	0
2147483648	0	0
2214592512	0	0
2281701376	0	0
2348810240	0	0
2415919104	0	0
2483027968	0	0
2550136832	0	0
2617245696	0	0
2684354560	0	0
2751463424	0	0
2818572288	0	0
2885681152	0	0
2952790016	0	0
3019898880	0	0
3087007744	0	0
3154116608	0	0
3221225472	0	0
3288334336	0	0
3355443200	0	0
3422552064	0	0
3489660928	0	0
3556769792	0	0
3623878656	0	0
3690987520	0	0
3758096384	0	0
3825205248	0	0
3892314112	0	0
3959422976	0	0
4026531840	0	0
4093640704	0	0
4160749568	0	0
4227858432	0	0
~~~~~~~~~~Reuse Distance Profiler output end~~~~~~~~~~


DRAM Statistics
 CHANNEL 0
 RQ ROW_BUFFER_HIT:     111728  ROW_BUFFER_MISS:   24339959
 DBUS AVG_CONGESTED_CYCLE:    3.97856
 WQ ROW_BUFFER_HIT:     182636  ROW_BUFFER_MISS:    8011969  FULL:          0


CPU 0 Branch Prediction Accuracy: 96.4224% MPKI: 0.254203 Average ROB Occupancy at Mispredict: 335.727
Branch type MPKI
BRANCH_DIRECT_JUMP: 3.33333e-06
BRANCH_INDIRECT: 0
BRANCH_CONDITIONAL: 0.254193
BRANCH_DIRECT_CALL: 3.33333e-06
BRANCH_INDIRECT_CALL: 0
BRANCH_RETURN: 3.33333e-06

