
*** ChampSim Multicore Out-of-Order Simulator ***

Warmup Instructions: 50000000
Simulation Instructions: 1500000000
Number of CPUs: 1
Off-chip DRAM Size: 4 GiB Channels: 1 Width: 64-bit Data Rate: 3200 MT/s

VirtualMemory physical capacity: 8588881920 num_ppages: 2096895
VirtualMemory page size: 4096 log2_page_size: 12

CPU 0 runs /s/traces/champsim_traces/403.gcc-16B.champsimtrace.xz
CPU 0 Bimodal branch predictor
Basic BTB sets: 1024 ways: 8 indirect buffer size: 4096 RAS size: 64
Initializing LRU.
Initializing LRU.
Initializing LRU.
Initializing LRU.
Initializing rdLRU.
Initializing LRU.
Initializing LRU.
Heartbeat CPU 0 instructions: 2000002 cycles: 789894 heartbeat IPC: 2.53199 cumulative IPC: 2.53199 (Simulation time: 0 hr 1 min 15 sec) 
Heartbeat CPU 0 instructions: 4000003 cycles: 1629555 heartbeat IPC: 2.38191 cumulative IPC: 2.45466 (Simulation time: 0 hr 2 min 33 sec) 
Heartbeat CPU 0 instructions: 6000001 cycles: 2415517 heartbeat IPC: 2.54465 cumulative IPC: 2.48394 (Simulation time: 0 hr 4 min 6 sec) 
Heartbeat CPU 0 instructions: 8000004 cycles: 3201444 heartbeat IPC: 2.54477 cumulative IPC: 2.49887 (Simulation time: 0 hr 5 min 2 sec) 
Heartbeat CPU 0 instructions: 10000003 cycles: 4044558 heartbeat IPC: 2.37216 cumulative IPC: 2.47246 (Simulation time: 0 hr 6 min 22 sec) 
Heartbeat CPU 0 instructions: 12000002 cycles: 4830484 heartbeat IPC: 2.54477 cumulative IPC: 2.48422 (Simulation time: 0 hr 7 min 51 sec) 
Heartbeat CPU 0 instructions: 14000004 cycles: 5673596 heartbeat IPC: 2.37217 cumulative IPC: 2.46757 (Simulation time: 0 hr 9 min 13 sec) 
Heartbeat CPU 0 instructions: 16000002 cycles: 6459522 heartbeat IPC: 2.54477 cumulative IPC: 2.47696 (Simulation time: 0 hr 10 min 37 sec) 
Heartbeat CPU 0 instructions: 18000003 cycles: 7283290 heartbeat IPC: 2.42787 cumulative IPC: 2.47141 (Simulation time: 0 hr 12 min 0 sec) 
Heartbeat CPU 0 instructions: 20000001 cycles: 8088561 heartbeat IPC: 2.48363 cumulative IPC: 2.47263 (Simulation time: 0 hr 13 min 45 sec) 
Heartbeat CPU 0 instructions: 22000002 cycles: 8893219 heartbeat IPC: 2.48553 cumulative IPC: 2.4738 (Simulation time: 0 hr 15 min 38 sec) 
Heartbeat CPU 0 instructions: 24000001 cycles: 9717601 heartbeat IPC: 2.42606 cumulative IPC: 2.46975 (Simulation time: 0 hr 17 min 29 sec) 
Heartbeat CPU 0 instructions: 26000001 cycles: 10521527 heartbeat IPC: 2.48779 cumulative IPC: 2.47112 (Simulation time: 0 hr 19 min 20 sec) 
Heartbeat CPU 0 instructions: 28000001 cycles: 11346640 heartbeat IPC: 2.42391 cumulative IPC: 2.46769 (Simulation time: 0 hr 21 min 17 sec) 
Heartbeat CPU 0 instructions: 30000001 cycles: 12132567 heartbeat IPC: 2.54477 cumulative IPC: 2.47268 (Simulation time: 0 hr 23 min 7 sec) 
Heartbeat CPU 0 instructions: 32000001 cycles: 12929588 heartbeat IPC: 2.50934 cumulative IPC: 2.47494 (Simulation time: 0 hr 24 min 58 sec) 
Heartbeat CPU 0 instructions: 34000001 cycles: 13761639 heartbeat IPC: 2.4037 cumulative IPC: 2.47064 (Simulation time: 0 hr 26 min 51 sec) 
Heartbeat CPU 0 instructions: 36000003 cycles: 14547567 heartbeat IPC: 2.54476 cumulative IPC: 2.47464 (Simulation time: 0 hr 28 min 34 sec) 
Heartbeat CPU 0 instructions: 38000002 cycles: 15390679 heartbeat IPC: 2.37216 cumulative IPC: 2.46903 (Simulation time: 0 hr 30 min 31 sec) 
Heartbeat CPU 0 instructions: 40000000 cycles: 16176605 heartbeat IPC: 2.54477 cumulative IPC: 2.47271 (Simulation time: 0 hr 32 min 17 sec) 
Heartbeat CPU 0 instructions: 42000000 cycles: 17019717 heartbeat IPC: 2.37216 cumulative IPC: 2.46773 (Simulation time: 0 hr 34 min 10 sec) 
Heartbeat CPU 0 instructions: 44000001 cycles: 17805659 heartbeat IPC: 2.54472 cumulative IPC: 2.47112 (Simulation time: 0 hr 35 min 52 sec) 
Heartbeat CPU 0 instructions: 46000001 cycles: 18591606 heartbeat IPC: 2.5447 cumulative IPC: 2.47423 (Simulation time: 0 hr 37 min 33 sec) 
Heartbeat CPU 0 instructions: 48000000 cycles: 19418144 heartbeat IPC: 2.41973 cumulative IPC: 2.47192 (Simulation time: 0 hr 39 min 22 sec) 
Heartbeat CPU 0 instructions: 50000003 cycles: 20220648 heartbeat IPC: 2.4922 cumulative IPC: 2.47272 (Simulation time: 0 hr 41 min 6 sec) 

Warmup complete CPU 0 instructions: 50000003 cycles: 20220648 (Simulation time: 0 hr 41 min 6 sec) 

Heartbeat CPU 0 instructions: 52000001 cycles: 21099909 heartbeat IPC: 2.27464 cumulative IPC: 2.27464 (Simulation time: 0 hr 43 min 2 sec) 

Region of Interest Statistics
cpu0_DTLB TOTAL     ACCESS:     327178  HIT:     325009  MISS:       2169
cpu0_DTLB LOAD      ACCESS:       7284  HIT:       6817  MISS:        467
cpu0_DTLB RFO       ACCESS:     319894  HIT:     318192  MISS:       1702
cpu0_DTLB PREFETCH  ACCESS:          0  HIT:          0  MISS:          0
cpu0_DTLB WRITEBACK ACCESS:          0  HIT:          0  MISS:          0
cpu0_ITLB TOTAL     ACCESS:     165803  HIT:     165790  MISS:         13
cpu0_ITLB LOAD      ACCESS:     165803  HIT:     165790  MISS:         13
cpu0_ITLB RFO       ACCESS:          0  HIT:          0  MISS:          0
cpu0_ITLB PREFETCH  ACCESS:          0  HIT:          0  MISS:          0
cpu0_ITLB WRITEBACK ACCESS:          0  HIT:          0  MISS:          0
cpu0_L1I TOTAL     ACCESS:       4886  HIT:       4852  MISS:         34
cpu0_L1I LOAD      ACCESS:       4886  HIT:       4852  MISS:         34
cpu0_L1I RFO       ACCESS:          0  HIT:          0  MISS:          0
cpu0_L1I PREFETCH  ACCESS:          0  HIT:          0  MISS:          0
cpu0_L1I WRITEBACK ACCESS:          0  HIT:          0  MISS:          0
cpu0_STLB TOTAL     ACCESS:       2182  HIT:       2172  MISS:         10
cpu0_STLB LOAD      ACCESS:        480  HIT:        472  MISS:          8
cpu0_STLB RFO       ACCESS:       1702  HIT:       1700  MISS:          2
cpu0_STLB PREFETCH  ACCESS:          0  HIT:          0  MISS:          0
cpu0_STLB WRITEBACK ACCESS:          0  HIT:          0  MISS:          0
cpu0_L1D TOTAL     ACCESS:     116651  HIT:      15163  MISS:     101488
cpu0_L1D LOAD      ACCESS:       7545  HIT:       6501  MISS:       1044
cpu0_L1D RFO       ACCESS:     109096  HIT:       8659  MISS:     100437
cpu0_L1D PREFETCH  ACCESS:          0  HIT:          0  MISS:          0
cpu0_L1D WRITEBACK ACCESS:          0  HIT:          0  MISS:          0
cpu0_L2C TOTAL     ACCESS:     202278  HIT:     131118  MISS:      71160
cpu0_L2C LOAD      ACCESS:       1078  HIT:        318  MISS:        760
cpu0_L2C RFO       ACCESS:     100438  HIT:      30045  MISS:      70393
cpu0_L2C PREFETCH  ACCESS:          0  HIT:          0  MISS:          0
cpu0_L2C WRITEBACK ACCESS:     100755  HIT:     100755  MISS:          0
LLC TOTAL     ACCESS:     141850  HIT:     141745  MISS:        105
LLC LOAD      ACCESS:        760  HIT:        667  MISS:         93
LLC RFO       ACCESS:      70393  HIT:      70381  MISS:         12
LLC PREFETCH  ACCESS:          0  HIT:          0  MISS:          0
LLC WRITEBACK ACCESS:      70690  HIT:      70690  MISS:          0
Heartbeat CPU 0 instructions: 54000002 cycles: 21990537 heartbeat IPC: 2.24561 cumulative IPC: 2.26003 (Simulation time: 0 hr 44 min 52 sec) 

Region of Interest Statistics
cpu0_DTLB TOTAL     ACCESS:     654972  HIT:     650639  MISS:       4333
cpu0_DTLB LOAD      ACCESS:      15892  HIT:      14951  MISS:        941
cpu0_DTLB RFO       ACCESS:     639080  HIT:     635688  MISS:       3392
cpu0_DTLB PREFETCH  ACCESS:          0  HIT:          0  MISS:          0
cpu0_DTLB WRITEBACK ACCESS:          0  HIT:          0  MISS:          0
cpu0_ITLB TOTAL     ACCESS:     331318  HIT:     331277  MISS:         41
cpu0_ITLB LOAD      ACCESS:     331318  HIT:     331277  MISS:         41
cpu0_ITLB RFO       ACCESS:          0  HIT:          0  MISS:          0
cpu0_ITLB PREFETCH  ACCESS:          0  HIT:          0  MISS:          0
cpu0_ITLB WRITEBACK ACCESS:          0  HIT:          0  MISS:          0
cpu0_L1I TOTAL     ACCESS:      11280  HIT:      11152  MISS:        128
cpu0_L1I LOAD      ACCESS:      11280  HIT:      11152  MISS:        128
cpu0_L1I RFO       ACCESS:          0  HIT:          0  MISS:          0
cpu0_L1I PREFETCH  ACCESS:          0  HIT:          0  MISS:          0
cpu0_L1I WRITEBACK ACCESS:          0  HIT:          0  MISS:          0
cpu0_STLB TOTAL     ACCESS:       4374  HIT:       4354  MISS:         20
cpu0_STLB LOAD      ACCESS:        982  HIT:        966  MISS:         16
cpu0_STLB RFO       ACCESS:       3392  HIT:       3388  MISS:          4
cpu0_STLB PREFETCH  ACCESS:          0  HIT:          0  MISS:          0
cpu0_STLB WRITEBACK ACCESS:          0  HIT:          0  MISS:          0
cpu0_L1D TOTAL     ACCESS:     235549  HIT:      32879  MISS:     202670
cpu0_L1D LOAD      ACCESS:      16297  HIT:      14195  MISS:       2102
cpu0_L1D RFO       ACCESS:     219232  HIT:      18678  MISS:     200554
cpu0_L1D PREFETCH  ACCESS:          0  HIT:          0  MISS:          0
cpu0_L1D WRITEBACK ACCESS:          0  HIT:          0  MISS:          0
cpu0_L2C TOTAL     ACCESS:     403986  HIT:     260768  MISS:     143218
cpu0_L2C LOAD      ACCESS:       2230  HIT:        645  MISS:       1585
cpu0_L2C RFO       ACCESS:     200555  HIT:      58936  MISS:     141619
cpu0_L2C PREFETCH  ACCESS:          0  HIT:          0  MISS:          0
cpu0_L2C WRITEBACK ACCESS:     201187  HIT:     201187  MISS:          0
LLC TOTAL     ACCESS:     285227  HIT:     284983  MISS:        244
LLC LOAD      ACCESS:       1585  HIT:       1366  MISS:        219
LLC RFO       ACCESS:     141619  HIT:     141594  MISS:         25
LLC PREFETCH  ACCESS:          0  HIT:          0  MISS:          0
LLC WRITEBACK ACCESS:     142009  HIT:     142009  MISS:          0
Heartbeat CPU 0 instructions: 56000001 cycles: 22885075 heartbeat IPC: 2.23579 cumulative IPC: 2.25189 (Simulation time: 0 hr 46 min 41 sec) 

Region of Interest Statistics
cpu0_DTLB TOTAL     ACCESS:     981064  HIT:     974532  MISS:       6532
cpu0_DTLB LOAD      ACCESS:      24155  HIT:      22704  MISS:       1451
cpu0_DTLB RFO       ACCESS:     956909  HIT:     951828  MISS:       5081
cpu0_DTLB PREFETCH  ACCESS:          0  HIT:          0  MISS:          0
cpu0_DTLB WRITEBACK ACCESS:          0  HIT:          0  MISS:          0
cpu0_ITLB TOTAL     ACCESS:     498703  HIT:     498647  MISS:         56
cpu0_ITLB LOAD      ACCESS:     498703  HIT:     498647  MISS:         56
cpu0_ITLB RFO       ACCESS:          0  HIT:          0  MISS:          0
cpu0_ITLB PREFETCH  ACCESS:          0  HIT:          0  MISS:          0
cpu0_ITLB WRITEBACK ACCESS:          0  HIT:          0  MISS:          0
cpu0_L1I TOTAL     ACCESS:      16875  HIT:      16705  MISS:        170
cpu0_L1I LOAD      ACCESS:      16875  HIT:      16705  MISS:        170
cpu0_L1I RFO       ACCESS:          0  HIT:          0  MISS:          0
cpu0_L1I PREFETCH  ACCESS:          0  HIT:          0  MISS:          0
cpu0_L1I WRITEBACK ACCESS:          0  HIT:          0  MISS:          0
cpu0_STLB TOTAL     ACCESS:       6588  HIT:       6551  MISS:         37
cpu0_STLB LOAD      ACCESS:       1507  HIT:       1479  MISS:         28
cpu0_STLB RFO       ACCESS:       5081  HIT:       5072  MISS:          9
cpu0_STLB PREFETCH  ACCESS:          0  HIT:          0  MISS:          0
cpu0_STLB WRITEBACK ACCESS:          0  HIT:          0  MISS:          0
cpu0_L1D TOTAL     ACCESS:     353013  HIT:      49753  MISS:     303260
cpu0_L1D LOAD      ACCESS:      24897  HIT:      21625  MISS:       3272
cpu0_L1D RFO       ACCESS:     328079  HIT:      28117  MISS:     299962
cpu0_L1D PREFETCH  ACCESS:          0  HIT:          0  MISS:          0
cpu0_L1D WRITEBACK ACCESS:          0  HIT:          0  MISS:          0
cpu0_L2C TOTAL     ACCESS:     604348  HIT:     390137  MISS:     214211
cpu0_L2C LOAD      ACCESS:       3442  HIT:        947  MISS:       2495
cpu0_L2C RFO       ACCESS:     299962  HIT:      88272  MISS:     211690
cpu0_L2C PREFETCH  ACCESS:          0  HIT:          0  MISS:          0
cpu0_L2C WRITEBACK ACCESS:     300918  HIT:     300918  MISS:          0
LLC TOTAL     ACCESS:     426601  HIT:     426128  MISS:        473
LLC LOAD      ACCESS:       2495  HIT:       2059  MISS:        436
LLC RFO       ACCESS:     211690  HIT:     211653  MISS:         37
LLC PREFETCH  ACCESS:          0  HIT:          0  MISS:          0
LLC WRITEBACK ACCESS:     212390  HIT:     212390  MISS:          0
Heartbeat CPU 0 instructions: 58000002 cycles: 23846720 heartbeat IPC: 2.07977 cumulative IPC: 2.20624 (Simulation time: 0 hr 48 min 32 sec) 

Region of Interest Statistics
cpu0_DTLB TOTAL     ACCESS:    1312485  HIT:    1303766  MISS:       8719
cpu0_DTLB LOAD      ACCESS:      36140  HIT:      34190  MISS:       1950
cpu0_DTLB RFO       ACCESS:    1276345  HIT:    1269576  MISS:       6769
cpu0_DTLB PREFETCH  ACCESS:          0  HIT:          0  MISS:          0
cpu0_DTLB WRITEBACK ACCESS:          0  HIT:          0  MISS:          0
cpu0_ITLB TOTAL     ACCESS:     661748  HIT:     661679  MISS:         69
cpu0_ITLB LOAD      ACCESS:     661748  HIT:     661679  MISS:         69
cpu0_ITLB RFO       ACCESS:          0  HIT:          0  MISS:          0
cpu0_ITLB PREFETCH  ACCESS:          0  HIT:          0  MISS:          0
cpu0_ITLB WRITEBACK ACCESS:          0  HIT:          0  MISS:          0
cpu0_L1I TOTAL     ACCESS:      25205  HIT:      25000  MISS:        205
cpu0_L1I LOAD      ACCESS:      25205  HIT:      25000  MISS:        205
cpu0_L1I RFO       ACCESS:          0  HIT:          0  MISS:          0
cpu0_L1I PREFETCH  ACCESS:          0  HIT:          0  MISS:          0
cpu0_L1I WRITEBACK ACCESS:          0  HIT:          0  MISS:          0
cpu0_STLB TOTAL     ACCESS:       8788  HIT:       8722  MISS:         66
cpu0_STLB LOAD      ACCESS:       2019  HIT:       1963  MISS:         56
cpu0_STLB RFO       ACCESS:       6769  HIT:       6759  MISS:         10
cpu0_STLB PREFETCH  ACCESS:          0  HIT:          0  MISS:          0
cpu0_STLB WRITEBACK ACCESS:          0  HIT:          0  MISS:          0
cpu0_L1D TOTAL     ACCESS:     479024  HIT:      74024  MISS:     405000
cpu0_L1D LOAD      ACCESS:      37458  HIT:      32755  MISS:       4703
cpu0_L1D RFO       ACCESS:     441500  HIT:      41237  MISS:     400263
cpu0_L1D PREFETCH  ACCESS:          0  HIT:          0  MISS:          0
cpu0_L1D WRITEBACK ACCESS:          0  HIT:          0  MISS:          0
cpu0_L2C TOTAL     ACCESS:     806749  HIT:     520216  MISS:     286533
cpu0_L2C LOAD      ACCESS:       4908  HIT:       1230  MISS:       3678
cpu0_L2C RFO       ACCESS:     400263  HIT:     117442  MISS:     282821
cpu0_L2C PREFETCH  ACCESS:          0  HIT:          0  MISS:          0
cpu0_L2C WRITEBACK ACCESS:     401544  HIT:     401544  MISS:          0
LLC TOTAL     ACCESS:     570176  HIT:     569230  MISS:        946
LLC LOAD      ACCESS:       3678  HIT:       2781  MISS:        897
LLC RFO       ACCESS:     282821  HIT:     282772  MISS:         49
LLC PREFETCH  ACCESS:          0  HIT:          0  MISS:          0
LLC WRITEBACK ACCESS:     283643  HIT:     283643  MISS:          0
Heartbeat CPU 0 instructions: 60000001 cycles: 24710914 heartbeat IPC: 2.31429 cumulative IPC: 2.22704 (Simulation time: 0 hr 50 min 12 sec) 

Region of Interest Statistics
cpu0_DTLB TOTAL     ACCESS:    1633810  HIT:    1623058  MISS:      10752
cpu0_DTLB LOAD      ACCESS:      45468  HIT:      43092  MISS:       2376
cpu0_DTLB RFO       ACCESS:    1588342  HIT:    1579966  MISS:       8376
cpu0_DTLB PREFETCH  ACCESS:          0  HIT:          0  MISS:          0
cpu0_DTLB WRITEBACK ACCESS:          0  HIT:          0  MISS:          0
cpu0_ITLB TOTAL     ACCESS:     834299  HIT:     834220  MISS:         79
cpu0_ITLB LOAD      ACCESS:     834299  HIT:     834220  MISS:         79
cpu0_ITLB RFO       ACCESS:          0  HIT:          0  MISS:          0
cpu0_ITLB PREFETCH  ACCESS:          0  HIT:          0  MISS:          0
cpu0_ITLB WRITEBACK ACCESS:          0  HIT:          0  MISS:          0
cpu0_L1I TOTAL     ACCESS:      31436  HIT:      31182  MISS:        254
cpu0_L1I LOAD      ACCESS:      31436  HIT:      31182  MISS:        254
cpu0_L1I RFO       ACCESS:          0  HIT:          0  MISS:          0
cpu0_L1I PREFETCH  ACCESS:          0  HIT:          0  MISS:          0
cpu0_L1I WRITEBACK ACCESS:          0  HIT:          0  MISS:          0
cpu0_STLB TOTAL     ACCESS:      10831  HIT:      10754  MISS:         77
cpu0_STLB LOAD      ACCESS:       2455  HIT:       2389  MISS:         66
cpu0_STLB RFO       ACCESS:       8376  HIT:       8365  MISS:         11
cpu0_STLB PREFETCH  ACCESS:          0  HIT:          0  MISS:          0
cpu0_STLB WRITEBACK ACCESS:          0  HIT:          0  MISS:          0
cpu0_L1D TOTAL     ACCESS:     596932  HIT:      94630  MISS:     502302
cpu0_L1D LOAD      ACCESS:      47187  HIT:      41500  MISS:       5687
cpu0_L1D RFO       ACCESS:     549668  HIT:      53092  MISS:     496576
cpu0_L1D PREFETCH  ACCESS:          0  HIT:          0  MISS:          0
cpu0_L1D WRITEBACK ACCESS:          0  HIT:          0  MISS:          0
cpu0_L2C TOTAL     ACCESS:    1000712  HIT:     644667  MISS:     356045
cpu0_L2C LOAD      ACCESS:       5941  HIT:       1559  MISS:       4382
cpu0_L2C RFO       ACCESS:     496576  HIT:     144952  MISS:     351624
cpu0_L2C PREFETCH  ACCESS:          0  HIT:          0  MISS:          0
cpu0_L2C WRITEBACK ACCESS:     498156  HIT:     498156  MISS:          0
LLC TOTAL     ACCESS:     708671  HIT:     707581  MISS:       1090
LLC LOAD      ACCESS:       4382  HIT:       3360  MISS:       1022
LLC RFO       ACCESS:     351624  HIT:     351556  MISS:         68
LLC PREFETCH  ACCESS:          0  HIT:          0  MISS:          0
LLC WRITEBACK ACCESS:     352626  HIT:     352626  MISS:          0
Heartbeat CPU 0 instructions: 62000003 cycles: 25658222 heartbeat IPC: 2.11125 cumulative IPC: 2.20687 (Simulation time: 0 hr 52 min 10 sec) 

Region of Interest Statistics
cpu0_DTLB TOTAL     ACCESS:    1970754  HIT:    1957705  MISS:      13049
cpu0_DTLB LOAD      ACCESS:      57726  HIT:      54796  MISS:       2930
cpu0_DTLB RFO       ACCESS:    1913028  HIT:    1902909  MISS:      10119
cpu0_DTLB PREFETCH  ACCESS:          0  HIT:          0  MISS:          0
cpu0_DTLB WRITEBACK ACCESS:          0  HIT:          0  MISS:          0
cpu0_ITLB TOTAL     ACCESS:     990989  HIT:     990897  MISS:         92
cpu0_ITLB LOAD      ACCESS:     990989  HIT:     990897  MISS:         92
cpu0_ITLB RFO       ACCESS:          0  HIT:          0  MISS:          0
cpu0_ITLB PREFETCH  ACCESS:          0  HIT:          0  MISS:          0
cpu0_ITLB WRITEBACK ACCESS:          0  HIT:          0  MISS:          0
cpu0_L1I TOTAL     ACCESS:      39573  HIT:      39265  MISS:        308
cpu0_L1I LOAD      ACCESS:      39573  HIT:      39265  MISS:        308
cpu0_L1I RFO       ACCESS:          0  HIT:          0  MISS:          0
cpu0_L1I PREFETCH  ACCESS:          0  HIT:          0  MISS:          0
cpu0_L1I WRITEBACK ACCESS:          0  HIT:          0  MISS:          0
cpu0_STLB TOTAL     ACCESS:      13141  HIT:      13047  MISS:         94
cpu0_STLB LOAD      ACCESS:       3022  HIT:       2943  MISS:         79
cpu0_STLB RFO       ACCESS:      10119  HIT:      10104  MISS:         15
cpu0_STLB PREFETCH  ACCESS:          0  HIT:          0  MISS:          0
cpu0_STLB WRITEBACK ACCESS:          0  HIT:          0  MISS:          0
cpu0_L1D TOTAL     ACCESS:     727750  HIT:     121302  MISS:     606448
cpu0_L1D LOAD      ACCESS:      60105  HIT:      53162  MISS:       6943
cpu0_L1D RFO       ACCESS:     667551  HIT:      68098  MISS:     599453
cpu0_L1D PREFETCH  ACCESS:          0  HIT:          0  MISS:          0
cpu0_L1D WRITEBACK ACCESS:          0  HIT:          0  MISS:          0
cpu0_L2C TOTAL     ACCESS:    1208192  HIT:     779126  MISS:     429066
cpu0_L2C LOAD      ACCESS:       7251  HIT:       1872  MISS:       5379
cpu0_L2C RFO       ACCESS:     599453  HIT:     175818  MISS:     423635
cpu0_L2C PREFETCH  ACCESS:          0  HIT:          0  MISS:          0
cpu0_L2C WRITEBACK ACCESS:     601436  HIT:     601436  MISS:          0
LLC TOTAL     ACCESS:     853964  HIT:     852667  MISS:       1297
LLC LOAD      ACCESS:       5379  HIT:       4171  MISS:       1208
LLC RFO       ACCESS:     423635  HIT:     423546  MISS:         89
LLC PREFETCH  ACCESS:          0  HIT:          0  MISS:          0
LLC WRITEBACK ACCESS:     424898  HIT:     424898  MISS:          0
Heartbeat CPU 0 instructions: 64000001 cycles: 26494463 heartbeat IPC: 2.39165 cumulative IPC: 2.2315 (Simulation time: 0 hr 53 min 51 sec) 

Region of Interest Statistics
cpu0_DTLB TOTAL     ACCESS:    2290187  HIT:    2275100  MISS:      15087
cpu0_DTLB LOAD      ACCESS:      63746  HIT:      60401  MISS:       3345
cpu0_DTLB RFO       ACCESS:    2226441  HIT:    2214699  MISS:      11742
cpu0_DTLB PREFETCH  ACCESS:          0  HIT:          0  MISS:          0
cpu0_DTLB WRITEBACK ACCESS:          0  HIT:          0  MISS:          0
cpu0_ITLB TOTAL     ACCESS:    1164588  HIT:    1164485  MISS:        103
cpu0_ITLB LOAD      ACCESS:    1164588  HIT:    1164485  MISS:        103
cpu0_ITLB RFO       ACCESS:          0  HIT:          0  MISS:          0
cpu0_ITLB PREFETCH  ACCESS:          0  HIT:          0  MISS:          0
cpu0_ITLB WRITEBACK ACCESS:          0  HIT:          0  MISS:          0
cpu0_L1I TOTAL     ACCESS:      43739  HIT:      43415  MISS:        324
cpu0_L1I LOAD      ACCESS:      43739  HIT:      43415  MISS:        324
cpu0_L1I RFO       ACCESS:          0  HIT:          0  MISS:          0
cpu0_L1I PREFETCH  ACCESS:          0  HIT:          0  MISS:          0
cpu0_L1I WRITEBACK ACCESS:          0  HIT:          0  MISS:          0
cpu0_STLB TOTAL     ACCESS:      15190  HIT:      15091  MISS:         99
cpu0_STLB LOAD      ACCESS:       3448  HIT:       3364  MISS:         84
cpu0_STLB RFO       ACCESS:      11742  HIT:      11727  MISS:         15
cpu0_STLB PREFETCH  ACCESS:          0  HIT:          0  MISS:          0
cpu0_STLB WRITEBACK ACCESS:          0  HIT:          0  MISS:          0
cpu0_L1D TOTAL     ACCESS:     838458  HIT:     134040  MISS:     704418
cpu0_L1D LOAD      ACCESS:      66394  HIT:      58576  MISS:       7818
cpu0_L1D RFO       ACCESS:     771965  HIT:      75419  MISS:     696546
cpu0_L1D PREFETCH  ACCESS:          0  HIT:          0  MISS:          0
cpu0_L1D WRITEBACK ACCESS:          0  HIT:          0  MISS:          0
cpu0_L2C TOTAL     ACCESS:    1403548  HIT:     904006  MISS:     499542
cpu0_L2C LOAD      ACCESS:       8142  HIT:       2104  MISS:       6038
cpu0_L2C RFO       ACCESS:     696546  HIT:     203096  MISS:     493450
cpu0_L2C PREFETCH  ACCESS:          0  HIT:          0  MISS:          0
cpu0_L2C WRITEBACK ACCESS:     698806  HIT:     698806  MISS:          0
LLC TOTAL     ACCESS:     994436  HIT:     993088  MISS:       1348
LLC LOAD      ACCESS:       6038  HIT:       4786  MISS:       1252
LLC RFO       ACCESS:     493450  HIT:     493354  MISS:         96
LLC PREFETCH  ACCESS:          0  HIT:          0  MISS:          0
LLC WRITEBACK ACCESS:     494894  HIT:     494894  MISS:          0
Heartbeat CPU 0 instructions: 66000000 cycles: 27428278 heartbeat IPC: 2.14175 cumulative IPC: 2.21987 (Simulation time: 0 hr 55 min 45 sec) 

Region of Interest Statistics
cpu0_DTLB TOTAL     ACCESS:    2625762  HIT:    2608393  MISS:      17369
cpu0_DTLB LOAD      ACCESS:      73602  HIT:      69732  MISS:       3870
cpu0_DTLB RFO       ACCESS:    2552160  HIT:    2538661  MISS:      13499
cpu0_DTLB PREFETCH  ACCESS:          0  HIT:          0  MISS:          0
cpu0_DTLB WRITEBACK ACCESS:          0  HIT:          0  MISS:          0
cpu0_ITLB TOTAL     ACCESS:    1322355  HIT:    1322222  MISS:        133
cpu0_ITLB LOAD      ACCESS:    1322355  HIT:    1322222  MISS:        133
cpu0_ITLB RFO       ACCESS:          0  HIT:          0  MISS:          0
cpu0_ITLB PREFETCH  ACCESS:          0  HIT:          0  MISS:          0
cpu0_ITLB WRITEBACK ACCESS:          0  HIT:          0  MISS:          0
cpu0_L1I TOTAL     ACCESS:      50823  HIT:      50413  MISS:        410
cpu0_L1I LOAD      ACCESS:      50823  HIT:      50413  MISS:        410
cpu0_L1I RFO       ACCESS:          0  HIT:          0  MISS:          0
cpu0_L1I PREFETCH  ACCESS:          0  HIT:          0  MISS:          0
cpu0_L1I WRITEBACK ACCESS:          0  HIT:          0  MISS:          0
cpu0_STLB TOTAL     ACCESS:      17502  HIT:      17392  MISS:        110
cpu0_STLB LOAD      ACCESS:       4003  HIT:       3908  MISS:         95
cpu0_STLB RFO       ACCESS:      13499  HIT:      13484  MISS:         15
cpu0_STLB PREFETCH  ACCESS:          0  HIT:          0  MISS:          0
cpu0_STLB WRITEBACK ACCESS:          0  HIT:          0  MISS:          0
cpu0_L1D TOTAL     ACCESS:     963341  HIT:     154215  MISS:     809126
cpu0_L1D LOAD      ACCESS:      76458  HIT:      67404  MISS:       9054
cpu0_L1D RFO       ACCESS:     886773  HIT:      86762  MISS:     800011
cpu0_L1D PREFETCH  ACCESS:          0  HIT:          0  MISS:          0
cpu0_L1D WRITEBACK ACCESS:          0  HIT:          0  MISS:          0
cpu0_L2C TOTAL     ACCESS:    1612182  HIT:    1039455  MISS:     572727
cpu0_L2C LOAD      ACCESS:       9464  HIT:       2481  MISS:       6983
cpu0_L2C RFO       ACCESS:     800011  HIT:     234328  MISS:     565683
cpu0_L2C PREFETCH  ACCESS:          0  HIT:          0  MISS:          0
cpu0_L2C WRITEBACK ACCESS:     802646  HIT:     802646  MISS:          0
LLC TOTAL     ACCESS:    1140078  HIT:    1138563  MISS:       1515
LLC LOAD      ACCESS:       6983  HIT:       5572  MISS:       1411
LLC RFO       ACCESS:     565684  HIT:     565580  MISS:        104
LLC PREFETCH  ACCESS:          0  HIT:          0  MISS:          0
LLC WRITEBACK ACCESS:     567350  HIT:     567350  MISS:          0
Heartbeat CPU 0 instructions: 68000002 cycles: 28287319 heartbeat IPC: 2.32818 cumulative IPC: 2.2314 (Simulation time: 0 hr 57 min 26 sec) 

Region of Interest Statistics
cpu0_DTLB TOTAL     ACCESS:    2945796  HIT:    2926363  MISS:      19433
cpu0_DTLB LOAD      ACCESS:      80711  HIT:      76408  MISS:       4303
cpu0_DTLB RFO       ACCESS:    2865085  HIT:    2849955  MISS:      15130
cpu0_DTLB PREFETCH  ACCESS:          0  HIT:          0  MISS:          0
cpu0_DTLB WRITEBACK ACCESS:          0  HIT:          0  MISS:          0
cpu0_ITLB TOTAL     ACCESS:    1495721  HIT:    1495575  MISS:        146
cpu0_ITLB LOAD      ACCESS:    1495721  HIT:    1495575  MISS:        146
cpu0_ITLB RFO       ACCESS:          0  HIT:          0  MISS:          0
cpu0_ITLB PREFETCH  ACCESS:          0  HIT:          0  MISS:          0
cpu0_ITLB WRITEBACK ACCESS:          0  HIT:          0  MISS:          0
cpu0_L1I TOTAL     ACCESS:      55785  HIT:      55340  MISS:        445
cpu0_L1I LOAD      ACCESS:      55785  HIT:      55340  MISS:        445
cpu0_L1I RFO       ACCESS:          0  HIT:          0  MISS:          0
cpu0_L1I PREFETCH  ACCESS:          0  HIT:          0  MISS:          0
cpu0_L1I WRITEBACK ACCESS:          0  HIT:          0  MISS:          0
cpu0_STLB TOTAL     ACCESS:      19579  HIT:      19455  MISS:        124
cpu0_STLB LOAD      ACCESS:       4449  HIT:       4340  MISS:        109
cpu0_STLB RFO       ACCESS:      15130  HIT:      15115  MISS:         15
cpu0_STLB PREFETCH  ACCESS:          0  HIT:          0  MISS:          0
cpu0_STLB WRITEBACK ACCESS:          0  HIT:          0  MISS:          0
cpu0_L1D TOTAL     ACCESS:    1075854  HIT:     168825  MISS:     907029
cpu0_L1D LOAD      ACCESS:      83894  HIT:      73835  MISS:      10059
cpu0_L1D RFO       ACCESS:     991836  HIT:      94937  MISS:     896899
cpu0_L1D PREFETCH  ACCESS:          0  HIT:          0  MISS:          0
cpu0_L1D WRITEBACK ACCESS:          0  HIT:          0  MISS:          0
cpu0_L2C TOTAL     ACCESS:    1807294  HIT:    1164512  MISS:     642782
cpu0_L2C LOAD      ACCESS:      10504  HIT:       2740  MISS:       7764
cpu0_L2C RFO       ACCESS:     896900  HIT:     261953  MISS:     634947
cpu0_L2C PREFETCH  ACCESS:          0  HIT:          0  MISS:          0
cpu0_L2C WRITEBACK ACCESS:     899819  HIT:     899819  MISS:          0
LLC TOTAL     ACCESS:    1279574  HIT:    1277892  MISS:       1682
LLC LOAD      ACCESS:       7764  HIT:       6192  MISS:       1572
LLC RFO       ACCESS:     634947  HIT:     634837  MISS:        110
LLC PREFETCH  ACCESS:          0  HIT:          0  MISS:          0
LLC WRITEBACK ACCESS:     636792  HIT:     636792  MISS:          0
Heartbeat CPU 0 instructions: 70000000 cycles: 29268980 heartbeat IPC: 2.03736 cumulative IPC: 2.21035 (Simulation time: 0 hr 59 min 19 sec) 

Region of Interest Statistics
cpu0_DTLB TOTAL     ACCESS:    3279977  HIT:    3258242  MISS:      21735
cpu0_DTLB LOAD      ACCESS:      93977  HIT:      89092  MISS:       4885
cpu0_DTLB RFO       ACCESS:    3186000  HIT:    3169150  MISS:      16850
cpu0_DTLB PREFETCH  ACCESS:          0  HIT:          0  MISS:          0
cpu0_DTLB WRITEBACK ACCESS:          0  HIT:          0  MISS:          0
cpu0_ITLB TOTAL     ACCESS:    1656500  HIT:    1656339  MISS:        161
cpu0_ITLB LOAD      ACCESS:    1656500  HIT:    1656339  MISS:        161
cpu0_ITLB RFO       ACCESS:          0  HIT:          0  MISS:          0
cpu0_ITLB PREFETCH  ACCESS:          0  HIT:          0  MISS:          0
cpu0_ITLB WRITEBACK ACCESS:          0  HIT:          0  MISS:          0
cpu0_L1I TOTAL     ACCESS:      64343  HIT:      63858  MISS:        485
cpu0_L1I LOAD      ACCESS:      64343  HIT:      63858  MISS:        485
cpu0_L1I RFO       ACCESS:          0  HIT:          0  MISS:          0
cpu0_L1I PREFETCH  ACCESS:          0  HIT:          0  MISS:          0
cpu0_L1I WRITEBACK ACCESS:          0  HIT:          0  MISS:          0
cpu0_STLB TOTAL     ACCESS:      21896  HIT:      21750  MISS:        146
cpu0_STLB LOAD      ACCESS:       5046  HIT:       4915  MISS:        131
cpu0_STLB RFO       ACCESS:      16850  HIT:      16835  MISS:         15
cpu0_STLB PREFETCH  ACCESS:          0  HIT:          0  MISS:          0
cpu0_STLB WRITEBACK ACCESS:          0  HIT:          0  MISS:          0
cpu0_L1D TOTAL     ACCESS:    1205523  HIT:     195855  MISS:    1009668
cpu0_L1D LOAD      ACCESS:      97668  HIT:      86029  MISS:      11639
cpu0_L1D RFO       ACCESS:    1107709  HIT:     109760  MISS:     997949
cpu0_L1D PREFETCH  ACCESS:          0  HIT:          0  MISS:          0
cpu0_L1D WRITEBACK ACCESS:          0  HIT:          0  MISS:          0
cpu0_L2C TOTAL     ACCESS:    2011381  HIT:    1296867  MISS:     714514
cpu0_L2C LOAD      ACCESS:      12124  HIT:       3038  MISS:       9086
cpu0_L2C RFO       ACCESS:     997949  HIT:     292601  MISS:     705348
cpu0_L2C PREFETCH  ACCESS:          0  HIT:          0  MISS:          0
cpu0_L2C WRITEBACK ACCESS:    1001228  HIT:    1001228  MISS:          0
LLC TOTAL     ACCESS:    1422026  HIT:    1419841  MISS:       2185
LLC LOAD      ACCESS:       9086  HIT:       7022  MISS:       2064
LLC RFO       ACCESS:     705348  HIT:     705227  MISS:        121
LLC PREFETCH  ACCESS:          0  HIT:          0  MISS:          0
LLC WRITEBACK ACCESS:     707512  HIT:     707512  MISS:          0
Heartbeat CPU 0 instructions: 72000000 cycles: 30313910 heartbeat IPC: 1.914 cumulative IPC: 2.17967 (Simulation time: 1 hr 1 min 4 sec) 

Region of Interest Statistics
cpu0_DTLB TOTAL     ACCESS:    3614208  HIT:    3590102  MISS:      24106
cpu0_DTLB LOAD      ACCESS:     122698  HIT:     117024  MISS:       5674
cpu0_DTLB RFO       ACCESS:    3491510  HIT:    3473078  MISS:      18432
cpu0_DTLB PREFETCH  ACCESS:          0  HIT:          0  MISS:          0
cpu0_DTLB WRITEBACK ACCESS:          0  HIT:          0  MISS:          0
cpu0_ITLB TOTAL     ACCESS:    1821966  HIT:    1821777  MISS:        189
cpu0_ITLB LOAD      ACCESS:    1821966  HIT:    1821777  MISS:        189
cpu0_ITLB RFO       ACCESS:          0  HIT:          0  MISS:          0
cpu0_ITLB PREFETCH  ACCESS:          0  HIT:          0  MISS:          0
cpu0_ITLB WRITEBACK ACCESS:          0  HIT:          0  MISS:          0
cpu0_L1I TOTAL     ACCESS:      82084  HIT:      81408  MISS:        676
cpu0_L1I LOAD      ACCESS:      82084  HIT:      81408  MISS:        676
cpu0_L1I RFO       ACCESS:          0  HIT:          0  MISS:          0
cpu0_L1I PREFETCH  ACCESS:          0  HIT:          0  MISS:          0
cpu0_L1I WRITEBACK ACCESS:          0  HIT:          0  MISS:          0
cpu0_STLB TOTAL     ACCESS:      24295  HIT:      24107  MISS:        188
cpu0_STLB LOAD      ACCESS:       5863  HIT:       5691  MISS:        172
cpu0_STLB RFO       ACCESS:      18432  HIT:      18416  MISS:         16
cpu0_STLB PREFETCH  ACCESS:          0  HIT:          0  MISS:          0
cpu0_STLB WRITEBACK ACCESS:          0  HIT:          0  MISS:          0
cpu0_L1D TOTAL     ACCESS:    1361967  HIT:     257247  MISS:    1104720
cpu0_L1D LOAD      ACCESS:     127143  HIT:     113579  MISS:      13564
cpu0_L1D RFO       ACCESS:    1234637  HIT:     143578  MISS:    1091059
cpu0_L1D PREFETCH  ACCESS:          0  HIT:          0  MISS:          0
cpu0_L1D WRITEBACK ACCESS:          0  HIT:          0  MISS:          0
cpu0_L2C TOTAL     ACCESS:    2200141  HIT:    1416858  MISS:     783283
cpu0_L2C LOAD      ACCESS:      14240  HIT:       3465  MISS:      10775
cpu0_L2C RFO       ACCESS:    1091059  HIT:     318648  MISS:     772411
cpu0_L2C PREFETCH  ACCESS:          0  HIT:          0  MISS:          0
cpu0_L2C WRITEBACK ACCESS:    1094745  HIT:    1094745  MISS:          0
LLC TOTAL     ACCESS:    1558036  HIT:    1555184  MISS:       2852
LLC LOAD      ACCESS:      10775  HIT:       8074  MISS:       2701
LLC RFO       ACCESS:     772411  HIT:     772260  MISS:        151
LLC PREFETCH  ACCESS:          0  HIT:          0  MISS:          0
LLC WRITEBACK ACCESS:     774753  HIT:     774753  MISS:          0
Heartbeat CPU 0 instructions: 74000002 cycles: 31204796 heartbeat IPC: 2.24496 cumulative IPC: 2.18497 (Simulation time: 1 hr 2 min 50 sec) 

Region of Interest Statistics
cpu0_DTLB TOTAL     ACCESS:    3938355  HIT:    3912170  MISS:      26185
cpu0_DTLB LOAD      ACCESS:     134853  HIT:     128731  MISS:       6122
cpu0_DTLB RFO       ACCESS:    3803502  HIT:    3783439  MISS:      20063
cpu0_DTLB PREFETCH  ACCESS:          0  HIT:          0  MISS:          0
cpu0_DTLB WRITEBACK ACCESS:          0  HIT:          0  MISS:          0
cpu0_ITLB TOTAL     ACCESS:    1992417  HIT:    1992214  MISS:        203
cpu0_ITLB LOAD      ACCESS:    1992417  HIT:    1992214  MISS:        203
cpu0_ITLB RFO       ACCESS:          0  HIT:          0  MISS:          0
cpu0_ITLB PREFETCH  ACCESS:          0  HIT:          0  MISS:          0
cpu0_ITLB WRITEBACK ACCESS:          0  HIT:          0  MISS:          0
cpu0_L1I TOTAL     ACCESS:      90428  HIT:      89691  MISS:        737
cpu0_L1I LOAD      ACCESS:      90428  HIT:      89691  MISS:        737
cpu0_L1I RFO       ACCESS:          0  HIT:          0  MISS:          0
cpu0_L1I PREFETCH  ACCESS:          0  HIT:          0  MISS:          0
cpu0_L1I WRITEBACK ACCESS:          0  HIT:          0  MISS:          0
cpu0_STLB TOTAL     ACCESS:      26388  HIT:      26191  MISS:        197
cpu0_STLB LOAD      ACCESS:       6325  HIT:       6144  MISS:        181
cpu0_STLB RFO       ACCESS:      20063  HIT:      20047  MISS:         16
cpu0_STLB PREFETCH  ACCESS:          0  HIT:          0  MISS:          0
cpu0_STLB WRITEBACK ACCESS:          0  HIT:          0  MISS:          0
cpu0_L1D TOTAL     ACCESS:    1485881  HIT:     283706  MISS:    1202175
cpu0_L1D LOAD      ACCESS:     139792  HIT:     125101  MISS:      14691
cpu0_L1D RFO       ACCESS:    1345893  HIT:     158511  MISS:    1187382
cpu0_L1D PREFETCH  ACCESS:          0  HIT:          0  MISS:          0
cpu0_L1D WRITEBACK ACCESS:          0  HIT:          0  MISS:          0
cpu0_L2C TOTAL     ACCESS:    2394302  HIT:    1541327  MISS:     852975
cpu0_L2C LOAD      ACCESS:      15428  HIT:       3782  MISS:      11646
cpu0_L2C RFO       ACCESS:    1187382  HIT:     346155  MISS:     841227
cpu0_L2C PREFETCH  ACCESS:          0  HIT:          0  MISS:          0
cpu0_L2C WRITEBACK ACCESS:    1191390  HIT:    1191390  MISS:          0
LLC TOTAL     ACCESS:    1696742  HIT:    1693687  MISS:       3055
LLC LOAD      ACCESS:      11646  HIT:       8757  MISS:       2889
LLC RFO       ACCESS:     841228  HIT:     841062  MISS:        166
LLC PREFETCH  ACCESS:          0  HIT:          0  MISS:          0
LLC WRITEBACK ACCESS:     843766  HIT:     843766  MISS:          0
Heartbeat CPU 0 instructions: 76000001 cycles: 32106747 heartbeat IPC: 2.21741 cumulative IPC: 2.18743 (Simulation time: 1 hr 4 min 38 sec) 

Region of Interest Statistics
cpu0_DTLB TOTAL     ACCESS:    4265473  HIT:    4237108  MISS:      28365
cpu0_DTLB LOAD      ACCESS:     146742  HIT:     140105  MISS:       6637
cpu0_DTLB RFO       ACCESS:    4118731  HIT:    4097003  MISS:      21728
cpu0_DTLB PREFETCH  ACCESS:          0  HIT:          0  MISS:          0
cpu0_DTLB WRITEBACK ACCESS:          0  HIT:          0  MISS:          0
cpu0_ITLB TOTAL     ACCESS:    2159461  HIT:    2159245  MISS:        216
cpu0_ITLB LOAD      ACCESS:    2159461  HIT:    2159245  MISS:        216
cpu0_ITLB RFO       ACCESS:          0  HIT:          0  MISS:          0
cpu0_ITLB PREFETCH  ACCESS:          0  HIT:          0  MISS:          0
cpu0_ITLB WRITEBACK ACCESS:          0  HIT:          0  MISS:          0
cpu0_L1I TOTAL     ACCESS:      98278  HIT:      97495  MISS:        783
cpu0_L1I LOAD      ACCESS:      98278  HIT:      97495  MISS:        783
cpu0_L1I RFO       ACCESS:          0  HIT:          0  MISS:          0
cpu0_L1I PREFETCH  ACCESS:          0  HIT:          0  MISS:          0
cpu0_L1I WRITEBACK ACCESS:          0  HIT:          0  MISS:          0
cpu0_STLB TOTAL     ACCESS:      28581  HIT:      28370  MISS:        211
cpu0_STLB LOAD      ACCESS:       6853  HIT:       6659  MISS:        194
cpu0_STLB RFO       ACCESS:      21728  HIT:      21711  MISS:         17
cpu0_STLB PREFETCH  ACCESS:          0  HIT:          0  MISS:          0
cpu0_STLB WRITEBACK ACCESS:          0  HIT:          0  MISS:          0
cpu0_L1D TOTAL     ACCESS:    1610941  HIT:     309592  MISS:    1301349
cpu0_L1D LOAD      ACCESS:     152232  HIT:     136366  MISS:      15866
cpu0_L1D RFO       ACCESS:    1458499  HIT:     173128  MISS:    1285371
cpu0_L1D PREFETCH  ACCESS:          0  HIT:          0  MISS:          0
cpu0_L1D WRITEBACK ACCESS:          0  HIT:          0  MISS:          0
cpu0_L2C TOTAL     ACCESS:    2591856  HIT:    1669006  MISS:     922850
cpu0_L2C LOAD      ACCESS:      16649  HIT:       4114  MISS:      12535
cpu0_L2C RFO       ACCESS:    1285371  HIT:     375168  MISS:     910203
cpu0_L2C PREFETCH  ACCESS:          0  HIT:          0  MISS:          0
cpu0_L2C WRITEBACK ACCESS:    1289724  HIT:    1289724  MISS:          0
LLC TOTAL     ACCESS:    1835896  HIT:    1832655  MISS:       3241
LLC LOAD      ACCESS:      12535  HIT:       9476  MISS:       3059
LLC RFO       ACCESS:     910203  HIT:     910021  MISS:        182
LLC PREFETCH  ACCESS:          0  HIT:          0  MISS:          0
LLC WRITEBACK ACCESS:     913046  HIT:     913046  MISS:          0
Heartbeat CPU 0 instructions: 78000000 cycles: 32983727 heartbeat IPC: 2.28055 cumulative IPC: 2.19383 (Simulation time: 1 hr 6 min 29 sec) 

Region of Interest Statistics
cpu0_DTLB TOTAL     ACCESS:    4594589  HIT:    4564059  MISS:      30530
cpu0_DTLB LOAD      ACCESS:     152881  HIT:     145800  MISS:       7081
cpu0_DTLB RFO       ACCESS:    4441708  HIT:    4418259  MISS:      23449
cpu0_DTLB PREFETCH  ACCESS:          0  HIT:          0  MISS:          0
cpu0_DTLB WRITEBACK ACCESS:          0  HIT:          0  MISS:          0
cpu0_ITLB TOTAL     ACCESS:    2322683  HIT:    2322456  MISS:        227
cpu0_ITLB LOAD      ACCESS:    2322683  HIT:    2322456  MISS:        227
cpu0_ITLB RFO       ACCESS:          0  HIT:          0  MISS:          0
cpu0_ITLB PREFETCH  ACCESS:          0  HIT:          0  MISS:          0
cpu0_ITLB WRITEBACK ACCESS:          0  HIT:          0  MISS:          0
cpu0_L1I TOTAL     ACCESS:     102605  HIT:     101796  MISS:        809
cpu0_L1I LOAD      ACCESS:     102605  HIT:     101796  MISS:        809
cpu0_L1I RFO       ACCESS:          0  HIT:          0  MISS:          0
cpu0_L1I PREFETCH  ACCESS:          0  HIT:          0  MISS:          0
cpu0_L1I WRITEBACK ACCESS:          0  HIT:          0  MISS:          0
cpu0_STLB TOTAL     ACCESS:      30757  HIT:      30540  MISS:        217
cpu0_STLB LOAD      ACCESS:       7308  HIT:       7108  MISS:        200
cpu0_STLB RFO       ACCESS:      23449  HIT:      23432  MISS:         17
cpu0_STLB PREFETCH  ACCESS:          0  HIT:          0  MISS:          0
cpu0_STLB WRITEBACK ACCESS:          0  HIT:          0  MISS:          0
cpu0_L1D TOTAL     ACCESS:    1726859  HIT:     322555  MISS:    1404304
cpu0_L1D LOAD      ACCESS:     158620  HIT:     141839  MISS:      16781
cpu0_L1D RFO       ACCESS:    1568023  HIT:     180616  MISS:    1387407
cpu0_L1D PREFETCH  ACCESS:          0  HIT:          0  MISS:          0
cpu0_L1D WRITEBACK ACCESS:          0  HIT:          0  MISS:          0
cpu0_L2C TOTAL     ACCESS:    2797175  HIT:    1801783  MISS:     995392
cpu0_L2C LOAD      ACCESS:      17590  HIT:       4387  MISS:      13203
cpu0_L2C RFO       ACCESS:    1387407  HIT:     405334  MISS:     982073
cpu0_L2C PREFETCH  ACCESS:          0  HIT:          0  MISS:          0
cpu0_L2C WRITEBACK ACCESS:    1392062  HIT:    1392062  MISS:          0
LLC TOTAL     ACCESS:    1980386  HIT:    1977100  MISS:       3286
LLC LOAD      ACCESS:      13203  HIT:      10105  MISS:       3098
LLC RFO       ACCESS:     982073  HIT:     981885  MISS:        188
LLC PREFETCH  ACCESS:          0  HIT:          0  MISS:          0
LLC WRITEBACK ACCESS:     984994  HIT:     984994  MISS:          0
Heartbeat CPU 0 instructions: 80000001 cycles: 33872413 heartbeat IPC: 2.25051 cumulative IPC: 2.19752 (Simulation time: 1 hr 8 min 16 sec) 

Region of Interest Statistics
cpu0_DTLB TOTAL     ACCESS:    4919582  HIT:    4886840  MISS:      32742
cpu0_DTLB LOAD      ACCESS:     162651  HIT:     155026  MISS:       7625
cpu0_DTLB RFO       ACCESS:    4756931  HIT:    4731814  MISS:      25117
cpu0_DTLB PREFETCH  ACCESS:          0  HIT:          0  MISS:          0
cpu0_DTLB WRITEBACK ACCESS:          0  HIT:          0  MISS:          0
cpu0_ITLB TOTAL     ACCESS:    2491791  HIT:    2491534  MISS:        257
cpu0_ITLB LOAD      ACCESS:    2491791  HIT:    2491534  MISS:        257
cpu0_ITLB RFO       ACCESS:          0  HIT:          0  MISS:          0
cpu0_ITLB PREFETCH  ACCESS:          0  HIT:          0  MISS:          0
cpu0_ITLB WRITEBACK ACCESS:          0  HIT:          0  MISS:          0
cpu0_L1I TOTAL     ACCESS:     109592  HIT:     108699  MISS:        893
cpu0_L1I LOAD      ACCESS:     109592  HIT:     108699  MISS:        893
cpu0_L1I RFO       ACCESS:          0  HIT:          0  MISS:          0
cpu0_L1I PREFETCH  ACCESS:          0  HIT:          0  MISS:          0
cpu0_L1I WRITEBACK ACCESS:          0  HIT:          0  MISS:          0
cpu0_STLB TOTAL     ACCESS:      32999  HIT:      32770  MISS:        229
cpu0_STLB LOAD      ACCESS:       7882  HIT:       7670  MISS:        212
cpu0_STLB RFO       ACCESS:      25117  HIT:      25100  MISS:         17
cpu0_STLB PREFETCH  ACCESS:          0  HIT:          0  MISS:          0
cpu0_STLB WRITEBACK ACCESS:          0  HIT:          0  MISS:          0
cpu0_L1D TOTAL     ACCESS:    1846076  HIT:     342513  MISS:    1503563
cpu0_L1D LOAD      ACCESS:     168551  HIT:     150578  MISS:      17973
cpu0_L1D RFO       ACCESS:    1677297  HIT:     191832  MISS:    1485465
cpu0_L1D PREFETCH  ACCESS:          0  HIT:          0  MISS:          0
cpu0_L1D WRITEBACK ACCESS:          0  HIT:          0  MISS:          0
cpu0_L2C TOTAL     ACCESS:    2994903  HIT:    1929164  MISS:    1065739
cpu0_L2C LOAD      ACCESS:      18866  HIT:       4722  MISS:      14144
cpu0_L2C RFO       ACCESS:    1485465  HIT:     433995  MISS:    1051470
cpu0_L2C PREFETCH  ACCESS:          0  HIT:          0  MISS:          0
cpu0_L2C WRITEBACK ACCESS:    1490447  HIT:    1490447  MISS:          0
LLC TOTAL     ACCESS:    2120428  HIT:    2116977  MISS:       3451
LLC LOAD      ACCESS:      14144  HIT:      10889  MISS:       3255
LLC RFO       ACCESS:    1051470  HIT:    1051274  MISS:        196
LLC PREFETCH  ACCESS:          0  HIT:          0  MISS:          0
LLC WRITEBACK ACCESS:    1054689  HIT:    1054689  MISS:          0
Heartbeat CPU 0 instructions: 82000000 cycles: 34774646 heartbeat IPC: 2.21672 cumulative IPC: 2.19871 (Simulation time: 1 hr 10 min 4 sec) 

Region of Interest Statistics
cpu0_DTLB TOTAL     ACCESS:    5250168  HIT:    5215235  MISS:      34933
cpu0_DTLB LOAD      ACCESS:     169835  HIT:     161744  MISS:       8091
cpu0_DTLB RFO       ACCESS:    5080333  HIT:    5053491  MISS:      26842
cpu0_DTLB PREFETCH  ACCESS:          0  HIT:          0  MISS:          0
cpu0_DTLB WRITEBACK ACCESS:          0  HIT:          0  MISS:          0
cpu0_ITLB TOTAL     ACCESS:    2653815  HIT:    2653545  MISS:        270
cpu0_ITLB LOAD      ACCESS:    2653815  HIT:    2653545  MISS:        270
cpu0_ITLB RFO       ACCESS:          0  HIT:          0  MISS:          0
cpu0_ITLB PREFETCH  ACCESS:          0  HIT:          0  MISS:          0
cpu0_ITLB WRITEBACK ACCESS:          0  HIT:          0  MISS:          0
cpu0_L1I TOTAL     ACCESS:     114682  HIT:     113753  MISS:        929
cpu0_L1I LOAD      ACCESS:     114682  HIT:     113753  MISS:        929
cpu0_L1I RFO       ACCESS:          0  HIT:          0  MISS:          0
cpu0_L1I PREFETCH  ACCESS:          0  HIT:          0  MISS:          0
cpu0_L1I WRITEBACK ACCESS:          0  HIT:          0  MISS:          0
cpu0_STLB TOTAL     ACCESS:      35203  HIT:      34960  MISS:        243
cpu0_STLB LOAD      ACCESS:       8361  HIT:       8135  MISS:        226
cpu0_STLB RFO       ACCESS:      26842  HIT:      26825  MISS:         17
cpu0_STLB PREFETCH  ACCESS:          0  HIT:          0  MISS:          0
cpu0_STLB WRITEBACK ACCESS:          0  HIT:          0  MISS:          0
cpu0_L1D TOTAL     ACCESS:    1964186  HIT:     357269  MISS:    1606917
cpu0_L1D LOAD      ACCESS:     176047  HIT:     157027  MISS:      19020
cpu0_L1D RFO       ACCESS:    1787897  HIT:     200134  MISS:    1587763
cpu0_L1D PREFETCH  ACCESS:          0  HIT:          0  MISS:          0
cpu0_L1D WRITEBACK ACCESS:          0  HIT:          0  MISS:          0
cpu0_L2C TOTAL     ACCESS:    3200902  HIT:    2062601  MISS:    1138301
cpu0_L2C LOAD      ACCESS:      19949  HIT:       5032  MISS:      14917
cpu0_L2C RFO       ACCESS:    1587763  HIT:     464513  MISS:    1123250
cpu0_L2C PREFETCH  ACCESS:          0  HIT:          0  MISS:          0
cpu0_L2C WRITEBACK ACCESS:    1593056  HIT:    1593056  MISS:          0
LLC TOTAL     ACCESS:    2264867  HIT:    2261246  MISS:       3621
LLC LOAD      ACCESS:      14917  HIT:      11499  MISS:       3418
LLC RFO       ACCESS:    1123250  HIT:    1123047  MISS:        203
LLC PREFETCH  ACCESS:          0  HIT:          0  MISS:          0
LLC WRITEBACK ACCESS:    1126566  HIT:    1126566  MISS:          0
Heartbeat CPU 0 instructions: 84000001 cycles: 35687328 heartbeat IPC: 2.19134 cumulative IPC: 2.19827 (Simulation time: 1 hr 11 min 46 sec) 

Region of Interest Statistics
cpu0_DTLB TOTAL     ACCESS:    5572976  HIT:    5535860  MISS:      37116
cpu0_DTLB LOAD      ACCESS:     181682  HIT:     173052  MISS:       8630
cpu0_DTLB RFO       ACCESS:    5391294  HIT:    5362808  MISS:      28486
cpu0_DTLB PREFETCH  ACCESS:          0  HIT:          0  MISS:          0
cpu0_DTLB WRITEBACK ACCESS:          0  HIT:          0  MISS:          0
cpu0_ITLB TOTAL     ACCESS:    2825993  HIT:    2825709  MISS:        284
cpu0_ITLB LOAD      ACCESS:    2825993  HIT:    2825709  MISS:        284
cpu0_ITLB RFO       ACCESS:          0  HIT:          0  MISS:          0
cpu0_ITLB PREFETCH  ACCESS:          0  HIT:          0  MISS:          0
cpu0_ITLB WRITEBACK ACCESS:          0  HIT:          0  MISS:          0
cpu0_L1I TOTAL     ACCESS:     122734  HIT:     121760  MISS:        974
cpu0_L1I LOAD      ACCESS:     122734  HIT:     121760  MISS:        974
cpu0_L1I RFO       ACCESS:          0  HIT:          0  MISS:          0
cpu0_L1I PREFETCH  ACCESS:          0  HIT:          0  MISS:          0
cpu0_L1I WRITEBACK ACCESS:          0  HIT:          0  MISS:          0
cpu0_STLB TOTAL     ACCESS:      37400  HIT:      37139  MISS:        261
cpu0_STLB LOAD      ACCESS:       8914  HIT:       8673  MISS:        241
cpu0_STLB RFO       ACCESS:      28486  HIT:      28466  MISS:         20
cpu0_STLB PREFETCH  ACCESS:          0  HIT:          0  MISS:          0
cpu0_STLB WRITEBACK ACCESS:          0  HIT:          0  MISS:          0
cpu0_L1D TOTAL     ACCESS:    2085903  HIT:     381684  MISS:    1704219
cpu0_L1D LOAD      ACCESS:     188457  HIT:     168028  MISS:      20429
cpu0_L1D RFO       ACCESS:    1897187  HIT:     213541  MISS:    1683646
cpu0_L1D PREFETCH  ACCESS:          0  HIT:          0  MISS:          0
cpu0_L1D WRITEBACK ACCESS:          0  HIT:          0  MISS:          0
cpu0_L2C TOTAL     ACCESS:    3394668  HIT:    2186594  MISS:    1208074
cpu0_L2C LOAD      ACCESS:      21403  HIT:       5326  MISS:      16077
cpu0_L2C RFO       ACCESS:    1683646  HIT:     491793  MISS:    1191853
cpu0_L2C PREFETCH  ACCESS:          0  HIT:          0  MISS:          0
cpu0_L2C WRITEBACK ACCESS:    1689475  HIT:    1689475  MISS:          0
LLC TOTAL     ACCESS:    2403621  HIT:    2399628  MISS:       3993
LLC LOAD      ACCESS:      16077  HIT:      12300  MISS:       3777
LLC RFO       ACCESS:    1191853  HIT:    1191637  MISS:        216
LLC PREFETCH  ACCESS:          0  HIT:          0  MISS:          0
LLC WRITEBACK ACCESS:    1195547  HIT:    1195547  MISS:          0
Heartbeat CPU 0 instructions: 86000003 cycles: 36632722 heartbeat IPC: 2.11552 cumulative IPC: 2.19351 (Simulation time: 1 hr 13 min 43 sec) 

Region of Interest Statistics
cpu0_DTLB TOTAL     ACCESS:    5908560  HIT:    5869260  MISS:      39300
cpu0_DTLB LOAD      ACCESS:     191485  HIT:     182416  MISS:       9069
cpu0_DTLB RFO       ACCESS:    5717075  HIT:    5686844  MISS:      30231
cpu0_DTLB PREFETCH  ACCESS:          0  HIT:          0  MISS:          0
cpu0_DTLB WRITEBACK ACCESS:          0  HIT:          0  MISS:          0
cpu0_ITLB TOTAL     ACCESS:    2983744  HIT:    2983448  MISS:        296
cpu0_ITLB LOAD      ACCESS:    2983744  HIT:    2983448  MISS:        296
cpu0_ITLB RFO       ACCESS:          0  HIT:          0  MISS:          0
cpu0_ITLB PREFETCH  ACCESS:          0  HIT:          0  MISS:          0
cpu0_ITLB WRITEBACK ACCESS:          0  HIT:          0  MISS:          0
cpu0_L1I TOTAL     ACCESS:     129480  HIT:     128464  MISS:       1016
cpu0_L1I LOAD      ACCESS:     129480  HIT:     128464  MISS:       1016
cpu0_L1I RFO       ACCESS:          0  HIT:          0  MISS:          0
cpu0_L1I PREFETCH  ACCESS:          0  HIT:          0  MISS:          0
cpu0_L1I WRITEBACK ACCESS:          0  HIT:          0  MISS:          0
cpu0_STLB TOTAL     ACCESS:      39596  HIT:      39313  MISS:        283
cpu0_STLB LOAD      ACCESS:       9365  HIT:       9102  MISS:        263
cpu0_STLB RFO       ACCESS:      30231  HIT:      30211  MISS:         20
cpu0_STLB PREFETCH  ACCESS:          0  HIT:          0  MISS:          0
cpu0_STLB WRITEBACK ACCESS:          0  HIT:          0  MISS:          0
cpu0_L1D TOTAL     ACCESS:    2211327  HIT:     402480  MISS:    1808847
cpu0_L1D LOAD      ACCESS:     198715  HIT:     177110  MISS:      21605
cpu0_L1D RFO       ACCESS:    2012331  HIT:     225240  MISS:    1787091
cpu0_L1D PREFETCH  ACCESS:          0  HIT:          0  MISS:          0
cpu0_L1D WRITEBACK ACCESS:          0  HIT:          0  MISS:          0
cpu0_L2C TOTAL     ACCESS:    3602908  HIT:    2321868  MISS:    1281040
cpu0_L2C LOAD      ACCESS:      22621  HIT:       5606  MISS:      17015
cpu0_L2C RFO       ACCESS:    1787091  HIT:     523217  MISS:    1263874
cpu0_L2C PREFETCH  ACCESS:          0  HIT:          0  MISS:          0
cpu0_L2C WRITEBACK ACCESS:    1793045  HIT:    1793045  MISS:          0
LLC TOTAL     ACCESS:    2548651  HIT:    2544398  MISS:       4253
LLC LOAD      ACCESS:      17015  HIT:      12989  MISS:       4026
LLC RFO       ACCESS:    1263874  HIT:    1263647  MISS:        227
LLC PREFETCH  ACCESS:          0  HIT:          0  MISS:          0
LLC WRITEBACK ACCESS:    1267611  HIT:    1267611  MISS:          0
Heartbeat CPU 0 instructions: 88000000 cycles: 37504394 heartbeat IPC: 2.29444 cumulative IPC: 2.1986 (Simulation time: 1 hr 15 min 23 sec) 

Region of Interest Statistics
cpu0_DTLB TOTAL     ACCESS:    6230510  HIT:    6189115  MISS:      41395
cpu0_DTLB LOAD      ACCESS:     201951  HIT:     192411  MISS:       9540
cpu0_DTLB RFO       ACCESS:    6028559  HIT:    5996704  MISS:      31855
cpu0_DTLB PREFETCH  ACCESS:          0  HIT:          0  MISS:          0
cpu0_DTLB WRITEBACK ACCESS:          0  HIT:          0  MISS:          0
cpu0_ITLB TOTAL     ACCESS:    3155760  HIT:    3155453  MISS:        307
cpu0_ITLB LOAD      ACCESS:    3155760  HIT:    3155453  MISS:        307
cpu0_ITLB RFO       ACCESS:          0  HIT:          0  MISS:          0
cpu0_ITLB PREFETCH  ACCESS:          0  HIT:          0  MISS:          0
cpu0_ITLB WRITEBACK ACCESS:          0  HIT:          0  MISS:          0
cpu0_L1I TOTAL     ACCESS:     136416  HIT:     135353  MISS:       1063
cpu0_L1I LOAD      ACCESS:     136416  HIT:     135353  MISS:       1063
cpu0_L1I RFO       ACCESS:          0  HIT:          0  MISS:          0
cpu0_L1I PREFETCH  ACCESS:          0  HIT:          0  MISS:          0
cpu0_L1I WRITEBACK ACCESS:          0  HIT:          0  MISS:          0
cpu0_STLB TOTAL     ACCESS:      41702  HIT:      41410  MISS:        292
cpu0_STLB LOAD      ACCESS:       9847  HIT:       9575  MISS:        272
cpu0_STLB RFO       ACCESS:      31855  HIT:      31835  MISS:         20
cpu0_STLB PREFETCH  ACCESS:          0  HIT:          0  MISS:          0
cpu0_STLB WRITEBACK ACCESS:          0  HIT:          0  MISS:          0
cpu0_L1D TOTAL     ACCESS:    2331413  HIT:     425452  MISS:    1905961
cpu0_L1D LOAD      ACCESS:     209761  HIT:     187129  MISS:      22632
cpu0_L1D RFO       ACCESS:    2121362  HIT:     238190  MISS:    1883172
cpu0_L1D PREFETCH  ACCESS:          0  HIT:          0  MISS:          0
cpu0_L1D WRITEBACK ACCESS:          0  HIT:          0  MISS:          0
cpu0_L2C TOTAL     ACCESS:    3796469  HIT:    2445807  MISS:    1350662
cpu0_L2C LOAD      ACCESS:      23695  HIT:       5888  MISS:      17807
cpu0_L2C RFO       ACCESS:    1883172  HIT:     550474  MISS:    1332698
cpu0_L2C PREFETCH  ACCESS:          0  HIT:          0  MISS:          0
cpu0_L2C WRITEBACK ACCESS:    1889445  HIT:    1889445  MISS:          0
LLC TOTAL     ACCESS:    2687276  HIT:    2682874  MISS:       4402
LLC LOAD      ACCESS:      17807  HIT:      13646  MISS:       4161
LLC RFO       ACCESS:    1332698  HIT:    1332457  MISS:        241
LLC PREFETCH  ACCESS:          0  HIT:          0  MISS:          0
LLC WRITEBACK ACCESS:    1336614  HIT:    1336614  MISS:          0
Heartbeat CPU 0 instructions: 90000001 cycles: 38412758 heartbeat IPC: 2.20176 cumulative IPC: 2.19876 (Simulation time: 1 hr 17 min 17 sec) 

Region of Interest Statistics
cpu0_DTLB TOTAL     ACCESS:    6564685  HIT:    6521023  MISS:      43662
cpu0_DTLB LOAD      ACCESS:     209286  HIT:     199250  MISS:      10036
cpu0_DTLB RFO       ACCESS:    6355399  HIT:    6321773  MISS:      33626
cpu0_DTLB PREFETCH  ACCESS:          0  HIT:          0  MISS:          0
cpu0_DTLB WRITEBACK ACCESS:          0  HIT:          0  MISS:          0
cpu0_ITLB TOTAL     ACCESS:    3314154  HIT:    3313834  MISS:        320
cpu0_ITLB LOAD      ACCESS:    3314154  HIT:    3313834  MISS:        320
cpu0_ITLB RFO       ACCESS:          0  HIT:          0  MISS:          0
cpu0_ITLB PREFETCH  ACCESS:          0  HIT:          0  MISS:          0
cpu0_ITLB WRITEBACK ACCESS:          0  HIT:          0  MISS:          0
cpu0_L1I TOTAL     ACCESS:     141412  HIT:     140333  MISS:       1079
cpu0_L1I LOAD      ACCESS:     141412  HIT:     140333  MISS:       1079
cpu0_L1I RFO       ACCESS:          0  HIT:          0  MISS:          0
cpu0_L1I PREFETCH  ACCESS:          0  HIT:          0  MISS:          0
cpu0_L1I WRITEBACK ACCESS:          0  HIT:          0  MISS:          0
cpu0_STLB TOTAL     ACCESS:      43982  HIT:      43681  MISS:        301
cpu0_STLB LOAD      ACCESS:      10356  HIT:      10075  MISS:        281
cpu0_STLB RFO       ACCESS:      33626  HIT:      33606  MISS:         20
cpu0_STLB PREFETCH  ACCESS:          0  HIT:          0  MISS:          0
cpu0_STLB WRITEBACK ACCESS:          0  HIT:          0  MISS:          0
cpu0_L1D TOTAL     ACCESS:    2451820  HIT:     440779  MISS:    2011041
cpu0_L1D LOAD      ACCESS:     217373  HIT:     193671  MISS:      23702
cpu0_L1D RFO       ACCESS:    2234148  HIT:     246971  MISS:    1987177
cpu0_L1D PREFETCH  ACCESS:          0  HIT:          0  MISS:          0
cpu0_L1D WRITEBACK ACCESS:          0  HIT:          0  MISS:          0
cpu0_L2C TOTAL     ACCESS:    4005927  HIT:    2582018  MISS:    1423909
cpu0_L2C LOAD      ACCESS:      24781  HIT:       6229  MISS:      18552
cpu0_L2C RFO       ACCESS:    1987178  HIT:     581983  MISS:    1405195
cpu0_L2C PREFETCH  ACCESS:          0  HIT:          0  MISS:          0
cpu0_L2C WRITEBACK ACCESS:    1993806  HIT:    1993806  MISS:          0
LLC TOTAL     ACCESS:    2833220  HIT:    2828727  MISS:       4493
LLC LOAD      ACCESS:      18552  HIT:      14307  MISS:       4245
LLC RFO       ACCESS:    1405195  HIT:    1404947  MISS:        248
LLC PREFETCH  ACCESS:          0  HIT:          0  MISS:          0
LLC WRITEBACK ACCESS:    1409311  HIT:    1409311  MISS:          0
Heartbeat CPU 0 instructions: 92000001 cycles: 39272239 heartbeat IPC: 2.32699 cumulative IPC: 2.20454 (Simulation time: 1 hr 18 min 59 sec) 

Region of Interest Statistics
cpu0_DTLB TOTAL     ACCESS:    6885557  HIT:    6839847  MISS:      45710
cpu0_DTLB LOAD      ACCESS:     217858  HIT:     207399  MISS:      10459
cpu0_DTLB RFO       ACCESS:    6667699  HIT:    6632448  MISS:      35251
cpu0_DTLB PREFETCH  ACCESS:          0  HIT:          0  MISS:          0
cpu0_DTLB WRITEBACK ACCESS:          0  HIT:          0  MISS:          0
cpu0_ITLB TOTAL     ACCESS:    3487151  HIT:    3486803  MISS:        348
cpu0_ITLB LOAD      ACCESS:    3487151  HIT:    3486803  MISS:        348
cpu0_ITLB RFO       ACCESS:          0  HIT:          0  MISS:          0
cpu0_ITLB PREFETCH  ACCESS:          0  HIT:          0  MISS:          0
cpu0_ITLB WRITEBACK ACCESS:          0  HIT:          0  MISS:          0
cpu0_L1I TOTAL     ACCESS:     147708  HIT:     146538  MISS:       1170
cpu0_L1I LOAD      ACCESS:     147708  HIT:     146538  MISS:       1170
cpu0_L1I RFO       ACCESS:          0  HIT:          0  MISS:          0
cpu0_L1I PREFETCH  ACCESS:          0  HIT:          0  MISS:          0
cpu0_L1I WRITEBACK ACCESS:          0  HIT:          0  MISS:          0
cpu0_STLB TOTAL     ACCESS:      46058  HIT:      45750  MISS:        308
cpu0_STLB LOAD      ACCESS:      10807  HIT:      10519  MISS:        288
cpu0_STLB RFO       ACCESS:      35251  HIT:      35231  MISS:         20
cpu0_STLB PREFETCH  ACCESS:          0  HIT:          0  MISS:          0
cpu0_STLB WRITEBACK ACCESS:          0  HIT:          0  MISS:          0
cpu0_L1D TOTAL     ACCESS:    2566973  HIT:     458369  MISS:    2108604
cpu0_L1D LOAD      ACCESS:     226049  HIT:     201338  MISS:      24711
cpu0_L1D RFO       ACCESS:    2340618  HIT:     256892  MISS:    2083726
cpu0_L1D PREFETCH  ACCESS:          0  HIT:          0  MISS:          0
cpu0_L1D WRITEBACK ACCESS:          0  HIT:          0  MISS:          0
cpu0_L2C TOTAL     ACCESS:    4200413  HIT:    2706661  MISS:    1493752
cpu0_L2C LOAD      ACCESS:      25881  HIT:       6580  MISS:      19301
cpu0_L2C RFO       ACCESS:    2083726  HIT:     609442  MISS:    1474284
cpu0_L2C PREFETCH  ACCESS:          0  HIT:          0  MISS:          0
cpu0_L2C WRITEBACK ACCESS:    2090639  HIT:    2090639  MISS:          0
LLC TOTAL     ACCESS:    2972327  HIT:    2967720  MISS:       4607
LLC LOAD      ACCESS:      19301  HIT:      14949  MISS:       4352
LLC RFO       ACCESS:    1474284  HIT:    1474029  MISS:        255
LLC PREFETCH  ACCESS:          0  HIT:          0  MISS:          0
LLC WRITEBACK ACCESS:    1478575  HIT:    1478575  MISS:          0
Heartbeat CPU 0 instructions: 94000001 cycles: 40200331 heartbeat IPC: 2.15496 cumulative IPC: 2.20224 (Simulation time: 1 hr 20 min 53 sec) 

Region of Interest Statistics
cpu0_DTLB TOTAL     ACCESS:    7220271  HIT:    7172346  MISS:      47925
cpu0_DTLB LOAD      ACCESS:     226193  HIT:     215265  MISS:      10928
cpu0_DTLB RFO       ACCESS:    6994078  HIT:    6957081  MISS:      36997
cpu0_DTLB PREFETCH  ACCESS:          0  HIT:          0  MISS:          0
cpu0_DTLB WRITEBACK ACCESS:          0  HIT:          0  MISS:          0
cpu0_ITLB TOTAL     ACCESS:    3645322  HIT:    3644959  MISS:        363
cpu0_ITLB LOAD      ACCESS:    3645322  HIT:    3644959  MISS:        363
cpu0_ITLB RFO       ACCESS:          0  HIT:          0  MISS:          0
cpu0_ITLB PREFETCH  ACCESS:          0  HIT:          0  MISS:          0
cpu0_ITLB WRITEBACK ACCESS:          0  HIT:          0  MISS:          0
cpu0_L1I TOTAL     ACCESS:     153402  HIT:     152190  MISS:       1212
cpu0_L1I LOAD      ACCESS:     153402  HIT:     152190  MISS:       1212
cpu0_L1I RFO       ACCESS:          0  HIT:          0  MISS:          0
cpu0_L1I PREFETCH  ACCESS:          0  HIT:          0  MISS:          0
cpu0_L1I WRITEBACK ACCESS:          0  HIT:          0  MISS:          0
cpu0_STLB TOTAL     ACCESS:      48288  HIT:      47968  MISS:        320
cpu0_STLB LOAD      ACCESS:      11291  HIT:      10991  MISS:        300
cpu0_STLB RFO       ACCESS:      36997  HIT:      36977  MISS:         20
cpu0_STLB PREFETCH  ACCESS:          0  HIT:          0  MISS:          0
cpu0_STLB WRITEBACK ACCESS:          0  HIT:          0  MISS:          0
cpu0_L1D TOTAL     ACCESS:    2689016  HIT:     475399  MISS:    2213617
cpu0_L1D LOAD      ACCESS:     234725  HIT:     208825  MISS:      25900
cpu0_L1D RFO       ACCESS:    2453973  HIT:     266430  MISS:    2187543
cpu0_L1D PREFETCH  ACCESS:          0  HIT:          0  MISS:          0
cpu0_L1D WRITEBACK ACCESS:          0  HIT:          0  MISS:          0
cpu0_L2C TOTAL     ACCESS:    4409641  HIT:    2842244  MISS:    1567397
cpu0_L2C LOAD      ACCESS:      27112  HIT:       6937  MISS:      20175
cpu0_L2C RFO       ACCESS:    2187543  HIT:     640495  MISS:    1547048
cpu0_L2C PREFETCH  ACCESS:          0  HIT:          0  MISS:          0
cpu0_L2C WRITEBACK ACCESS:    2194812  HIT:    2194812  MISS:          0
LLC TOTAL     ACCESS:    3118945  HIT:    3114129  MISS:       4816
LLC LOAD      ACCESS:      20175  HIT:      15622  MISS:       4553
LLC RFO       ACCESS:    1547048  HIT:    1546785  MISS:        263
LLC PREFETCH  ACCESS:          0  HIT:          0  MISS:          0
LLC WRITEBACK ACCESS:    1551548  HIT:    1551548  MISS:          0
Heartbeat CPU 0 instructions: 96000001 cycles: 41128350 heartbeat IPC: 2.15513 cumulative IPC: 2.20015 (Simulation time: 1 hr 22 min 36 sec) 

Region of Interest Statistics
cpu0_DTLB TOTAL     ACCESS:    7543142  HIT:    7493128  MISS:      50014
cpu0_DTLB LOAD      ACCESS:     238328  HIT:     226931  MISS:      11397
cpu0_DTLB RFO       ACCESS:    7304814  HIT:    7266197  MISS:      38617
cpu0_DTLB PREFETCH  ACCESS:          0  HIT:          0  MISS:          0
cpu0_DTLB WRITEBACK ACCESS:          0  HIT:          0  MISS:          0
cpu0_ITLB TOTAL     ACCESS:    3817732  HIT:    3817356  MISS:        376
cpu0_ITLB LOAD      ACCESS:    3817732  HIT:    3817356  MISS:        376
cpu0_ITLB RFO       ACCESS:          0  HIT:          0  MISS:          0
cpu0_ITLB PREFETCH  ACCESS:          0  HIT:          0  MISS:          0
cpu0_ITLB WRITEBACK ACCESS:          0  HIT:          0  MISS:          0
cpu0_L1I TOTAL     ACCESS:     161349  HIT:     160103  MISS:       1246
cpu0_L1I LOAD      ACCESS:     161349  HIT:     160103  MISS:       1246
cpu0_L1I RFO       ACCESS:          0  HIT:          0  MISS:          0
cpu0_L1I PREFETCH  ACCESS:          0  HIT:          0  MISS:          0
cpu0_L1I WRITEBACK ACCESS:          0  HIT:          0  MISS:          0
cpu0_STLB TOTAL     ACCESS:      50390  HIT:      50042  MISS:        348
cpu0_STLB LOAD      ACCESS:      11773  HIT:      11445  MISS:        328
cpu0_STLB RFO       ACCESS:      38617  HIT:      38597  MISS:         20
cpu0_STLB PREFETCH  ACCESS:          0  HIT:          0  MISS:          0
cpu0_STLB WRITEBACK ACCESS:          0  HIT:          0  MISS:          0
cpu0_L1D TOTAL     ACCESS:    2811065  HIT:     500212  MISS:    2310853
cpu0_L1D LOAD      ACCESS:     247368  HIT:     220053  MISS:      27315
cpu0_L1D RFO       ACCESS:    2563351  HIT:     279997  MISS:    2283354
cpu0_L1D PREFETCH  ACCESS:          0  HIT:          0  MISS:          0
cpu0_L1D WRITEBACK ACCESS:          0  HIT:          0  MISS:          0
cpu0_L2C TOTAL     ACCESS:    4603023  HIT:    2965603  MISS:    1637420
cpu0_L2C LOAD      ACCESS:      28561  HIT:       7215  MISS:      21346
cpu0_L2C RFO       ACCESS:    2283354  HIT:     667464  MISS:    1615890
cpu0_L2C PREFETCH  ACCESS:          0  HIT:          0  MISS:          0
cpu0_L2C WRITEBACK ACCESS:    2290924  HIT:    2290924  MISS:          0
LLC TOTAL     ACCESS:    3258013  HIT:    3252724  MISS:       5289
LLC LOAD      ACCESS:      21346  HIT:      16329  MISS:       5017
LLC RFO       ACCESS:    1615890  HIT:    1615618  MISS:        272
LLC PREFETCH  ACCESS:          0  HIT:          0  MISS:          0
LLC WRITEBACK ACCESS:    1620593  HIT:    1620593  MISS:          0
Heartbeat CPU 0 instructions: 98000000 cycles: 42145784 heartbeat IPC: 1.96573 cumulative IPC: 2.18927 (Simulation time: 1 hr 24 min 22 sec) 

Region of Interest Statistics
cpu0_DTLB TOTAL     ACCESS:    7873894  HIT:    7821424  MISS:      52470
cpu0_DTLB LOAD      ACCESS:     264449  HIT:     252159  MISS:      12290
cpu0_DTLB RFO       ACCESS:    7609445  HIT:    7569265  MISS:      40180
cpu0_DTLB PREFETCH  ACCESS:          0  HIT:          0  MISS:          0
cpu0_DTLB WRITEBACK ACCESS:          0  HIT:          0  MISS:          0
cpu0_ITLB TOTAL     ACCESS:    3985875  HIT:    3985475  MISS:        400
cpu0_ITLB LOAD      ACCESS:    3985875  HIT:    3985475  MISS:        400
cpu0_ITLB RFO       ACCESS:          0  HIT:          0  MISS:          0
cpu0_ITLB PREFETCH  ACCESS:          0  HIT:          0  MISS:          0
cpu0_ITLB WRITEBACK ACCESS:          0  HIT:          0  MISS:          0
cpu0_L1I TOTAL     ACCESS:     178150  HIT:     176729  MISS:       1421
cpu0_L1I LOAD      ACCESS:     178150  HIT:     176729  MISS:       1421
cpu0_L1I RFO       ACCESS:          0  HIT:          0  MISS:          0
cpu0_L1I PREFETCH  ACCESS:          0  HIT:          0  MISS:          0
cpu0_L1I WRITEBACK ACCESS:          0  HIT:          0  MISS:          0
cpu0_STLB TOTAL     ACCESS:      52870  HIT:      52479  MISS:        391
cpu0_STLB LOAD      ACCESS:      12690  HIT:      12320  MISS:        370
cpu0_STLB RFO       ACCESS:      40180  HIT:      40159  MISS:         21
cpu0_STLB PREFETCH  ACCESS:          0  HIT:          0  MISS:          0
cpu0_STLB WRITEBACK ACCESS:          0  HIT:          0  MISS:          0
cpu0_L1D TOTAL     ACCESS:    2961165  HIT:     555844  MISS:    2405321
cpu0_L1D LOAD      ACCESS:     274142  HIT:     245014  MISS:      29128
cpu0_L1D RFO       ACCESS:    2686634  HIT:     310640  MISS:    2375994
cpu0_L1D PREFETCH  ACCESS:          0  HIT:          0  MISS:          0
cpu0_L1D WRITEBACK ACCESS:          0  HIT:          0  MISS:          0
cpu0_L2C TOTAL     ACCESS:    4790706  HIT:    3084734  MISS:    1705972
cpu0_L2C LOAD      ACCESS:      30549  HIT:       7612  MISS:      22937
cpu0_L2C RFO       ACCESS:    2375994  HIT:     693158  MISS:    1682836
cpu0_L2C PREFETCH  ACCESS:          0  HIT:          0  MISS:          0
cpu0_L2C WRITEBACK ACCESS:    2383964  HIT:    2383964  MISS:          0
LLC TOTAL     ACCESS:    3393764  HIT:    3387869  MISS:       5895
LLC LOAD      ACCESS:      22937  HIT:      17343  MISS:       5594
LLC RFO       ACCESS:    1682836  HIT:    1682535  MISS:        301
LLC PREFETCH  ACCESS:          0  HIT:          0  MISS:          0
LLC WRITEBACK ACCESS:    1687792  HIT:    1687792  MISS:          0
Heartbeat CPU 0 instructions: 100000003 cycles: 43073277 heartbeat IPC: 2.15635 cumulative IPC: 2.18793 (Simulation time: 1 hr 26 min 11 sec) 

Region of Interest Statistics
cpu0_DTLB TOTAL     ACCESS:    8207073  HIT:    8152386  MISS:      54687
cpu0_DTLB LOAD      ACCESS:     276174  HIT:     263392  MISS:      12782
cpu0_DTLB RFO       ACCESS:    7930899  HIT:    7888994  MISS:      41905
cpu0_DTLB PREFETCH  ACCESS:          0  HIT:          0  MISS:          0
cpu0_DTLB WRITEBACK ACCESS:          0  HIT:          0  MISS:          0
cpu0_ITLB TOTAL     ACCESS:    4146448  HIT:    4146036  MISS:        412
cpu0_ITLB LOAD      ACCESS:    4146448  HIT:    4146036  MISS:        412
cpu0_ITLB RFO       ACCESS:          0  HIT:          0  MISS:          0
cpu0_ITLB PREFETCH  ACCESS:          0  HIT:          0  MISS:          0
cpu0_ITLB WRITEBACK ACCESS:          0  HIT:          0  MISS:          0
cpu0_L1I TOTAL     ACCESS:     185929  HIT:     184459  MISS:       1470
cpu0_L1I LOAD      ACCESS:     185929  HIT:     184459  MISS:       1470
cpu0_L1I RFO       ACCESS:          0  HIT:          0  MISS:          0
cpu0_L1I PREFETCH  ACCESS:          0  HIT:          0  MISS:          0
cpu0_L1I WRITEBACK ACCESS:          0  HIT:          0  MISS:          0
cpu0_STLB TOTAL     ACCESS:      55099  HIT:      54697  MISS:        402
cpu0_STLB LOAD      ACCESS:      13194  HIT:      12813  MISS:        381
cpu0_STLB RFO       ACCESS:      41905  HIT:      41884  MISS:         21
cpu0_STLB PREFETCH  ACCESS:          0  HIT:          0  MISS:          0
cpu0_STLB WRITEBACK ACCESS:          0  HIT:          0  MISS:          0
cpu0_L1D TOTAL     ACCESS:    3089435  HIT:     581745  MISS:    2507690
cpu0_L1D LOAD      ACCESS:     286441  HIT:     256121  MISS:      30320
cpu0_L1D RFO       ACCESS:    2802594  HIT:     325431  MISS:    2477163
cpu0_L1D PREFETCH  ACCESS:          0  HIT:          0  MISS:          0
cpu0_L1D WRITEBACK ACCESS:          0  HIT:          0  MISS:          0
cpu0_L2C TOTAL     ACCESS:    4994647  HIT:    3217630  MISS:    1777017
cpu0_L2C LOAD      ACCESS:      31790  HIT:       7903  MISS:      23887
cpu0_L2C RFO       ACCESS:    2477163  HIT:     724240  MISS:    1752923
cpu0_L2C PREFETCH  ACCESS:          0  HIT:          0  MISS:          0
cpu0_L2C WRITEBACK ACCESS:    2485487  HIT:    2485487  MISS:          0
LLC TOTAL     ACCESS:    3535140  HIT:    3529057  MISS:       6083
LLC LOAD      ACCESS:      23887  HIT:      18120  MISS:       5767
LLC RFO       ACCESS:    1752923  HIT:    1752607  MISS:        316
LLC PREFETCH  ACCESS:          0  HIT:          0  MISS:          0
LLC WRITEBACK ACCESS:    1758123  HIT:    1758123  MISS:          0
Heartbeat CPU 0 instructions: 102000001 cycles: 43939107 heartbeat IPC: 2.30992 cumulative IPC: 2.19239 (Simulation time: 1 hr 27 min 56 sec) 

Region of Interest Statistics
cpu0_DTLB TOTAL     ACCESS:    8531302  HIT:    8474526  MISS:      56776
cpu0_DTLB LOAD      ACCESS:     284551  HIT:     271341  MISS:      13210
cpu0_DTLB RFO       ACCESS:    8246751  HIT:    8203185  MISS:      43566
cpu0_DTLB PREFETCH  ACCESS:          0  HIT:          0  MISS:          0
cpu0_DTLB WRITEBACK ACCESS:          0  HIT:          0  MISS:          0
cpu0_ITLB TOTAL     ACCESS:    4315549  HIT:    4315126  MISS:        423
cpu0_ITLB LOAD      ACCESS:    4315549  HIT:    4315126  MISS:        423
cpu0_ITLB RFO       ACCESS:          0  HIT:          0  MISS:          0
cpu0_ITLB PREFETCH  ACCESS:          0  HIT:          0  MISS:          0
cpu0_ITLB WRITEBACK ACCESS:          0  HIT:          0  MISS:          0
cpu0_L1I TOTAL     ACCESS:     191501  HIT:     189991  MISS:       1510
cpu0_L1I LOAD      ACCESS:     191501  HIT:     189991  MISS:       1510
cpu0_L1I RFO       ACCESS:          0  HIT:          0  MISS:          0
cpu0_L1I PREFETCH  ACCESS:          0  HIT:          0  MISS:          0
cpu0_L1I WRITEBACK ACCESS:          0  HIT:          0  MISS:          0
cpu0_STLB TOTAL     ACCESS:      57199  HIT:      56796  MISS:        403
cpu0_STLB LOAD      ACCESS:      13633  HIT:      13251  MISS:        382
cpu0_STLB RFO       ACCESS:      43566  HIT:      43545  MISS:         21
cpu0_STLB PREFETCH  ACCESS:          0  HIT:          0  MISS:          0
cpu0_STLB WRITEBACK ACCESS:          0  HIT:          0  MISS:          0
cpu0_L1D TOTAL     ACCESS:    3206811  HIT:     599779  MISS:    2607032
cpu0_L1D LOAD      ACCESS:     295218  HIT:     263917  MISS:      31301
cpu0_L1D RFO       ACCESS:    2911192  HIT:     335669  MISS:    2575523
cpu0_L1D PREFETCH  ACCESS:          0  HIT:          0  MISS:          0
cpu0_L1D WRITEBACK ACCESS:          0  HIT:          0  MISS:          0
cpu0_L2C TOTAL     ACCESS:    5192693  HIT:    3344263  MISS:    1848430
cpu0_L2C LOAD      ACCESS:      32811  HIT:       8147  MISS:      24664
cpu0_L2C RFO       ACCESS:    2575523  HIT:     751965  MISS:    1823558
cpu0_L2C PREFETCH  ACCESS:          0  HIT:          0  MISS:          0
cpu0_L2C WRITEBACK ACCESS:    2584151  HIT:    2584151  MISS:          0
LLC TOTAL     ACCESS:    3677351  HIT:    3671185  MISS:       6166
LLC LOAD      ACCESS:      24664  HIT:      18825  MISS:       5839
LLC RFO       ACCESS:    1823558  HIT:    1823231  MISS:        327
LLC PREFETCH  ACCESS:          0  HIT:          0  MISS:          0
LLC WRITEBACK ACCESS:    1828921  HIT:    1828921  MISS:          0
Heartbeat CPU 0 instructions: 104000001 cycles: 44831633 heartbeat IPC: 2.24083 cumulative IPC: 2.19414 (Simulation time: 1 hr 29 min 45 sec) 

Region of Interest Statistics
cpu0_DTLB TOTAL     ACCESS:    8861063  HIT:    8802092  MISS:      58971
cpu0_DTLB LOAD      ACCESS:     292391  HIT:     278713  MISS:      13678
cpu0_DTLB RFO       ACCESS:    8568672  HIT:    8523379  MISS:      45293
cpu0_DTLB PREFETCH  ACCESS:          0  HIT:          0  MISS:          0
cpu0_DTLB WRITEBACK ACCESS:          0  HIT:          0  MISS:          0
cpu0_ITLB TOTAL     ACCESS:    4478915  HIT:    4478475  MISS:        440
cpu0_ITLB LOAD      ACCESS:    4478915  HIT:    4478475  MISS:        440
cpu0_ITLB RFO       ACCESS:          0  HIT:          0  MISS:          0
cpu0_ITLB PREFETCH  ACCESS:          0  HIT:          0  MISS:          0
cpu0_ITLB WRITEBACK ACCESS:          0  HIT:          0  MISS:          0
cpu0_L1I TOTAL     ACCESS:     196830  HIT:     195272  MISS:       1558
cpu0_L1I LOAD      ACCESS:     196830  HIT:     195272  MISS:       1558
cpu0_L1I RFO       ACCESS:          0  HIT:          0  MISS:          0
cpu0_L1I PREFETCH  ACCESS:          0  HIT:          0  MISS:          0
cpu0_L1I WRITEBACK ACCESS:          0  HIT:          0  MISS:          0
cpu0_STLB TOTAL     ACCESS:      59411  HIT:      58998  MISS:        413
cpu0_STLB LOAD      ACCESS:      14118  HIT:      13726  MISS:        392
cpu0_STLB RFO       ACCESS:      45293  HIT:      45272  MISS:         21
cpu0_STLB PREFETCH  ACCESS:          0  HIT:          0  MISS:          0
cpu0_STLB WRITEBACK ACCESS:          0  HIT:          0  MISS:          0
cpu0_L1D TOTAL     ACCESS:    3325493  HIT:     615918  MISS:    2709575
cpu0_L1D LOAD      ACCESS:     303229  HIT:     270868  MISS:      32361
cpu0_L1D RFO       ACCESS:    3021853  HIT:     344852  MISS:    2677001
cpu0_L1D PREFETCH  ACCESS:          0  HIT:          0  MISS:          0
cpu0_L1D WRITEBACK ACCESS:          0  HIT:          0  MISS:          0
cpu0_L2C TOTAL     ACCESS:    5397076  HIT:    3477251  MISS:    1919825
cpu0_L2C LOAD      ACCESS:      33919  HIT:       8420  MISS:      25499
cpu0_L2C RFO       ACCESS:    2677001  HIT:     782888  MISS:    1894113
cpu0_L2C PREFETCH  ACCESS:          0  HIT:          0  MISS:          0
cpu0_L2C WRITEBACK ACCESS:    2685943  HIT:    2685943  MISS:          0
LLC TOTAL     ACCESS:    3819565  HIT:    3813302  MISS:       6263
LLC LOAD      ACCESS:      25499  HIT:      19570  MISS:       5929
LLC RFO       ACCESS:    1894113  HIT:    1893779  MISS:        334
LLC PREFETCH  ACCESS:          0  HIT:          0  MISS:          0
LLC WRITEBACK ACCESS:    1899740  HIT:    1899740  MISS:          0
Heartbeat CPU 0 instructions: 106000002 cycles: 45711656 heartbeat IPC: 2.27267 cumulative IPC: 2.19685 (Simulation time: 1 hr 31 min 31 sec) 

Region of Interest Statistics
cpu0_DTLB TOTAL     ACCESS:    9186218  HIT:    9125097  MISS:      61121
cpu0_DTLB LOAD      ACCESS:     300278  HIT:     286126  MISS:      14152
cpu0_DTLB RFO       ACCESS:    8885940  HIT:    8838971  MISS:      46969
cpu0_DTLB PREFETCH  ACCESS:          0  HIT:          0  MISS:          0
cpu0_DTLB WRITEBACK ACCESS:          0  HIT:          0  MISS:          0
cpu0_ITLB TOTAL     ACCESS:    4646921  HIT:    4646457  MISS:        464
cpu0_ITLB LOAD      ACCESS:    4646921  HIT:    4646457  MISS:        464
cpu0_ITLB RFO       ACCESS:          0  HIT:          0  MISS:          0
cpu0_ITLB PREFETCH  ACCESS:          0  HIT:          0  MISS:          0
cpu0_ITLB WRITEBACK ACCESS:          0  HIT:          0  MISS:          0
cpu0_L1I TOTAL     ACCESS:     202727  HIT:     201090  MISS:       1637
cpu0_L1I LOAD      ACCESS:     202727  HIT:     201090  MISS:       1637
cpu0_L1I RFO       ACCESS:          0  HIT:          0  MISS:          0
cpu0_L1I PREFETCH  ACCESS:          0  HIT:          0  MISS:          0
cpu0_L1I WRITEBACK ACCESS:          0  HIT:          0  MISS:          0
cpu0_STLB TOTAL     ACCESS:      61585  HIT:      61159  MISS:        426
cpu0_STLB LOAD      ACCESS:      14616  HIT:      14212  MISS:        404
cpu0_STLB RFO       ACCESS:      46969  HIT:      46947  MISS:         22
cpu0_STLB PREFETCH  ACCESS:          0  HIT:          0  MISS:          0
cpu0_STLB WRITEBACK ACCESS:          0  HIT:          0  MISS:          0
cpu0_L1D TOTAL     ACCESS:    3441999  HIT:     632263  MISS:    2809736
cpu0_L1D LOAD      ACCESS:     311330  HIT:     277932  MISS:      33398
cpu0_L1D RFO       ACCESS:    3130245  HIT:     354129  MISS:    2776116
cpu0_L1D PREFETCH  ACCESS:          0  HIT:          0  MISS:          0
cpu0_L1D WRITEBACK ACCESS:          0  HIT:          0  MISS:          0
cpu0_L2C TOTAL     ACCESS:    5596752  HIT:    3605100  MISS:    1991652
cpu0_L2C LOAD      ACCESS:      35035  HIT:       8730  MISS:      26305
cpu0_L2C RFO       ACCESS:    2776116  HIT:     810991  MISS:    1965125
cpu0_L2C PREFETCH  ACCESS:          0  HIT:          0  MISS:          0
cpu0_L2C WRITEBACK ACCESS:    2785379  HIT:    2785379  MISS:          0
[...]
cpu0_DTLB AVERAGE MISS LATENCY: 14.0977 cycles
cpu0_ITLB TOTAL     ACCESS:  138343708  HIT:  138336672  MISS:       7036
cpu0_ITLB LOAD      ACCESS:  138343708  HIT:  138336672  MISS:       7036
cpu0_ITLB RFO       ACCESS:          0  HIT:          0  MISS:          0
cpu0_ITLB PREFETCH  ACCESS:          0  HIT:          0  MISS:          0
cpu0_ITLB WRITEBACK ACCESS:          0  HIT:          0  MISS:          0
cpu0_ITLB TRANSLATION ACCESS:          0  HIT:          0  MISS:          0
cpu0_ITLB PREFETCH  REQUESTED:          0  ISSUED:          0  USEFUL:          0  USELESS:          0
cpu0_ITLB AVERAGE MISS LATENCY: 12.2587 cycles
cpu0_L1I TOTAL     ACCESS:   91384746  HIT:   91361933  MISS:      22813
cpu0_L1I LOAD      ACCESS:   91384746  HIT:   91361933  MISS:      22813
cpu0_L1I RFO       ACCESS:          0  HIT:          0  MISS:          0
cpu0_L1I PREFETCH  ACCESS:          0  HIT:          0  MISS:          0
cpu0_L1I WRITEBACK ACCESS:          0  HIT:          0  MISS:          0
cpu0_L1I TRANSLATION ACCESS:          0  HIT:          0  MISS:          0
cpu0_L1I PREFETCH  REQUESTED:          0  ISSUED:          0  USEFUL:          0  USELESS:          0
cpu0_L1I AVERAGE MISS LATENCY: 48.8306 cycles
cpu0_STLB TOTAL     ACCESS:    5166388  HIT:    3202582  MISS:    1963806
cpu0_STLB LOAD      ACCESS:    4385675  HIT:    2818872  MISS:    1566803
cpu0_STLB RFO       ACCESS:     780713  HIT:     383710  MISS:     397003
cpu0_STLB PREFETCH  ACCESS:          0  HIT:          0  MISS:          0
cpu0_STLB WRITEBACK ACCESS:          0  HIT:          0  MISS:          0
cpu0_STLB TRANSLATION ACCESS:          0  HIT:          0  MISS:          0
cpu0_STLB PREFETCH  REQUESTED:          0  ISSUED:          0  USEFUL:          0  USELESS:          0
cpu0_STLB AVERAGE MISS LATENCY: 13.3365 cycles
cpu0_L1D TOTAL     ACCESS:  330283545  HIT:  286914376  MISS:   43369169
cpu0_L1D LOAD      ACCESS:  166707657  HIT:  147784699  MISS:   18922958
cpu0_L1D RFO       ACCESS:  161618560  HIT:  137193758  MISS:   24424802
cpu0_L1D PREFETCH  ACCESS:          0  HIT:          0  MISS:          0
cpu0_L1D WRITEBACK ACCESS:          0  HIT:          0  MISS:          0
cpu0_L1D TRANSLATION ACCESS:    1957328  HIT:    1935919  MISS:      21409
cpu0_L1D PREFETCH  REQUESTED:          0  ISSUED:          0  USEFUL:          0  USELESS:          0
cpu0_L1D AVERAGE MISS LATENCY: 190.391 cycles
cpu0_L2C TOTAL     ACCESS:   70637414  HIT:   33865581  MISS:   36771833
cpu0_L2C LOAD      ACCESS:   18945763  HIT:    1444816  MISS:   17500947
cpu0_L2C RFO       ACCESS:   24424801  HIT:    5161906  MISS:   19262895
cpu0_L2C PREFETCH  ACCESS:          0  HIT:          0  MISS:          0
cpu0_L2C WRITEBACK ACCESS:   27245441  HIT:   27242740  MISS:       2701
cpu0_L2C TRANSLATION ACCESS:      21409  HIT:      16119  MISS:       5290
cpu0_L2C PREFETCH  REQUESTED:          0  ISSUED:          0  USEFUL:          0  USELESS:          0
cpu0_L2C AVERAGE MISS LATENCY: 211.586 cycles
LLC TOTAL     ACCESS:   58798582  HIT:   39566688  MISS:   19231894
LLC LOAD      ACCESS:   17500945  HIT:    4807665  MISS:   12693280
LLC RFO       ACCESS:   19262872  HIT:   12728491  MISS:    6534381
LLC PREFETCH  ACCESS:          0  HIT:          0  MISS:          0
LLC WRITEBACK ACCESS:   22029475  HIT:   22026409  MISS:       3066
LLC TRANSLATION ACCESS:       5290  HIT:       4123  MISS:       1167
LLC PREFETCH  REQUESTED:          0  ISSUED:          0  USEFUL:          0  USELESS:          0
LLC AVERAGE MISS LATENCY: 364.408 cycles
~~~~~~~~~~Reuse Distance Profiler output~~~~~~~~~~
0	113896896	14104416
1	27853120	15011904
2	17182464	12848368
3	10624432	6139680
4	8331776	5532512
5	9269280	5166592
6	5919648	3537904
7	5368048	3685424
8	5828848	4262976
9	4066736	3201104
10	3573424	2953808
11	3028880	2364688
12	3225200	2659456
13	2907568	2241344
14	2533184	1982112
15	2434304	2108560
16	2074784	1717552
17	1607904	1317728
18	1913808	1637712
19	1746560	1479488
20	1412064	1186288
21	1400880	1060304
22	1259824	1075040
23	1407136	1148848
24	1150144	924672
25	935360	662240
26	1121360	899328
27	969776	793632
28	937392	772352
29	693648	601152
30	771520	668000
31	904320	794272
32	917392	799664
33	886896	789040
34	922048	776528
35	677232	571968
36	780624	682992
37	712240	560688
38	753408	617728
39	663664	468272
40	814640	524736
41	553056	416432
42	746240	600848
43	714640	566096
44	560256	444464
45	519600	419024
46	778912	665888
47	445680	333984
48	483936	421616
49	445648	360768
50	478112	414240
51	558336	500848
52	405280	355344
53	410144	359984
54	362736	320976
55	405616	331120
56	467264	388848
57	563504	464864
58	644416	570816
59	511888	310608
60	408816	326640
61	404480	301024
62	436048	351664
63	530384	487664
64	790256	671200
66	702624	650688
68	568512	497152
70	537312	449648
72	449664	389792
74	489792	397168
76	453792	336576
78	466672	353728
80	419024	307952
82	422512	331360
84	406192	343104
86	319536	264576
88	320912	255632
90	335968	302144
92	303632	259600
94	290944	248976
96	280496	244288
98	313264	271360
100	303632	250400
102	297248	258208
104	215984	190848
106	237088	214800
108	245872	222640
110	178752	156608
112	255728	234544
114	190320	174256
116	156496	143504
118	181408	160080
120	164448	142720
122	195856	175488
124	219776	200720
126	225040	205312
128	583952	464832
132	526416	422576
136	419952	353664
140	523728	467520
144	452192	402144
148	624560	577536
152	747056	723168
156	752304	713776
160	461104	428032
164	389600	351648
168	370592	337472
172	397328	368672
176	334864	293488
180	302832	218816
184	264464	229328
188	283472	260080
192	341584	328880
196	259200	232576
200	182912	170416
204	193056	182192
208	228240	214624
212	198208	182784
216	188320	174288
220	139856	124240
224	130000	120448
228	128016	120112
232	118736	107568
236	128432	115248
240	152016	135584
244	171200	160896
248	166384	151472
252	178960	152128
256	309104	288016
264	281232	258112
272	204208	179840
280	143536	127552
288	191152	173088
296	181024	164912
304	195120	182432
312	221632	207456
320	150512	138160
328	122000	113776
336	116656	106016
344	111040	102000
352	79648	70288
360	109312	81840
368	97264	90160
376	91056	81200
384	131888	125296
392	131344	125168
400	132816	124384
408	97792	91744
416	98576	90848
424	103792	99296
432	116160	109072
440	94352	87920
448	73504	68688
456	92032	87696
464	116496	103696
472	90608	83168
480	109024	103536
488	146240	142080
496	140272	135552
504	161920	156512
512	205728	196032
528	170160	153600
544	135360	127696
560	116912	111456
576	121088	112512
592	147856	136784
608	147776	143120
624	80320	73520
640	96160	89536
656	95488	90000
672	129344	124752
688	85440	79744
704	79088	74784
720	80512	72048
736	62192	49024
752	54944	43728
768	56480	52064
784	58784	56400
800	67968	65632
816	71360	68096
832	59792	52432
848	61664	58096
864	71168	67328
880	49392	47392
896	55024	51712
912	49824	47424
928	69456	66656
944	85264	83296
960	84592	76048
976	58192	56880
992	45824	43840
1008	40640	38496
1024	89920	86592
1056	104752	101424
1088	80448	78000
1120	77088	73488
1152	71696	68752
1184	83536	79088
1216	160416	157552
1248	83696	77712
1280	72144	61680
1312	87040	85280
1344	79424	76960
1376	37488	35808
1408	33760	31472
1440	45888	43840
1472	49248	47744
1504	35296	32448
1536	36096	34624
1568	24848	23312
1600	24240	21808
1632	57840	57024
1664	28032	25872
1696	21024	19120
1728	19616	18112
1760	20976	19568
1792	24400	22800
1824	25552	24480
1856	20752	18688
1888	20592	18144
1920	19280	17632
1952	18560	17072
1984	16640	15200
2016	16512	14864
2048	38320	36000
2112	42608	38848
2176	42928	37440
2240	41904	38496
2304	40432	36208
2368	34000	30912
2432	36464	27920
2496	37408	35312
2560	49104	47472
2624	27136	25296
2688	22672	21120
2752	22928	21584
2816	20064	19248
2880	26848	25840
2944	32816	30816
3008	26048	23328
3072	27408	26208
3136	31808	30624
3200	24496	22928
3264	26112	23840
3328	24320	22336
3392	22352	19504
3456	27984	26112
3520	19328	17840
3584	29168	27760
3648	27520	22992
3712	17920	15840
3776	12160	11600
3840	15472	12928
3904	12976	12400
3968	15568	15120
4032	14944	14560
4096	28624	27808
4224	36448	35168
4352	33008	32320
4480	25296	24784
4608	19520	19008
4736	18352	17744
4864	22080	21472
4992	30240	30016
5120	44400	43760
5248	43408	42800
5376	22864	22384
5504	25264	24816
5632	24240	24016
5760	21104	20528
5888	18128	17744
6016	15904	15408
6144	13040	12224
6272	23120	22608
6400	11856	11296
6528	12912	12304
6656	8576	8224
6784	18096	17616
6912	9968	9696
7040	16752	16224
7168	17392	15088
7296	31152	21200
7424	21024	18832
7552	16832	16720
7680	8896	8480
7808	10368	9680
7936	13712	13136
8064	20448	19328
8192	15792	14304
8448	15296	14208
8704	9168	8528
8960	66816	7760
9216	182064	6832
9472	195424	5776
9728	506064	7216
9984	129984	5936
10240	196512	6736
10496	482704	9424
10752	373152	16336
11008	7672496	22176
11264	453536	9008
11520	434576	5232
11776	299120	7280
12032	171200	17440
12288	485920	26944
12544	87888	7424
12800	120720	3472
13056	222320	10944
13312	79088	5904
13568	29504	7200
13824	44288	7584
14080	59344	7744
14336	101712	6736
14592	18032	9840
14848	71408	5440
15104	52416	8208
15360	62720	4192
15616	122784	5776
15872	110464	8336
16128	110688	9280
16384	171616	10272
16896	197376	7936
17408	423392	8032
17920	37632	7600
18432	96640	22672
18944	111584	15248
19456	124048	17408
19968	134432	22176
20480	366736	18032
20992	266912	20368
21504	445472	22832
22016	621232	20432
22528	445296	17264
23040	287776	11984
23552	257920	11680
24064	157040	8928
24576	50080	7888
25088	81808	10400
25600	55184	9280
26112	53456	8048
26624	112432	11968
27136	104400	11824
27648	93488	11488
28160	140192	7776
28672	191664	12064
29184	28528	12624
29696	44880	6848
30208	56704	11872
30720	70960	7456
31232	44384	10224
31744	11920	10288
32256	37872	6880
32768	83280	17792
33792	62624	15664
34816	18112	11040
35840	13264	9376
36864	21664	14624
37888	16064	11376
38912	19104	11376
39936	26720	10144
40960	160736	9904
41984	174192	8608
43008	132160	10704
44032	107952	13888
45056	109296	13072
46080	114432	11920
47104	89200	15152
48128	75744	12976
49152	48416	12640
50176	29760	13552
51200	20416	13696
52224	18272	10752
53248	16816	10528
54272	28768	10960
55296	32992	11616
56320	15968	8464
57344	158096	11680
58368	286000	9552
59392	383296	11792
60416	110352	21088
61440	58048	16448
62464	53968	16400
63488	34432	12032
64512	14944	11824
65536	30208	27856
67584	33312	30080
69632	38000	35472
71680	26016	23584
73728	25984	23376
75776	25360	23168
77824	26064	23920
79872	26144	23776
81920	31488	29312
83968	29392	27472
86016	18784	16800
88064	13392	11536
90112	26848	24640
92160	22544	20576
94208	30624	27504
96256	23664	19648
98304	23824	15632
100352	211504	21344
102400	81872	17536
104448	124064	29664
106496	93184	14576
108544	50416	12800
110592	27072	14464
112640	55616	43376
114688	70592	58304
116736	16368	14016
118784	26672	17520
120832	21232	19296
122880	11424	9232
124928	10064	8064
126976	91824	89824
129024	13344	11312
131072	36864	32656
135168	60000	55952
139264	38288	34208
143360	45632	41440
147456	39840	35440
151552	50960	47152
155648	61216	57760
159744	38976	36016
163840	30752	27760
167936	20768	18016
172032	34000	31152
176128	18512	15600
180224	19168	16464
184320	24736	23216
188416	13712	11888
192512	29184	27616
196608	38576	36912
200704	26640	23824
204800	14928	12608
208896	19952	17936
212992	14832	12608
217088	12912	9632
221184	14272	10816
225280	12976	9488
229376	26832	24240
233472	12480	9152
237568	13536	10912
241664	13088	10880
245760	20192	17472
249856	13840	11120
253952	14944	13200
258048	15040	13488
262144	29536	25072
270336	29328	21856
278528	31904	24160
286720	40400	33200
294912	31328	23584
303104	30944	21984
311296	36816	25536
319488	45280	33360
327680	37728	29408
335872	37408	31136
344064	36608	28976
352256	35712	31120
360448	49376	42976
368640	51312	40672
376832	54336	42624
385024	54224	42464
393216	54656	42320
401408	55296	43712
409600	53008	41760
417792	69152	58048
425984	60832	52544
434176	61904	53104
442368	73888	64256
450560	83952	76624
458752	236464	227344
466944	366016	353520
475136	303280	291376
483328	430000	418768
491520	309184	297408
499712	153728	141360
507904	127488	115184
516096	106016	94160
524288	188544	165856
540672	201680	177152
557056	278576	253664
573440	208096	185728
589824	148976	124432
606208	83312	59120
622592	78320	56304
638976	85056	61808
655360	72048	48656
671744	58192	36160
688128	59712	36960
704512	58480	36800
720896	59216	36288
737280	65120	42048
753664	59584	37120
770048	60288	37728
786432	59280	36016
802816	60144	37632
819200	63200	40880
835584	62048	39760
851968	61424	39200
868352	62656	39824
884736	61216	37680
901120	63088	40624
917504	65968	42880
933888	66576	43088
950272	86432	64096
966656	81760	59008
983040	85056	61632
999424	73248	49856
1015808	73152	49600
1032192	74064	50624
1048576	162544	116752
1081344	130656	84880
1114112	126848	80608
1146880	128512	83136
1179648	126000	80224
1212416	126736	81776
1245184	122272	77360
1277952	119872	74864
1310720	119712	74384
1343488	120640	76288
1376256	113856	72192
1409024	126528	83568
1441792	141568	98672
1474560	131024	87328
1507328	117184	73856
1540096	122480	77664
1572864	164448	98032
1605632	197232	88352
1638400	138224	86896
1671168	111824	75232
1703936	110000	74416
1736704	90032	69008
1769472	86512	70560
1802240	90544	71504
1835008	86576	67920
1867776	89664	70528
1900544	90272	70864
1933312	90064	71216
1966080	98768	80240
1998848	96016	77504
2031616	102608	83328
2064384	92432	73248
2097152	180704	142080
2162688	180672	141744
2228224	177696	139712
2293760	183776	146656
2359296	186400	147648
2424832	195840	156992
2490368	193600	156336
2555904	192368	150560
2621440	191648	154576
2686976	191312	152496
2752512	180784	142448
2818048	155104	117792
2883584	136672	99440
2949120	106384	69904
3014656	454816	417424
3080192	225392	209040
3145728	2538464	1991568
3211264	1751488	1373632
3276800	23312	22784
3342336	20032	19520
3407872	18288	17664
3473408	26864	26304
3538944	31600	31040
3604480	30704	30160
3670016	30800	30224
3735552	30144	29680
3801088	29920	25888
3866624	29296	26192
3932160	34560	32144
3997696	35296	34928
4063232	31936	31744
4128768	23200	23056
4194304	46368	46048
4325376	49328	49152
4456448	44128	43888
4587520	49280	48880
4718592	59056	58208
4849664	51456	51152
4980736	45744	45664
5111808	42048	42000
5242880	45104	45088
5373952	32752	32656
5505024	30608	30544
5636096	122256	122192
5767168	96896	96864
5898240	21552	21520
6029312	20368	20336
6160384	20368	20240
6291456	20992	20944
6422528	21568	21520
6553600	25744	25680
6684672	29104	29040
6815744	26528	26464
6946816	29872	29840
7077888	26688	26592
7208960	29920	29840
7340032	30000	29872
7471104	31408	31248
7602176	33904	33888
7733248	25328	25296
7864320	22528	22416
7995392	24624	24592
8126464	23712	23648
8257536	24192	24160
8388608	62048	61904
8650752	68224	68048
8912896	69024	68944
9175040	66064	65920
9437184	59488	59424
9699328	63488	63472
9961472	62368	62288
10223616	37696	37600
10485760	13136	13088
10747904	1680	1600
11010048	3664	3648
11272192	1664	1648
11534336	1168	1120
11796480	1024	944
12058624	1632	1584
12320768	4928	4896
12582912	5168	4864
12845056	9488	9232
13107200	2256	1984
13369344	6384	6032
13631488	5680	5440
13893632	4144	4144
14155776	4576	4512
14417920	2688	2672
14680064	2608	2560
14942208	2368	2352
15204352	2608	2576
15466496	1984	1952
15728640	3392	3360
15990784	2608	2560
16252928	3360	2544
16515072	3968	2848
16777216	8816	6144
17301504	8848	6208
17825792	10208	7776
18350080	8288	5952
18874368	7888	6096
19398656	6112	4336
19922944	4768	3712
20447232	914912	5184
20971520	4784	4736
21495808	13552	13488
22020096	2832	2736
22544384	1664	1616
23068672	2576	2000
23592960	2448	1984
24117248	3056	3040
24641536	2912	2864
25165824	1232	1120
25690112	3328	2880
26214400	2784	2464
26738688	1216	912
27262976	1200	848
27787264	1312	768
28311552	752	432
28835840	976	736
29360128	2784	2416
29884416	1280	992
30408704	816	480
30932992	4160	672
31457280	42752	576
31981568	33744	336
32505856	21568	2880
33030144	1888	1840
33554432	2176	2096
34603008	656	656
35651584	544	496
36700160	3648	3456
37748736	848	848
38797312	28048	17776
39845888	1136	336
40894464	544	528
41943040	688	672
42991616	816	464
44040192	1312	832
45088768	784	784
46137344	400	400
47185920	560	544
48234496	320	320
49283072	32	32
50331648	240	240
51380224	464	464
52428800	240	240
53477376	96	96
54525952	240	240
55574528	64	64
56623104	640	256
57671680	256	256
58720256	288	288
59768832	192	192
60817408	384	384
61865984	272	272
62914560	14576	80
63963136	52656	192
65011712	31536	256
66060288	64	64
67108864	1184	1184
69206016	2448	2448
71303168	352	352
73400320	1072	1056
75497472	432	432
77594624	608	608
79691776	224	224
81788928	256	240
83886080	112	112
85983232	144	144
88080384	272	272
90177536	448	448
92274688	192	192
94371840	176	160
96468992	40304	192
98566144	36480	416
100663296	160	160
102760448	528	528
104857600	144	144
106954752	400	400
109051904	608	608
111149056	144	144
113246208	368	368
115343360	928	880
117440512	224	208
119537664	336	320
121634816	240	224
123731968	240	224
125829120	176	160
127926272	80	64
130023424	3424	272
132120576	7920	48
134217728	96	96
138412032	192	192
142606336	48	48
146800640	48	48
150994944	128	80
155189248	128	96
159383552	48	48
163577856	320	320
167772160	112	112
171966464	48	48
176160768	48	48
180355072	0	0
184549376	0	0
188743680	0	0
192937984	16	16
197132288	0	0
201326592	0	0
205520896	0	0
209715200	0	0
213909504	0	0
218103808	0	0
222298112	0	0
226492416	0	0
230686720	0	0
234881024	0	0
239075328	0	0
243269632	0	0
247463936	0	0
251658240	0	0
255852544	0	0
260046848	0	0
264241152	0	0
268435456	0	0
276824064	0	0
285212672	0	0
293601280	0	0
301989888	0	0
310378496	0	0
318767104	0	0
327155712	0	0
335544320	0	0
343932928	0	0
352321536	0	0
360710144	0	0
369098752	0	0
377487360	0	0
385875968	0	0
394264576	0	0
402653184	0	0
411041792	0	0
419430400	0	0
427819008	0	0
436207616	0	0
444596224	0	0
452984832	0	0
461373440	0	0
469762048	0	0
478150656	0	0
486539264	0	0
494927872	0	0
503316480	0	0
511705088	0	0
520093696	0	0
528482304	0	0
536870912	0	0
553648128	0	0
570425344	0	0
587202560	0	0
603979776	0	0
620756992	0	0
637534208	0	0
654311424	0	0
671088640	0	0
687865856	0	0
704643072	0	0
721420288	0	0
738197504	0	0
754974720	0	0
771751936	0	0
788529152	0	0
805306368	0	0
822083584	0	0
838860800	0	0
855638016	0	0
872415232	0	0
889192448	0	0
905969664	0	0
922746880	0	0
939524096	0	0
956301312	0	0
973078528	0	0
989855744	0	0
1006632960	0	0
1023410176	0	0
1040187392	0	0
1056964608	0	0
1073741824	0	0
1107296256	0	0
1140850688	0	0
1174405120	0	0
1207959552	0	0
1241513984	0	0
1275068416	0	0
1308622848	0	0
1342177280	0	0
1375731712	0	0
1409286144	0	0
1442840576	0	0
1476395008	0	0
1509949440	0	0
1543503872	0	0
1577058304	0	0
1610612736	0	0
1644167168	0	0
1677721600	0	0
1711276032	0	0
1744830464	0	0
1778384896	0	0
1811939328	0	0
1845493760	0	0
1879048192	0	0
1912602624	0	0
1946157056	0	0
1979711488	0	0
2013265920	0	0
2046820352	0	0
2080374784	0	0
2113929216	0	0
2147483648	0	0
2214592512	0	0
2281701376	0	0
2348810240	0	0
2415919104	0	0
2483027968	0	0
2550136832	0	0
2617245696	0	0
2684354560	0	0
2751463424	0	0
2818572288	0	0
2885681152	0	0
2952790016	0	0
3019898880	0	0
3087007744	0	0
3154116608	0	0
3221225472	0	0
3288334336	0	0
3355443200	0	0
3422552064	0	0
3489660928	0	0
3556769792	0	0
3623878656	0	0
3690987520	0	0
3758096384	0	0
3825205248	0	0
3892314112	0	0
3959422976	0	0
4026531840	0	0
4093640704	0	0
4160749568	0	0
4227858432	0	0
~~~~~~~~~~Reuse Distance Profiler output end~~~~~~~~~~

Sampler size:103746

DRAM Statistics
 CHANNEL 0
 RQ ROW_BUFFER_HIT:    3085820  ROW_BUFFER_MISS:   16142440
 DBUS AVG_CONGESTED_CYCLE:    3.96477
 WQ ROW_BUFFER_HIT:    1275158  ROW_BUFFER_MISS:    7653978  FULL:         92


CPU 0 Branch Prediction Accuracy: 91.3773% MPKI: 18.6402 Average ROB Occupancy at Mispredict: 30.4057
Branch type MPKI
BRANCH_DIRECT_JUMP: 0.0003
BRANCH_INDIRECT: 0.177141
BRANCH_CONDITIONAL: 18.4616
BRANCH_DIRECT_CALL: 0.000482
BRANCH_INDIRECT_CALL: 0.000278667
BRANCH_RETURN: 0.000392

