
*** ChampSim Multicore Out-of-Order Simulator ***

Warmup Instructions: 50000000
Simulation Instructions: 1500000000
Number of CPUs: 1
Off-chip DRAM Size: 4 GiB Channels: 1 Width: 64-bit Data Rate: 3200 MT/s

VirtualMemory physical capacity: 8588881920 num_ppages: 2096895
VirtualMemory page size: 4096 log2_page_size: 12

CPU 0 runs /s/traces/champsim_traces/600.perlbench_s-210B.champsimtrace.xz
CPU 0 Bimodal branch predictor
Basic BTB sets: 1024 ways: 8 indirect buffer size: 4096 RAS size: 64
Initializing LRU.
Initializing LRU.
Initializing LRU.
Initializing LRU.
Initializing rdLRU.
Initializing LRU.
Initializing LRU.
Heartbeat CPU 0 instructions: 2000000 cycles: 500227 heartbeat IPC: 3.99818 cumulative IPC: 3.99818 (Simulation time: 0 hr 1 min 17 sec) 
Heartbeat CPU 0 instructions: 4000000 cycles: 1000227 heartbeat IPC: 4 cumulative IPC: 3.99909 (Simulation time: 0 hr 2 min 24 sec) 
Heartbeat CPU 0 instructions: 6000002 cycles: 1511245 heartbeat IPC: 3.91376 cumulative IPC: 3.97024 (Simulation time: 0 hr 3 min 12 sec) 
Heartbeat CPU 0 instructions: 8000002 cycles: 2011438 heartbeat IPC: 3.99846 cumulative IPC: 3.97726 (Simulation time: 0 hr 4 min 17 sec) 
Heartbeat CPU 0 instructions: 10000001 cycles: 2511542 heartbeat IPC: 3.99917 cumulative IPC: 3.98162 (Simulation time: 0 hr 5 min 24 sec) 
Heartbeat CPU 0 instructions: 12000001 cycles: 3011542 heartbeat IPC: 4 cumulative IPC: 3.98467 (Simulation time: 0 hr 6 min 27 sec) 
Heartbeat CPU 0 instructions: 14000001 cycles: 3511542 heartbeat IPC: 4 cumulative IPC: 3.98685 (Simulation time: 0 hr 7 min 32 sec) 
Heartbeat CPU 0 instructions: 16000001 cycles: 4011542 heartbeat IPC: 4 cumulative IPC: 3.98849 (Simulation time: 0 hr 8 min 36 sec) 
Heartbeat CPU 0 instructions: 18000001 cycles: 4511542 heartbeat IPC: 4 cumulative IPC: 3.98977 (Simulation time: 0 hr 9 min 46 sec) 
Heartbeat CPU 0 instructions: 20000001 cycles: 5011542 heartbeat IPC: 4 cumulative IPC: 3.99079 (Simulation time: 0 hr 10 min 53 sec) 
Heartbeat CPU 0 instructions: 22000001 cycles: 5511542 heartbeat IPC: 4 cumulative IPC: 3.99162 (Simulation time: 0 hr 11 min 57 sec) 
Heartbeat CPU 0 instructions: 24000001 cycles: 6011542 heartbeat IPC: 4 cumulative IPC: 3.99232 (Simulation time: 0 hr 13 min 9 sec) 
Heartbeat CPU 0 instructions: 26000001 cycles: 6511542 heartbeat IPC: 4 cumulative IPC: 3.99291 (Simulation time: 0 hr 14 min 20 sec) 
Heartbeat CPU 0 instructions: 28000001 cycles: 7011542 heartbeat IPC: 4 cumulative IPC: 3.99342 (Simulation time: 0 hr 15 min 31 sec) 
Heartbeat CPU 0 instructions: 30000001 cycles: 7511542 heartbeat IPC: 4 cumulative IPC: 3.99385 (Simulation time: 0 hr 16 min 43 sec) 
Heartbeat CPU 0 instructions: 32000002 cycles: 8011622 heartbeat IPC: 3.99936 cumulative IPC: 3.9942 (Simulation time: 0 hr 17 min 55 sec) 
Heartbeat CPU 0 instructions: 34000001 cycles: 8511816 heartbeat IPC: 3.99845 cumulative IPC: 3.99445 (Simulation time: 0 hr 19 min 4 sec) 
Heartbeat CPU 0 instructions: 36000001 cycles: 9012004 heartbeat IPC: 3.9985 cumulative IPC: 3.99467 (Simulation time: 0 hr 20 min 12 sec) 
Heartbeat CPU 0 instructions: 38000001 cycles: 9512004 heartbeat IPC: 4 cumulative IPC: 3.99495 (Simulation time: 0 hr 21 min 23 sec) 
Heartbeat CPU 0 instructions: 40000001 cycles: 10012004 heartbeat IPC: 4 cumulative IPC: 3.9952 (Simulation time: 0 hr 22 min 33 sec) 
Heartbeat CPU 0 instructions: 42000001 cycles: 10512004 heartbeat IPC: 4 cumulative IPC: 3.99543 (Simulation time: 0 hr 23 min 46 sec) 
Heartbeat CPU 0 instructions: 44000001 cycles: 11012004 heartbeat IPC: 4 cumulative IPC: 3.99564 (Simulation time: 0 hr 24 min 55 sec) 
Heartbeat CPU 0 instructions: 46000000 cycles: 11512169 heartbeat IPC: 3.99868 cumulative IPC: 3.99577 (Simulation time: 0 hr 26 min 1 sec) 
Heartbeat CPU 0 instructions: 48000000 cycles: 12012169 heartbeat IPC: 4 cumulative IPC: 3.99595 (Simulation time: 0 hr 27 min 8 sec) 
Heartbeat CPU 0 instructions: 50000003 cycles: 12512590 heartbeat IPC: 3.99664 cumulative IPC: 3.99598 (Simulation time: 0 hr 28 min 13 sec) 

Warmup complete CPU 0 instructions: 50000003 cycles: 12512590 (Simulation time: 0 hr 28 min 13 sec) 

Heartbeat CPU 0 instructions: 52000000 cycles: 13544465 heartbeat IPC: 1.93822 cumulative IPC: 1.93822 (Simulation time: 0 hr 29 min 46 sec) 

Region of Interest Statistics
cpu0_DTLB TOTAL     ACCESS:     348722  HIT:     348115  MISS:        607
cpu0_DTLB LOAD      ACCESS:     198129  HIT:     197579  MISS:        550
cpu0_DTLB RFO       ACCESS:     150593  HIT:     150536  MISS:         57
cpu0_DTLB PREFETCH  ACCESS:          0  HIT:          0  MISS:          0
cpu0_DTLB WRITEBACK ACCESS:          0  HIT:          0  MISS:          0
cpu0_ITLB TOTAL     ACCESS:     172118  HIT:     172117  MISS:          1
cpu0_ITLB LOAD      ACCESS:     172118  HIT:     172117  MISS:          1
cpu0_ITLB RFO       ACCESS:          0  HIT:          0  MISS:          0
cpu0_ITLB PREFETCH  ACCESS:          0  HIT:          0  MISS:          0
cpu0_ITLB WRITEBACK ACCESS:          0  HIT:          0  MISS:          0
cpu0_L1I TOTAL     ACCESS:      51506  HIT:      51486  MISS:         20
cpu0_L1I LOAD      ACCESS:      51506  HIT:      51486  MISS:         20
cpu0_L1I RFO       ACCESS:          0  HIT:          0  MISS:          0
cpu0_L1I PREFETCH  ACCESS:          0  HIT:          0  MISS:          0
cpu0_L1I WRITEBACK ACCESS:          0  HIT:          0  MISS:          0
cpu0_STLB TOTAL     ACCESS:        608  HIT:        590  MISS:         18
cpu0_STLB LOAD      ACCESS:        551  HIT:        534  MISS:         17
cpu0_STLB RFO       ACCESS:         57  HIT:         56  MISS:          1
cpu0_STLB PREFETCH  ACCESS:          0  HIT:          0  MISS:          0
cpu0_STLB WRITEBACK ACCESS:          0  HIT:          0  MISS:          0
cpu0_L1D TOTAL     ACCESS:     623905  HIT:     623696  MISS:        209
cpu0_L1D LOAD      ACCESS:     231500  HIT:     231313  MISS:        187
cpu0_L1D RFO       ACCESS:     392387  HIT:     392366  MISS:         21
cpu0_L1D PREFETCH  ACCESS:          0  HIT:          0  MISS:          0
cpu0_L1D WRITEBACK ACCESS:          0  HIT:          0  MISS:          0
cpu0_L2C TOTAL     ACCESS:        270  HIT:        105  MISS:        165
cpu0_L2C LOAD      ACCESS:        207  HIT:         59  MISS:        148
cpu0_L2C RFO       ACCESS:         21  HIT:          4  MISS:         17
cpu0_L2C PREFETCH  ACCESS:          0  HIT:          0  MISS:          0
cpu0_L2C WRITEBACK ACCESS:         41  HIT:         41  MISS:          0
LLC TOTAL     ACCESS:        166  HIT:          1  MISS:        165
LLC LOAD      ACCESS:        148  HIT:          0  MISS:        148
LLC RFO       ACCESS:         17  HIT:          0  MISS:         17
LLC PREFETCH  ACCESS:          0  HIT:          0  MISS:          0
LLC WRITEBACK ACCESS:          1  HIT:          1  MISS:          0
Heartbeat CPU 0 instructions: 54000002 cycles: 14571535 heartbeat IPC: 1.94729 cumulative IPC: 1.94274 (Simulation time: 0 hr 31 min 23 sec) 

Region of Interest Statistics
cpu0_DTLB TOTAL     ACCESS:     689417  HIT:     688297  MISS:       1120
cpu0_DTLB LOAD      ACCESS:     371396  HIT:     370400  MISS:        996
cpu0_DTLB RFO       ACCESS:     318021  HIT:     317897  MISS:        124
cpu0_DTLB PREFETCH  ACCESS:          0  HIT:          0  MISS:          0
cpu0_DTLB WRITEBACK ACCESS:          0  HIT:          0  MISS:          0
cpu0_ITLB TOTAL     ACCESS:     335846  HIT:     335840  MISS:          6
cpu0_ITLB LOAD      ACCESS:     335846  HIT:     335840  MISS:          6
cpu0_ITLB RFO       ACCESS:          0  HIT:          0  MISS:          0
cpu0_ITLB PREFETCH  ACCESS:          0  HIT:          0  MISS:          0
cpu0_ITLB WRITEBACK ACCESS:          0  HIT:          0  MISS:          0
cpu0_L1I TOTAL     ACCESS:     110112  HIT:     110073  MISS:         39
cpu0_L1I LOAD      ACCESS:     110112  HIT:     110073  MISS:         39
cpu0_L1I RFO       ACCESS:          0  HIT:          0  MISS:          0
cpu0_L1I PREFETCH  ACCESS:          0  HIT:          0  MISS:          0
cpu0_L1I WRITEBACK ACCESS:          0  HIT:          0  MISS:          0
cpu0_STLB TOTAL     ACCESS:       1126  HIT:       1101  MISS:         25
cpu0_STLB LOAD      ACCESS:       1002  HIT:        979  MISS:         23
cpu0_STLB RFO       ACCESS:        124  HIT:        122  MISS:          2
cpu0_STLB PREFETCH  ACCESS:          0  HIT:          0  MISS:          0
cpu0_STLB WRITEBACK ACCESS:          0  HIT:          0  MISS:          0
cpu0_L1D TOTAL     ACCESS:    1272649  HIT:    1272336  MISS:        313
cpu0_L1D LOAD      ACCESS:     456150  HIT:     455868  MISS:        282
cpu0_L1D RFO       ACCESS:     816474  HIT:     816445  MISS:         29
cpu0_L1D PREFETCH  ACCESS:          0  HIT:          0  MISS:          0
cpu0_L1D WRITEBACK ACCESS:          0  HIT:          0  MISS:          0
cpu0_L2C TOTAL     ACCESS:        410  HIT:        164  MISS:        246
cpu0_L2C LOAD      ACCESS:        321  HIT:        100  MISS:        221
cpu0_L2C RFO       ACCESS:         29  HIT:          4  MISS:         25
cpu0_L2C PREFETCH  ACCESS:          0  HIT:          0  MISS:          0
cpu0_L2C WRITEBACK ACCESS:         58  HIT:         58  MISS:          0
LLC TOTAL     ACCESS:        247  HIT:          1  MISS:        246
LLC LOAD      ACCESS:        221  HIT:          0  MISS:        221
LLC RFO       ACCESS:         25  HIT:          0  MISS:         25
LLC PREFETCH  ACCESS:          0  HIT:          0  MISS:          0
LLC WRITEBACK ACCESS:          1  HIT:          1  MISS:          0
Heartbeat CPU 0 instructions: 56000000 cycles: 15709134 heartbeat IPC: 1.75809 cumulative IPC: 1.87703 (Simulation time: 0 hr 32 min 51 sec) 

Region of Interest Statistics
cpu0_DTLB TOTAL     ACCESS:    1049226  HIT:    1042957  MISS:       6269
cpu0_DTLB LOAD      ACCESS:     580904  HIT:     574821  MISS:       6083
cpu0_DTLB RFO       ACCESS:     468322  HIT:     468136  MISS:        186
cpu0_DTLB PREFETCH  ACCESS:          0  HIT:          0  MISS:          0
cpu0_DTLB WRITEBACK ACCESS:          0  HIT:          0  MISS:          0
cpu0_ITLB TOTAL     ACCESS:     535541  HIT:     535526  MISS:         15
cpu0_ITLB LOAD      ACCESS:     535541  HIT:     535526  MISS:         15
cpu0_ITLB RFO       ACCESS:          0  HIT:          0  MISS:          0
cpu0_ITLB PREFETCH  ACCESS:          0  HIT:          0  MISS:          0
cpu0_ITLB WRITEBACK ACCESS:          0  HIT:          0  MISS:          0
cpu0_L1I TOTAL     ACCESS:     144978  HIT:     144819  MISS:        159
cpu0_L1I LOAD      ACCESS:     144978  HIT:     144819  MISS:        159
cpu0_L1I RFO       ACCESS:          0  HIT:          0  MISS:          0
cpu0_L1I PREFETCH  ACCESS:          0  HIT:          0  MISS:          0
cpu0_L1I WRITEBACK ACCESS:          0  HIT:          0  MISS:          0
cpu0_STLB TOTAL     ACCESS:       6284  HIT:       6240  MISS:         44
cpu0_STLB LOAD      ACCESS:       6098  HIT:       6059  MISS:         39
cpu0_STLB RFO       ACCESS:        186  HIT:        181  MISS:          5
cpu0_STLB PREFETCH  ACCESS:          0  HIT:          0  MISS:          0
cpu0_STLB WRITEBACK ACCESS:          0  HIT:          0  MISS:          0
cpu0_L1D TOTAL     ACCESS:    1893399  HIT:    1892737  MISS:        662
cpu0_L1D LOAD      ACCESS:     691636  HIT:     691043  MISS:        593
cpu0_L1D RFO       ACCESS:    1201719  HIT:    1201656  MISS:         63
cpu0_L1D PREFETCH  ACCESS:          0  HIT:          0  MISS:          0
cpu0_L1D WRITEBACK ACCESS:          0  HIT:          0  MISS:          0
cpu0_L2C TOTAL     ACCESS:        936  HIT:        442  MISS:        494
cpu0_L2C LOAD      ACCESS:        752  HIT:        308  MISS:        444
cpu0_L2C RFO       ACCESS:         63  HIT:         13  MISS:         50
cpu0_L2C PREFETCH  ACCESS:          0  HIT:          0  MISS:          0
cpu0_L2C WRITEBACK ACCESS:        115  HIT:        115  MISS:          0
LLC TOTAL     ACCESS:        495  HIT:          2  MISS:        493
LLC LOAD      ACCESS:        444  HIT:          1  MISS:        443
LLC RFO       ACCESS:         50  HIT:          0  MISS:         50
LLC PREFETCH  ACCESS:          0  HIT:          0  MISS:          0
LLC WRITEBACK ACCESS:          1  HIT:          1  MISS:          0
Heartbeat CPU 0 instructions: 58000001 cycles: 16709326 heartbeat IPC: 1.99962 cumulative IPC: 1.90624 (Simulation time: 0 hr 34 min 21 sec) 

Region of Interest Statistics
cpu0_DTLB TOTAL     ACCESS:    1402491  HIT:    1386199  MISS:      16292
cpu0_DTLB LOAD      ACCESS:     772773  HIT:     759378  MISS:      13395
cpu0_DTLB RFO       ACCESS:     629718  HIT:     626821  MISS:       2897
cpu0_DTLB PREFETCH  ACCESS:          0  HIT:          0  MISS:          0
cpu0_DTLB WRITEBACK ACCESS:          0  HIT:          0  MISS:          0
cpu0_ITLB TOTAL     ACCESS:     703964  HIT:     703942  MISS:         22
cpu0_ITLB LOAD      ACCESS:     703964  HIT:     703942  MISS:         22
cpu0_ITLB RFO       ACCESS:          0  HIT:          0  MISS:          0
cpu0_ITLB PREFETCH  ACCESS:          0  HIT:          0  MISS:          0
cpu0_ITLB WRITEBACK ACCESS:          0  HIT:          0  MISS:          0
cpu0_L1I TOTAL     ACCESS:     197910  HIT:     197722  MISS:        188
cpu0_L1I LOAD      ACCESS:     197910  HIT:     197722  MISS:        188
cpu0_L1I RFO       ACCESS:          0  HIT:          0  MISS:          0
cpu0_L1I PREFETCH  ACCESS:          0  HIT:          0  MISS:          0
cpu0_L1I WRITEBACK ACCESS:          0  HIT:          0  MISS:          0
cpu0_STLB TOTAL     ACCESS:      16314  HIT:      16260  MISS:         54
cpu0_STLB LOAD      ACCESS:      13417  HIT:      13370  MISS:         47
cpu0_STLB RFO       ACCESS:       2897  HIT:       2890  MISS:          7
cpu0_STLB PREFETCH  ACCESS:          0  HIT:          0  MISS:          0
cpu0_STLB WRITEBACK ACCESS:          0  HIT:          0  MISS:          0
cpu0_L1D TOTAL     ACCESS:    2547487  HIT:    2546699  MISS:        788
cpu0_L1D LOAD      ACCESS:     926451  HIT:     925741  MISS:        710
cpu0_L1D RFO       ACCESS:    1620983  HIT:    1620911  MISS:         72
cpu0_L1D PREFETCH  ACCESS:          0  HIT:          0  MISS:          0
cpu0_L1D WRITEBACK ACCESS:          0  HIT:          0  MISS:          0
cpu0_L2C TOTAL     ACCESS:       1106  HIT:        528  MISS:        578
cpu0_L2C LOAD      ACCESS:        898  HIT:        379  MISS:        519
cpu0_L2C RFO       ACCESS:         72  HIT:         13  MISS:         59
cpu0_L2C PREFETCH  ACCESS:          0  HIT:          0  MISS:          0
cpu0_L2C WRITEBACK ACCESS:        130  HIT:        130  MISS:          0
LLC TOTAL     ACCESS:        579  HIT:          2  MISS:        577
LLC LOAD      ACCESS:        519  HIT:          1  MISS:        518
LLC RFO       ACCESS:         59  HIT:          0  MISS:         59
LLC PREFETCH  ACCESS:          0  HIT:          0  MISS:          0
LLC WRITEBACK ACCESS:          1  HIT:          1  MISS:          0
Heartbeat CPU 0 instructions: 60000004 cycles: 17734675 heartbeat IPC: 1.95056 cumulative IPC: 1.91494 (Simulation time: 0 hr 35 min 38 sec) 

Region of Interest Statistics
cpu0_DTLB TOTAL     ACCESS:    1791242  HIT:    1771584  MISS:      19658
cpu0_DTLB LOAD      ACCESS:     989678  HIT:     973945  MISS:      15733
cpu0_DTLB RFO       ACCESS:     801564  HIT:     797639  MISS:       3925
cpu0_DTLB PREFETCH  ACCESS:          0  HIT:          0  MISS:          0
cpu0_DTLB WRITEBACK ACCESS:          0  HIT:          0  MISS:          0
cpu0_ITLB TOTAL     ACCESS:     834295  HIT:     834268  MISS:         27
cpu0_ITLB LOAD      ACCESS:     834295  HIT:     834268  MISS:         27
cpu0_ITLB RFO       ACCESS:          0  HIT:          0  MISS:          0
cpu0_ITLB PREFETCH  ACCESS:          0  HIT:          0  MISS:          0
cpu0_ITLB WRITEBACK ACCESS:          0  HIT:          0  MISS:          0
cpu0_L1I TOTAL     ACCESS:     306443  HIT:     306218  MISS:        225
cpu0_L1I LOAD      ACCESS:     306443  HIT:     306218  MISS:        225
cpu0_L1I RFO       ACCESS:          0  HIT:          0  MISS:          0
cpu0_L1I PREFETCH  ACCESS:          0  HIT:          0  MISS:          0
cpu0_L1I WRITEBACK ACCESS:          0  HIT:          0  MISS:          0
cpu0_STLB TOTAL     ACCESS:      19685  HIT:      19622  MISS:         63
cpu0_STLB LOAD      ACCESS:      15760  HIT:      15706  MISS:         54
cpu0_STLB RFO       ACCESS:       3925  HIT:       3916  MISS:          9
cpu0_STLB PREFETCH  ACCESS:          0  HIT:          0  MISS:          0
cpu0_STLB WRITEBACK ACCESS:          0  HIT:          0  MISS:          0
cpu0_L1D TOTAL     ACCESS:    3273684  HIT:    3272783  MISS:        901
cpu0_L1D LOAD      ACCESS:    1189880  HIT:    1189069  MISS:        811
cpu0_L1D RFO       ACCESS:    2083742  HIT:    2083659  MISS:         83
cpu0_L1D PREFETCH  ACCESS:          0  HIT:          0  MISS:          0
cpu0_L1D WRITEBACK ACCESS:          0  HIT:          0  MISS:          0
cpu0_L2C TOTAL     ACCESS:       1272  HIT:        603  MISS:        669
cpu0_L2C LOAD      ACCESS:       1035  HIT:        435  MISS:        600
cpu0_L2C RFO       ACCESS:         83  HIT:         15  MISS:         68
cpu0_L2C PREFETCH  ACCESS:          0  HIT:          0  MISS:          0
cpu0_L2C WRITEBACK ACCESS:        147  HIT:        147  MISS:          0
LLC TOTAL     ACCESS:        670  HIT:          4  MISS:        666
LLC LOAD      ACCESS:        600  HIT:          2  MISS:        598
LLC RFO       ACCESS:         68  HIT:          0  MISS:         68
LLC PREFETCH  ACCESS:          0  HIT:          0  MISS:          0
LLC WRITEBACK ACCESS:          1  HIT:          1  MISS:          0
Heartbeat CPU 0 instructions: 62000000 cycles: 18745604 heartbeat IPC: 1.97837 cumulative IPC: 1.92523 (Simulation time: 0 hr 36 min 40 sec) 

Region of Interest Statistics
cpu0_DTLB TOTAL     ACCESS:    2194622  HIT:    2174959  MISS:      19663
cpu0_DTLB LOAD      ACCESS:    1217085  HIT:    1201347  MISS:      15738
cpu0_DTLB RFO       ACCESS:     977537  HIT:     973612  MISS:       3925
cpu0_DTLB PREFETCH  ACCESS:          0  HIT:          0  MISS:          0
cpu0_DTLB WRITEBACK ACCESS:          0  HIT:          0  MISS:          0
cpu0_ITLB TOTAL     ACCESS:     942245  HIT:     942218  MISS:         27
cpu0_ITLB LOAD      ACCESS:     942245  HIT:     942218  MISS:         27
cpu0_ITLB RFO       ACCESS:          0  HIT:          0  MISS:          0
cpu0_ITLB PREFETCH  ACCESS:          0  HIT:          0  MISS:          0
cpu0_ITLB WRITEBACK ACCESS:          0  HIT:          0  MISS:          0
cpu0_L1I TOTAL     ACCESS:     444033  HIT:     443808  MISS:        225
cpu0_L1I LOAD      ACCESS:     444033  HIT:     443808  MISS:        225
cpu0_L1I RFO       ACCESS:          0  HIT:          0  MISS:          0
cpu0_L1I PREFETCH  ACCESS:          0  HIT:          0  MISS:          0
cpu0_L1I WRITEBACK ACCESS:          0  HIT:          0  MISS:          0
cpu0_STLB TOTAL     ACCESS:      19690  HIT:      19627  MISS:         63
cpu0_STLB LOAD      ACCESS:      15765  HIT:      15711  MISS:         54
cpu0_STLB RFO       ACCESS:       3925  HIT:       3916  MISS:          9
cpu0_STLB PREFETCH  ACCESS:          0  HIT:          0  MISS:          0
cpu0_STLB WRITEBACK ACCESS:          0  HIT:          0  MISS:          0
cpu0_L1D TOTAL     ACCESS:    4030711  HIT:    4029805  MISS:        906
cpu0_L1D LOAD      ACCESS:    1466228  HIT:    1465412  MISS:        816
cpu0_L1D RFO       ACCESS:    2564421  HIT:    2564338  MISS:         83
cpu0_L1D PREFETCH  ACCESS:          0  HIT:          0  MISS:          0
cpu0_L1D WRITEBACK ACCESS:          0  HIT:          0  MISS:          0
cpu0_L2C TOTAL     ACCESS:       1277  HIT:        608  MISS:        669
cpu0_L2C LOAD      ACCESS:       1040  HIT:        440  MISS:        600
cpu0_L2C RFO       ACCESS:         83  HIT:         15  MISS:         68
cpu0_L2C PREFETCH  ACCESS:          0  HIT:          0  MISS:          0
cpu0_L2C WRITEBACK ACCESS:        147  HIT:        147  MISS:          0
LLC TOTAL     ACCESS:        670  HIT:          4  MISS:        666
LLC LOAD      ACCESS:        600  HIT:          2  MISS:        598
LLC RFO       ACCESS:         68  HIT:          0  MISS:         68
LLC PREFETCH  ACCESS:          0  HIT:          0  MISS:          0
LLC WRITEBACK ACCESS:          1  HIT:          1  MISS:          0
Heartbeat CPU 0 instructions: 64000004 cycles: 19757849 heartbeat IPC: 1.97581 cumulative IPC: 1.9323 (Simulation time: 0 hr 37 min 32 sec) 

Region of Interest Statistics
cpu0_DTLB TOTAL     ACCESS:    2598078  HIT:    2578401  MISS:      19677
cpu0_DTLB LOAD      ACCESS:    1444509  HIT:    1428759  MISS:      15750
cpu0_DTLB RFO       ACCESS:    1153569  HIT:    1149642  MISS:       3927
cpu0_DTLB PREFETCH  ACCESS:          0  HIT:          0  MISS:          0
cpu0_DTLB WRITEBACK ACCESS:          0  HIT:          0  MISS:          0
cpu0_ITLB TOTAL     ACCESS:    1050232  HIT:    1050205  MISS:         27
cpu0_ITLB LOAD      ACCESS:    1050232  HIT:    1050205  MISS:         27
cpu0_ITLB RFO       ACCESS:          0  HIT:          0  MISS:          0
cpu0_ITLB PREFETCH  ACCESS:          0  HIT:          0  MISS:          0
cpu0_ITLB WRITEBACK ACCESS:          0  HIT:          0  MISS:          0
cpu0_L1I TOTAL     ACCESS:     581713  HIT:     581488  MISS:        225
cpu0_L1I LOAD      ACCESS:     581713  HIT:     581488  MISS:        225
cpu0_L1I RFO       ACCESS:          0  HIT:          0  MISS:          0
cpu0_L1I PREFETCH  ACCESS:          0  HIT:          0  MISS:          0
cpu0_L1I WRITEBACK ACCESS:          0  HIT:          0  MISS:          0
cpu0_STLB TOTAL     ACCESS:      19704  HIT:      19641  MISS:         63
cpu0_STLB LOAD      ACCESS:      15777  HIT:      15723  MISS:         54
cpu0_STLB RFO       ACCESS:       3927  HIT:       3918  MISS:          9
cpu0_STLB PREFETCH  ACCESS:          0  HIT:          0  MISS:          0
cpu0_STLB WRITEBACK ACCESS:          0  HIT:          0  MISS:          0
cpu0_L1D TOTAL     ACCESS:    4787680  HIT:    4786765  MISS:        915
cpu0_L1D LOAD      ACCESS:    1742604  HIT:    1741779  MISS:        825
cpu0_L1D RFO       ACCESS:    3045014  HIT:    3044931  MISS:         83
cpu0_L1D PREFETCH  ACCESS:          0  HIT:          0  MISS:          0
cpu0_L1D WRITEBACK ACCESS:          0  HIT:          0  MISS:          0
cpu0_L2C TOTAL     ACCESS:       1286  HIT:        617  MISS:        669
cpu0_L2C LOAD      ACCESS:       1049  HIT:        449  MISS:        600
cpu0_L2C RFO       ACCESS:         83  HIT:         15  MISS:         68
cpu0_L2C PREFETCH  ACCESS:          0  HIT:          0  MISS:          0
cpu0_L2C WRITEBACK ACCESS:        147  HIT:        147  MISS:          0
LLC TOTAL     ACCESS:        670  HIT:          4  MISS:        666
LLC LOAD      ACCESS:        600  HIT:          2  MISS:        598
LLC RFO       ACCESS:         68  HIT:          0  MISS:         68
LLC PREFETCH  ACCESS:          0  HIT:          0  MISS:          0
LLC WRITEBACK ACCESS:          1  HIT:          1  MISS:          0
Heartbeat CPU 0 instructions: 66000004 cycles: 20769703 heartbeat IPC: 1.97657 cumulative IPC: 1.93772 (Simulation time: 0 hr 38 min 41 sec) 

Region of Interest Statistics
cpu0_DTLB TOTAL     ACCESS:    3001238  HIT:    2981551  MISS:      19687
cpu0_DTLB LOAD      ACCESS:    1671607  HIT:    1655847  MISS:      15760
cpu0_DTLB RFO       ACCESS:    1329631  HIT:    1325704  MISS:       3927
cpu0_DTLB PREFETCH  ACCESS:          0  HIT:          0  MISS:          0
cpu0_DTLB WRITEBACK ACCESS:          0  HIT:          0  MISS:          0
cpu0_ITLB TOTAL     ACCESS:    1158199  HIT:    1158172  MISS:         27
cpu0_ITLB LOAD      ACCESS:    1158199  HIT:    1158172  MISS:         27
cpu0_ITLB RFO       ACCESS:          0  HIT:          0  MISS:          0
cpu0_ITLB PREFETCH  ACCESS:          0  HIT:          0  MISS:          0
cpu0_ITLB WRITEBACK ACCESS:          0  HIT:          0  MISS:          0
cpu0_L1I TOTAL     ACCESS:     719461  HIT:     719236  MISS:        225
cpu0_L1I LOAD      ACCESS:     719461  HIT:     719236  MISS:        225
cpu0_L1I RFO       ACCESS:          0  HIT:          0  MISS:          0
cpu0_L1I PREFETCH  ACCESS:          0  HIT:          0  MISS:          0
cpu0_L1I WRITEBACK ACCESS:          0  HIT:          0  MISS:          0
cpu0_STLB TOTAL     ACCESS:      19714  HIT:      19651  MISS:         63
cpu0_STLB LOAD      ACCESS:      15787  HIT:      15733  MISS:         54
cpu0_STLB RFO       ACCESS:       3927  HIT:       3918  MISS:          9
cpu0_STLB PREFETCH  ACCESS:          0  HIT:          0  MISS:          0
cpu0_STLB WRITEBACK ACCESS:          0  HIT:          0  MISS:          0
cpu0_L1D TOTAL     ACCESS:    5544110  HIT:    5543191  MISS:        919
cpu0_L1D LOAD      ACCESS:    2018323  HIT:    2017494  MISS:        829
cpu0_L1D RFO       ACCESS:    3525725  HIT:    3525642  MISS:         83
cpu0_L1D PREFETCH  ACCESS:          0  HIT:          0  MISS:          0
cpu0_L1D WRITEBACK ACCESS:          0  HIT:          0  MISS:          0
cpu0_L2C TOTAL     ACCESS:       1290  HIT:        621  MISS:        669
cpu0_L2C LOAD      ACCESS:       1053  HIT:        453  MISS:        600
cpu0_L2C RFO       ACCESS:         83  HIT:         15  MISS:         68
cpu0_L2C PREFETCH  ACCESS:          0  HIT:          0  MISS:          0
cpu0_L2C WRITEBACK ACCESS:        147  HIT:        147  MISS:          0
LLC TOTAL     ACCESS:        670  HIT:          4  MISS:        666
LLC LOAD      ACCESS:        600  HIT:          2  MISS:        598
LLC RFO       ACCESS:         68  HIT:          0  MISS:         68
LLC PREFETCH  ACCESS:          0  HIT:          0  MISS:          0
LLC WRITEBACK ACCESS:          1  HIT:          1  MISS:          0
Heartbeat CPU 0 instructions: 68000004 cycles: 21782738 heartbeat IPC: 1.97427 cumulative IPC: 1.94172 (Simulation time: 0 hr 39 min 48 sec) 

Region of Interest Statistics
cpu0_DTLB TOTAL     ACCESS:    3404874  HIT:    3385171  MISS:      19703
cpu0_DTLB LOAD      ACCESS:    1899262  HIT:    1883486  MISS:      15776
cpu0_DTLB RFO       ACCESS:    1505612  HIT:    1501685  MISS:       3927
cpu0_DTLB PREFETCH  ACCESS:          0  HIT:          0  MISS:          0
cpu0_DTLB WRITEBACK ACCESS:          0  HIT:          0  MISS:          0
cpu0_ITLB TOTAL     ACCESS:    1266244  HIT:    1266217  MISS:         27
cpu0_ITLB LOAD      ACCESS:    1266244  HIT:    1266217  MISS:         27
cpu0_ITLB RFO       ACCESS:          0  HIT:          0  MISS:          0
cpu0_ITLB PREFETCH  ACCESS:          0  HIT:          0  MISS:          0
cpu0_ITLB WRITEBACK ACCESS:          0  HIT:          0  MISS:          0
cpu0_L1I TOTAL     ACCESS:     857126  HIT:     856901  MISS:        225
cpu0_L1I LOAD      ACCESS:     857126  HIT:     856901  MISS:        225
cpu0_L1I RFO       ACCESS:          0  HIT:          0  MISS:          0
cpu0_L1I PREFETCH  ACCESS:          0  HIT:          0  MISS:          0
cpu0_L1I WRITEBACK ACCESS:          0  HIT:          0  MISS:          0
cpu0_STLB TOTAL     ACCESS:      19730  HIT:      19667  MISS:         63
cpu0_STLB LOAD      ACCESS:      15803  HIT:      15749  MISS:         54
cpu0_STLB RFO       ACCESS:       3927  HIT:       3918  MISS:          9
cpu0_STLB PREFETCH  ACCESS:          0  HIT:          0  MISS:          0
cpu0_STLB WRITEBACK ACCESS:          0  HIT:          0  MISS:          0
cpu0_L1D TOTAL     ACCESS:    6301294  HIT:    6300370  MISS:        924
cpu0_L1D LOAD      ACCESS:    2295015  HIT:    2294181  MISS:        834
cpu0_L1D RFO       ACCESS:    4006217  HIT:    4006134  MISS:         83
cpu0_L1D PREFETCH  ACCESS:          0  HIT:          0  MISS:          0
cpu0_L1D WRITEBACK ACCESS:          0  HIT:          0  MISS:          0
cpu0_L2C TOTAL     ACCESS:       1295  HIT:        626  MISS:        669
cpu0_L2C LOAD      ACCESS:       1058  HIT:        458  MISS:        600
cpu0_L2C RFO       ACCESS:         83  HIT:         15  MISS:         68
cpu0_L2C PREFETCH  ACCESS:          0  HIT:          0  MISS:          0
cpu0_L2C WRITEBACK ACCESS:        147  HIT:        147  MISS:          0
LLC TOTAL     ACCESS:        670  HIT:          4  MISS:        666
LLC LOAD      ACCESS:        600  HIT:          2  MISS:        598
LLC RFO       ACCESS:         68  HIT:          0  MISS:         68
LLC PREFETCH  ACCESS:          0  HIT:          0  MISS:          0
LLC WRITEBACK ACCESS:          1  HIT:          1  MISS:          0
Heartbeat CPU 0 instructions: 70000003 cycles: 22795734 heartbeat IPC: 1.97434 cumulative IPC: 1.94493 (Simulation time: 0 hr 40 min 54 sec) 

Region of Interest Statistics
cpu0_DTLB TOTAL     ACCESS:    3808370  HIT:    3788656  MISS:      19714
cpu0_DTLB LOAD      ACCESS:    2126770  HIT:    2110983  MISS:      15787
cpu0_DTLB RFO       ACCESS:    1681600  HIT:    1677673  MISS:       3927
cpu0_DTLB PREFETCH  ACCESS:          0  HIT:          0  MISS:          0
cpu0_DTLB WRITEBACK ACCESS:          0  HIT:          0  MISS:          0
cpu0_ITLB TOTAL     ACCESS:    1374255  HIT:    1374228  MISS:         27
cpu0_ITLB LOAD      ACCESS:    1374255  HIT:    1374228  MISS:         27
cpu0_ITLB RFO       ACCESS:          0  HIT:          0  MISS:          0
cpu0_ITLB PREFETCH  ACCESS:          0  HIT:          0  MISS:          0
cpu0_ITLB WRITEBACK ACCESS:          0  HIT:          0  MISS:          0
cpu0_L1I TOTAL     ACCESS:     994857  HIT:     994632  MISS:        225
cpu0_L1I LOAD      ACCESS:     994857  HIT:     994632  MISS:        225
cpu0_L1I RFO       ACCESS:          0  HIT:          0  MISS:          0
cpu0_L1I PREFETCH  ACCESS:          0  HIT:          0  MISS:          0
cpu0_L1I WRITEBACK ACCESS:          0  HIT:          0  MISS:          0
cpu0_STLB TOTAL     ACCESS:      19741  HIT:      19678  MISS:         63
cpu0_STLB LOAD      ACCESS:      15814  HIT:      15760  MISS:         54
cpu0_STLB RFO       ACCESS:       3927  HIT:       3918  MISS:          9
cpu0_STLB PREFETCH  ACCESS:          0  HIT:          0  MISS:          0
cpu0_STLB WRITEBACK ACCESS:          0  HIT:          0  MISS:          0
cpu0_L1D TOTAL     ACCESS:    7058289  HIT:    7057362  MISS:        927
cpu0_L1D LOAD      ACCESS:    2571444  HIT:    2570607  MISS:        837
cpu0_L1D RFO       ACCESS:    4486783  HIT:    4486700  MISS:         83
cpu0_L1D PREFETCH  ACCESS:          0  HIT:          0  MISS:          0
cpu0_L1D WRITEBACK ACCESS:          0  HIT:          0  MISS:          0
cpu0_L2C TOTAL     ACCESS:       1298  HIT:        629  MISS:        669
cpu0_L2C LOAD      ACCESS:       1061  HIT:        461  MISS:        600
cpu0_L2C RFO       ACCESS:         83  HIT:         15  MISS:         68
cpu0_L2C PREFETCH  ACCESS:          0  HIT:          0  MISS:          0
cpu0_L2C WRITEBACK ACCESS:        147  HIT:        147  MISS:          0
LLC TOTAL     ACCESS:        670  HIT:          4  MISS:        666
LLC LOAD      ACCESS:        600  HIT:          2  MISS:        598
LLC RFO       ACCESS:         68  HIT:          0  MISS:         68
LLC PREFETCH  ACCESS:          0  HIT:          0  MISS:          0
LLC WRITEBACK ACCESS:          1  HIT:          1  MISS:          0
Heartbeat CPU 0 instructions: 72000003 cycles: 23804718 heartbeat IPC: 1.98219 cumulative IPC: 1.94826 (Simulation time: 0 hr 42 min 3 sec) 

Region of Interest Statistics
cpu0_DTLB TOTAL     ACCESS:    4210829  HIT:    4191104  MISS:      19725
cpu0_DTLB LOAD      ACCESS:    2352957  HIT:    2337159  MISS:      15798
cpu0_DTLB RFO       ACCESS:    1857872  HIT:    1853945  MISS:       3927
cpu0_DTLB PREFETCH  ACCESS:          0  HIT:          0  MISS:          0
cpu0_DTLB WRITEBACK ACCESS:          0  HIT:          0  MISS:          0
cpu0_ITLB TOTAL     ACCESS:    1482039  HIT:    1482012  MISS:         27
cpu0_ITLB LOAD      ACCESS:    1482039  HIT:    1482012  MISS:         27
cpu0_ITLB RFO       ACCESS:          0  HIT:          0  MISS:          0
cpu0_ITLB PREFETCH  ACCESS:          0  HIT:          0  MISS:          0
cpu0_ITLB WRITEBACK ACCESS:          0  HIT:          0  MISS:          0
cpu0_L1I TOTAL     ACCESS:    1132742  HIT:    1132517  MISS:        225
cpu0_L1I LOAD      ACCESS:    1132742  HIT:    1132517  MISS:        225
cpu0_L1I RFO       ACCESS:          0  HIT:          0  MISS:          0
cpu0_L1I PREFETCH  ACCESS:          0  HIT:          0  MISS:          0
cpu0_L1I WRITEBACK ACCESS:          0  HIT:          0  MISS:          0
cpu0_STLB TOTAL     ACCESS:      19752  HIT:      19689  MISS:         63
cpu0_STLB LOAD      ACCESS:      15825  HIT:      15771  MISS:         54
cpu0_STLB RFO       ACCESS:       3927  HIT:       3918  MISS:          9
cpu0_STLB PREFETCH  ACCESS:          0  HIT:          0  MISS:          0
cpu0_STLB WRITEBACK ACCESS:          0  HIT:          0  MISS:          0
cpu0_L1D TOTAL     ACCESS:    7813579  HIT:    7812649  MISS:        930
cpu0_L1D LOAD      ACCESS:    2845621  HIT:    2844781  MISS:        840
cpu0_L1D RFO       ACCESS:    4967896  HIT:    4967813  MISS:         83
cpu0_L1D PREFETCH  ACCESS:          0  HIT:          0  MISS:          0
cpu0_L1D WRITEBACK ACCESS:          0  HIT:          0  MISS:          0
cpu0_L2C TOTAL     ACCESS:       1301  HIT:        632  MISS:        669
cpu0_L2C LOAD      ACCESS:       1064  HIT:        464  MISS:        600
cpu0_L2C RFO       ACCESS:         83  HIT:         15  MISS:         68
cpu0_L2C PREFETCH  ACCESS:          0  HIT:          0  MISS:          0
cpu0_L2C WRITEBACK ACCESS:        147  HIT:        147  MISS:          0
LLC TOTAL     ACCESS:        670  HIT:          4  MISS:        666
LLC LOAD      ACCESS:        600  HIT:          2  MISS:        598
LLC RFO       ACCESS:         68  HIT:          0  MISS:         68
LLC PREFETCH  ACCESS:          0  HIT:          0  MISS:          0
LLC WRITEBACK ACCESS:          1  HIT:          1  MISS:          0
Heartbeat CPU 0 instructions: 74000004 cycles: 24810650 heartbeat IPC: 1.98821 cumulative IPC: 1.95153 (Simulation time: 0 hr 43 min 14 sec) 

Region of Interest Statistics
cpu0_DTLB TOTAL     ACCESS:    4612765  HIT:    4593028  MISS:      19737
cpu0_DTLB LOAD      ACCESS:    2578519  HIT:    2562709  MISS:      15810
cpu0_DTLB RFO       ACCESS:    2034246  HIT:    2030319  MISS:       3927
cpu0_DTLB PREFETCH  ACCESS:          0  HIT:          0  MISS:          0
cpu0_DTLB WRITEBACK ACCESS:          0  HIT:          0  MISS:          0
cpu0_ITLB TOTAL     ACCESS:    1589645  HIT:    1589618  MISS:         27
cpu0_ITLB LOAD      ACCESS:    1589645  HIT:    1589618  MISS:         27
cpu0_ITLB RFO       ACCESS:          0  HIT:          0  MISS:          0
cpu0_ITLB PREFETCH  ACCESS:          0  HIT:          0  MISS:          0
cpu0_ITLB WRITEBACK ACCESS:          0  HIT:          0  MISS:          0
cpu0_L1I TOTAL     ACCESS:    1270655  HIT:    1270430  MISS:        225
cpu0_L1I LOAD      ACCESS:    1270655  HIT:    1270430  MISS:        225
cpu0_L1I RFO       ACCESS:          0  HIT:          0  MISS:          0
cpu0_L1I PREFETCH  ACCESS:          0  HIT:          0  MISS:          0
cpu0_L1I WRITEBACK ACCESS:          0  HIT:          0  MISS:          0
cpu0_STLB TOTAL     ACCESS:      19764  HIT:      19701  MISS:         63
cpu0_STLB LOAD      ACCESS:      15837  HIT:      15783  MISS:         54
cpu0_STLB RFO       ACCESS:       3927  HIT:       3918  MISS:          9
cpu0_STLB PREFETCH  ACCESS:          0  HIT:          0  MISS:          0
cpu0_STLB WRITEBACK ACCESS:          0  HIT:          0  MISS:          0
cpu0_L1D TOTAL     ACCESS:    8568184  HIT:    8567246  MISS:        938
cpu0_L1D LOAD      ACCESS:    3118734  HIT:    3117886  MISS:        848
cpu0_L1D RFO       ACCESS:    5449388  HIT:    5449305  MISS:         83
cpu0_L1D PREFETCH  ACCESS:          0  HIT:          0  MISS:          0
cpu0_L1D WRITEBACK ACCESS:          0  HIT:          0  MISS:          0
cpu0_L2C TOTAL     ACCESS:       1309  HIT:        640  MISS:        669
cpu0_L2C LOAD      ACCESS:       1072  HIT:        472  MISS:        600
cpu0_L2C RFO       ACCESS:         83  HIT:         15  MISS:         68
cpu0_L2C PREFETCH  ACCESS:          0  HIT:          0  MISS:          0
cpu0_L2C WRITEBACK ACCESS:        147  HIT:        147  MISS:          0
LLC TOTAL     ACCESS:        670  HIT:          4  MISS:        666
LLC LOAD      ACCESS:        600  HIT:          2  MISS:        598
LLC RFO       ACCESS:         68  HIT:          0  MISS:         68
LLC PREFETCH  ACCESS:          0  HIT:          0  MISS:          0
LLC WRITEBACK ACCESS:          1  HIT:          1  MISS:          0
Heartbeat CPU 0 instructions: 76000003 cycles: 25815183 heartbeat IPC: 1.99097 cumulative IPC: 1.95451 (Simulation time: 0 hr 44 min 23 sec) 

Region of Interest Statistics
cpu0_DTLB TOTAL     ACCESS:    5014485  HIT:    4994743  MISS:      19742
cpu0_DTLB LOAD      ACCESS:    2803870  HIT:    2788055  MISS:      15815
cpu0_DTLB RFO       ACCESS:    2210615  HIT:    2206688  MISS:       3927
cpu0_DTLB PREFETCH  ACCESS:          0  HIT:          0  MISS:          0
cpu0_DTLB WRITEBACK ACCESS:          0  HIT:          0  MISS:          0
cpu0_ITLB TOTAL     ACCESS:    1697183  HIT:    1697156  MISS:         27
cpu0_ITLB LOAD      ACCESS:    1697183  HIT:    1697156  MISS:         27
cpu0_ITLB RFO       ACCESS:          0  HIT:          0  MISS:          0
cpu0_ITLB PREFETCH  ACCESS:          0  HIT:          0  MISS:          0
cpu0_ITLB WRITEBACK ACCESS:          0  HIT:          0  MISS:          0
cpu0_L1I TOTAL     ACCESS:    1408457  HIT:    1408232  MISS:        225
cpu0_L1I LOAD      ACCESS:    1408457  HIT:    1408232  MISS:        225
cpu0_L1I RFO       ACCESS:          0  HIT:          0  MISS:          0
cpu0_L1I PREFETCH  ACCESS:          0  HIT:          0  MISS:          0
cpu0_L1I WRITEBACK ACCESS:          0  HIT:          0  MISS:          0
cpu0_STLB TOTAL     ACCESS:      19769  HIT:      19706  MISS:         63
cpu0_STLB LOAD      ACCESS:      15842  HIT:      15788  MISS:         54
cpu0_STLB RFO       ACCESS:       3927  HIT:       3918  MISS:          9
cpu0_STLB PREFETCH  ACCESS:          0  HIT:          0  MISS:          0
cpu0_STLB WRITEBACK ACCESS:          0  HIT:          0  MISS:          0
cpu0_L1D TOTAL     ACCESS:    9322629  HIT:    9321690  MISS:        939
cpu0_L1D LOAD      ACCESS:    3391572  HIT:    3390723  MISS:        849
cpu0_L1D RFO       ACCESS:    5930995  HIT:    5930912  MISS:         83
cpu0_L1D PREFETCH  ACCESS:          0  HIT:          0  MISS:          0
cpu0_L1D WRITEBACK ACCESS:          0  HIT:          0  MISS:          0
cpu0_L2C TOTAL     ACCESS:       1310  HIT:        641  MISS:        669
cpu0_L2C LOAD      ACCESS:       1073  HIT:        473  MISS:        600
cpu0_L2C RFO       ACCESS:         83  HIT:         15  MISS:         68
cpu0_L2C PREFETCH  ACCESS:          0  HIT:          0  MISS:          0
cpu0_L2C WRITEBACK ACCESS:        147  HIT:        147  MISS:          0
LLC TOTAL     ACCESS:        670  HIT:          4  MISS:        666
LLC LOAD      ACCESS:        600  HIT:          2  MISS:        598
LLC RFO       ACCESS:         68  HIT:          0  MISS:         68
LLC PREFETCH  ACCESS:          0  HIT:          0  MISS:          0
LLC WRITEBACK ACCESS:          1  HIT:          1  MISS:          0
Heartbeat CPU 0 instructions: 78000002 cycles: 26821193 heartbeat IPC: 1.98805 cumulative IPC: 1.95686 (Simulation time: 0 hr 45 min 32 sec) 

Region of Interest Statistics
cpu0_DTLB TOTAL     ACCESS:    5416343  HIT:    5396594  MISS:      19749
cpu0_DTLB LOAD      ACCESS:    3029345  HIT:    3013523  MISS:      15822
cpu0_DTLB RFO       ACCESS:    2386998  HIT:    2383071  MISS:       3927
cpu0_DTLB PREFETCH  ACCESS:          0  HIT:          0  MISS:          0
cpu0_DTLB WRITEBACK ACCESS:          0  HIT:          0  MISS:          0
cpu0_ITLB TOTAL     ACCESS:    1804739  HIT:    1804712  MISS:         27
cpu0_ITLB LOAD      ACCESS:    1804739  HIT:    1804712  MISS:         27
cpu0_ITLB RFO       ACCESS:          0  HIT:          0  MISS:          0
cpu0_ITLB PREFETCH  ACCESS:          0  HIT:          0  MISS:          0
cpu0_ITLB WRITEBACK ACCESS:          0  HIT:          0  MISS:          0
cpu0_L1I TOTAL     ACCESS:    1546372  HIT:    1546147  MISS:        225
cpu0_L1I LOAD      ACCESS:    1546372  HIT:    1546147  MISS:        225
cpu0_L1I RFO       ACCESS:          0  HIT:          0  MISS:          0
cpu0_L1I PREFETCH  ACCESS:          0  HIT:          0  MISS:          0
cpu0_L1I WRITEBACK ACCESS:          0  HIT:          0  MISS:          0
cpu0_STLB TOTAL     ACCESS:      19776  HIT:      19713  MISS:         63
cpu0_STLB LOAD      ACCESS:      15849  HIT:      15795  MISS:         54
cpu0_STLB RFO       ACCESS:       3927  HIT:       3918  MISS:          9
cpu0_STLB PREFETCH  ACCESS:          0  HIT:          0  MISS:          0
cpu0_STLB WRITEBACK ACCESS:          0  HIT:          0  MISS:          0
cpu0_L1D TOTAL     ACCESS:   10077138  HIT:   10076195  MISS:        943
cpu0_L1D LOAD      ACCESS:    3664583  HIT:    3663730  MISS:        853
cpu0_L1D RFO       ACCESS:    6412493  HIT:    6412410  MISS:         83
cpu0_L1D PREFETCH  ACCESS:          0  HIT:          0  MISS:          0
cpu0_L1D WRITEBACK ACCESS:          0  HIT:          0  MISS:          0
cpu0_L2C TOTAL     ACCESS:       1315  HIT:        646  MISS:        669
cpu0_L2C LOAD      ACCESS:       1077  HIT:        477  MISS:        600
cpu0_L2C RFO       ACCESS:         83  HIT:         15  MISS:         68
cpu0_L2C PREFETCH  ACCESS:          0  HIT:          0  MISS:          0
cpu0_L2C WRITEBACK ACCESS:        148  HIT:        148  MISS:          0
LLC TOTAL     ACCESS:        670  HIT:          4  MISS:        666
LLC LOAD      ACCESS:        600  HIT:          2  MISS:        598
LLC RFO       ACCESS:         68  HIT:          0  MISS:         68
LLC PREFETCH  ACCESS:          0  HIT:          0  MISS:          0
LLC WRITEBACK ACCESS:          1  HIT:          1  MISS:          0
Heartbeat CPU 0 instructions: 80000000 cycles: 27844831 heartbeat IPC: 1.95381 cumulative IPC: 1.95666 (Simulation time: 0 hr 46 min 51 sec) 

Region of Interest Statistics
cpu0_DTLB TOTAL     ACCESS:    5795826  HIT:    5775911  MISS:      19915
cpu0_DTLB LOAD      ACCESS:    3239024  HIT:    3223045  MISS:      15979
cpu0_DTLB RFO       ACCESS:    2556802  HIT:    2552866  MISS:       3936
cpu0_DTLB PREFETCH  ACCESS:          0  HIT:          0  MISS:          0
cpu0_DTLB WRITEBACK ACCESS:          0  HIT:          0  MISS:          0
cpu0_ITLB TOTAL     ACCESS:    1955893  HIT:    1955861  MISS:         32
cpu0_ITLB LOAD      ACCESS:    1955893  HIT:    1955861  MISS:         32
cpu0_ITLB RFO       ACCESS:          0  HIT:          0  MISS:          0
cpu0_ITLB PREFETCH  ACCESS:          0  HIT:          0  MISS:          0
cpu0_ITLB WRITEBACK ACCESS:          0  HIT:          0  MISS:          0
cpu0_L1I TOTAL     ACCESS:    1628741  HIT:    1628487  MISS:        254
cpu0_L1I LOAD      ACCESS:    1628741  HIT:    1628487  MISS:        254
cpu0_L1I RFO       ACCESS:          0  HIT:          0  MISS:          0
cpu0_L1I PREFETCH  ACCESS:          0  HIT:          0  MISS:          0
cpu0_L1I WRITEBACK ACCESS:          0  HIT:          0  MISS:          0
cpu0_STLB TOTAL     ACCESS:      19947  HIT:      19881  MISS:         66
cpu0_STLB LOAD      ACCESS:      16011  HIT:      15955  MISS:         56
cpu0_STLB RFO       ACCESS:       3936  HIT:       3926  MISS:         10
cpu0_STLB PREFETCH  ACCESS:          0  HIT:          0  MISS:          0
cpu0_STLB WRITEBACK ACCESS:          0  HIT:          0  MISS:          0
cpu0_L1D TOTAL     ACCESS:   10783157  HIT:   10782110  MISS:       1047
cpu0_L1D LOAD      ACCESS:    3917652  HIT:    3916703  MISS:        949
cpu0_L1D RFO       ACCESS:    6865440  HIT:    6865349  MISS:         91
cpu0_L1D PREFETCH  ACCESS:          0  HIT:          0  MISS:          0
cpu0_L1D WRITEBACK ACCESS:          0  HIT:          0  MISS:          0
cpu0_L2C TOTAL     ACCESS:       1461  HIT:        713  MISS:        748
cpu0_L2C LOAD      ACCESS:       1202  HIT:        531  MISS:        671
cpu0_L2C RFO       ACCESS:         91  HIT:         15  MISS:         76
cpu0_L2C PREFETCH  ACCESS:          0  HIT:          0  MISS:          0
cpu0_L2C WRITEBACK ACCESS:        161  HIT:        161  MISS:          0
LLC TOTAL     ACCESS:        749  HIT:          4  MISS:        745
LLC LOAD      ACCESS:        671  HIT:          2  MISS:        669
LLC RFO       ACCESS:         76  HIT:          0  MISS:         76
LLC PREFETCH  ACCESS:          0  HIT:          0  MISS:          0
LLC WRITEBACK ACCESS:          1  HIT:          1  MISS:          0
Heartbeat CPU 0 instructions: 82000002 cycles: 28881479 heartbeat IPC: 1.9293 cumulative IPC: 1.95493 (Simulation time: 0 hr 48 min 15 sec) 

Region of Interest Statistics
cpu0_DTLB TOTAL     ACCESS:    6152093  HIT:    6131908  MISS:      20185
cpu0_DTLB LOAD      ACCESS:    3433550  HIT:    3417328  MISS:      16222
cpu0_DTLB RFO       ACCESS:    2718543  HIT:    2714580  MISS:       3963
cpu0_DTLB PREFETCH  ACCESS:          0  HIT:          0  MISS:          0
cpu0_DTLB WRITEBACK ACCESS:          0  HIT:          0  MISS:          0
cpu0_ITLB TOTAL     ACCESS:    2154949  HIT:    2154912  MISS:         37
cpu0_ITLB LOAD      ACCESS:    2154949  HIT:    2154912  MISS:         37
cpu0_ITLB RFO       ACCESS:          0  HIT:          0  MISS:          0
cpu0_ITLB PREFETCH  ACCESS:          0  HIT:          0  MISS:          0
cpu0_ITLB WRITEBACK ACCESS:          0  HIT:          0  MISS:          0
cpu0_L1I TOTAL     ACCESS:    1651141  HIT:    1650858  MISS:        283
cpu0_L1I LOAD      ACCESS:    1651141  HIT:    1650858  MISS:        283
cpu0_L1I RFO       ACCESS:          0  HIT:          0  MISS:          0
cpu0_L1I PREFETCH  ACCESS:          0  HIT:          0  MISS:          0
cpu0_L1I WRITEBACK ACCESS:          0  HIT:          0  MISS:          0
cpu0_STLB TOTAL     ACCESS:      20222  HIT:      20148  MISS:         74
cpu0_STLB LOAD      ACCESS:      16259  HIT:      16197  MISS:         62
cpu0_STLB RFO       ACCESS:       3963  HIT:       3951  MISS:         12
cpu0_STLB PREFETCH  ACCESS:          0  HIT:          0  MISS:          0
cpu0_STLB WRITEBACK ACCESS:          0  HIT:          0  MISS:          0
cpu0_L1D TOTAL     ACCESS:   11436078  HIT:   11434911  MISS:       1167
cpu0_L1D LOAD      ACCESS:    4150135  HIT:    4149076  MISS:       1059
cpu0_L1D RFO       ACCESS:    7285870  HIT:    7285770  MISS:        100
cpu0_L1D PREFETCH  ACCESS:          0  HIT:          0  MISS:          0
cpu0_L1D WRITEBACK ACCESS:          0  HIT:          0  MISS:          0
cpu0_L2C TOTAL     ACCESS:       1629  HIT:        788  MISS:        841
cpu0_L2C LOAD      ACCESS:       1341  HIT:        586  MISS:        755
cpu0_L2C RFO       ACCESS:        100  HIT:         15  MISS:         85
cpu0_L2C PREFETCH  ACCESS:          0  HIT:          0  MISS:          0
cpu0_L2C WRITEBACK ACCESS:        180  HIT:        180  MISS:          0
LLC TOTAL     ACCESS:        844  HIT:          6  MISS:        838
LLC LOAD      ACCESS:        755  HIT:          2  MISS:        753
LLC RFO       ACCESS:         85  HIT:          0  MISS:         85
LLC PREFETCH  ACCESS:          0  HIT:          0  MISS:          0
LLC WRITEBACK ACCESS:          3  HIT:          3  MISS:          0
Heartbeat CPU 0 instructions: 84000000 cycles: 29921053 heartbeat IPC: 1.92386 cumulative IPC: 1.95307 (Simulation time: 0 hr 49 min 30 sec) 

Region of Interest Statistics
cpu0_DTLB TOTAL     ACCESS:    6500907  HIT:    6480417  MISS:      20490
cpu0_DTLB LOAD      ACCESS:    3618066  HIT:    3601578  MISS:      16488
cpu0_DTLB RFO       ACCESS:    2882841  HIT:    2878839  MISS:       4002
cpu0_DTLB PREFETCH  ACCESS:          0  HIT:          0  MISS:          0
cpu0_DTLB WRITEBACK ACCESS:          0  HIT:          0  MISS:          0
cpu0_ITLB TOTAL     ACCESS:    2339456  HIT:    2339414  MISS:         42
cpu0_ITLB LOAD      ACCESS:    2339456  HIT:    2339414  MISS:         42
cpu0_ITLB RFO       ACCESS:          0  HIT:          0  MISS:          0
cpu0_ITLB PREFETCH  ACCESS:          0  HIT:          0  MISS:          0
cpu0_ITLB WRITEBACK ACCESS:          0  HIT:          0  MISS:          0
cpu0_L1I TOTAL     ACCESS:    1689285  HIT:    1688971  MISS:        314
cpu0_L1I LOAD      ACCESS:    1689285  HIT:    1688971  MISS:        314
cpu0_L1I RFO       ACCESS:          0  HIT:          0  MISS:          0
cpu0_L1I PREFETCH  ACCESS:          0  HIT:          0  MISS:          0
cpu0_L1I WRITEBACK ACCESS:          0  HIT:          0  MISS:          0
cpu0_STLB TOTAL     ACCESS:      20532  HIT:      20452  MISS:         80
cpu0_STLB LOAD      ACCESS:      16530  HIT:      16464  MISS:         66
cpu0_STLB RFO       ACCESS:       4002  HIT:       3988  MISS:         14
cpu0_STLB PREFETCH  ACCESS:          0  HIT:          0  MISS:          0
cpu0_STLB WRITEBACK ACCESS:          0  HIT:          0  MISS:          0
cpu0_L1D TOTAL     ACCESS:   12086493  HIT:   12085227  MISS:       1266
cpu0_L1D LOAD      ACCESS:    4378822  HIT:    4377674  MISS:       1148
cpu0_L1D RFO       ACCESS:    7707592  HIT:    7707483  MISS:        109
cpu0_L1D PREFETCH  ACCESS:          0  HIT:          0  MISS:          0
cpu0_L1D WRITEBACK ACCESS:          0  HIT:          0  MISS:          0
cpu0_L2C TOTAL     ACCESS:       1769  HIT:        853  MISS:        916
cpu0_L2C LOAD      ACCESS:       1461  HIT:        640  MISS:        821
cpu0_L2C RFO       ACCESS:        109  HIT:         15  MISS:         94
cpu0_L2C PREFETCH  ACCESS:          0  HIT:          0  MISS:          0
cpu0_L2C WRITEBACK ACCESS:        190  HIT:        190  MISS:          0
LLC TOTAL     ACCESS:        920  HIT:          7  MISS:        913
LLC LOAD      ACCESS:        821  HIT:          2  MISS:        819
LLC RFO       ACCESS:         94  HIT:          0  MISS:         94
LLC PREFETCH  ACCESS:          0  HIT:          0  MISS:          0
LLC WRITEBACK ACCESS:          4  HIT:          4  MISS:          0
Heartbeat CPU 0 instructions: 86000000 cycles: 31102353 heartbeat IPC: 1.69305 cumulative IPC: 1.93655 (Simulation time: 0 hr 50 min 37 sec) 

Region of Interest Statistics
cpu0_DTLB TOTAL     ACCESS:    6865231  HIT:    6844050  MISS:      21181
cpu0_DTLB LOAD      ACCESS:    3853998  HIT:    3836855  MISS:      17143
cpu0_DTLB RFO       ACCESS:    3011233  HIT:    3007195  MISS:       4038
cpu0_DTLB PREFETCH  ACCESS:          0  HIT:          0  MISS:          0
cpu0_DTLB WRITEBACK ACCESS:          0  HIT:          0  MISS:          0
cpu0_ITLB TOTAL     ACCESS:    2481425  HIT:    2481377  MISS:         48
cpu0_ITLB LOAD      ACCESS:    2481425  HIT:    2481377  MISS:         48
cpu0_ITLB RFO       ACCESS:          0  HIT:          0  MISS:          0
cpu0_ITLB PREFETCH  ACCESS:          0  HIT:          0  MISS:          0
cpu0_ITLB WRITEBACK ACCESS:          0  HIT:          0  MISS:          0
cpu0_L1I TOTAL     ACCESS:    1873089  HIT:    1872687  MISS:        402
cpu0_L1I LOAD      ACCESS:    1873089  HIT:    1872687  MISS:        402
cpu0_L1I RFO       ACCESS:          0  HIT:          0  MISS:          0
cpu0_L1I PREFETCH  ACCESS:          0  HIT:          0  MISS:          0
cpu0_L1I WRITEBACK ACCESS:          0  HIT:          0  MISS:          0
cpu0_STLB TOTAL     ACCESS:      21229  HIT:      21132  MISS:         97
cpu0_STLB LOAD      ACCESS:      17191  HIT:      17109  MISS:         82
cpu0_STLB RFO       ACCESS:       4038  HIT:       4023  MISS:         15
cpu0_STLB PREFETCH  ACCESS:          0  HIT:          0  MISS:          0
cpu0_STLB WRITEBACK ACCESS:          0  HIT:          0  MISS:          0
cpu0_L1D TOTAL     ACCESS:   12647877  HIT:   12646360  MISS:       1517
cpu0_L1D LOAD      ACCESS:    4655764  HIT:    4654386  MISS:       1378
cpu0_L1D RFO       ACCESS:    7992017  HIT:    7991888  MISS:        129
cpu0_L1D PREFETCH  ACCESS:          0  HIT:          0  MISS:          0
cpu0_L1D WRITEBACK ACCESS:          0  HIT:          0  MISS:          0
cpu0_L2C TOTAL     ACCESS:       2139  HIT:       1030  MISS:       1109
cpu0_L2C LOAD      ACCESS:       1778  HIT:        782  MISS:        996
cpu0_L2C RFO       ACCESS:        129  HIT:         17  MISS:        112
cpu0_L2C PREFETCH  ACCESS:          0  HIT:          0  MISS:          0
cpu0_L2C WRITEBACK ACCESS:        222  HIT:        222  MISS:          0
LLC TOTAL     ACCESS:       1122  HIT:         19  MISS:       1103
LLC LOAD      ACCESS:        996  HIT:          5  MISS:        991
LLC RFO       ACCESS:        112  HIT:          0  MISS:        112
LLC PREFETCH  ACCESS:          0  HIT:          0  MISS:          0
LLC WRITEBACK ACCESS:         13  HIT:         13  MISS:          0
Heartbeat CPU 0 instructions: 88000000 cycles: 32166398 heartbeat IPC: 1.87962 cumulative IPC: 1.93347 (Simulation time: 0 hr 51 min 44 sec) 

Region of Interest Statistics
cpu0_DTLB TOTAL     ACCESS:    7213706  HIT:    7192212  MISS:      21494
cpu0_DTLB LOAD      ACCESS:    4046988  HIT:    4029570  MISS:      17418
cpu0_DTLB RFO       ACCESS:    3166718  HIT:    3162642  MISS:       4076
cpu0_DTLB PREFETCH  ACCESS:          0  HIT:          0  MISS:          0
cpu0_DTLB WRITEBACK ACCESS:          0  HIT:          0  MISS:          0
cpu0_ITLB TOTAL     ACCESS:    2633248  HIT:    2633198  MISS:         50
cpu0_ITLB LOAD      ACCESS:    2633248  HIT:    2633198  MISS:         50
cpu0_ITLB RFO       ACCESS:          0  HIT:          0  MISS:          0
cpu0_ITLB PREFETCH  ACCESS:          0  HIT:          0  MISS:          0
cpu0_ITLB WRITEBACK ACCESS:          0  HIT:          0  MISS:          0
cpu0_L1I TOTAL     ACCESS:    1982195  HIT:    1981725  MISS:        470
cpu0_L1I LOAD      ACCESS:    1982195  HIT:    1981725  MISS:        470
cpu0_L1I RFO       ACCESS:          0  HIT:          0  MISS:          0
cpu0_L1I PREFETCH  ACCESS:          0  HIT:          0  MISS:          0
cpu0_L1I WRITEBACK ACCESS:          0  HIT:          0  MISS:          0
cpu0_STLB TOTAL     ACCESS:      21544  HIT:      21438  MISS:        106
cpu0_STLB LOAD      ACCESS:      17468  HIT:      17378  MISS:         90
cpu0_STLB RFO       ACCESS:       4076  HIT:       4060  MISS:         16
cpu0_STLB PREFETCH  ACCESS:          0  HIT:          0  MISS:          0
cpu0_STLB WRITEBACK ACCESS:          0  HIT:          0  MISS:          0
cpu0_L1D TOTAL     ACCESS:   13270182  HIT:   13268541  MISS:       1641
cpu0_L1D LOAD      ACCESS:    4899765  HIT:    4898274  MISS:       1491
cpu0_L1D RFO       ACCESS:    8370312  HIT:    8370173  MISS:        139
cpu0_L1D PREFETCH  ACCESS:          0  HIT:          0  MISS:          0
cpu0_L1D WRITEBACK ACCESS:          0  HIT:          0  MISS:          0
cpu0_L2C TOTAL     ACCESS:       2347  HIT:       1160  MISS:       1187
cpu0_L2C LOAD      ACCESS:       1959  HIT:        893  MISS:       1066
cpu0_L2C RFO       ACCESS:        139  HIT:         19  MISS:        120
cpu0_L2C PREFETCH  ACCESS:          0  HIT:          0  MISS:          0
cpu0_L2C WRITEBACK ACCESS:        238  HIT:        238  MISS:          0
LLC TOTAL     ACCESS:       1200  HIT:         23  MISS:       1177
LLC LOAD      ACCESS:       1066  HIT:          9  MISS:       1057
LLC RFO       ACCESS:        120  HIT:          0  MISS:        120
LLC PREFETCH  ACCESS:          0  HIT:          0  MISS:          0
LLC WRITEBACK ACCESS:         13  HIT:         13  MISS:          0
Heartbeat CPU 0 instructions: 90000004 cycles: 33161539 heartbeat IPC: 2.00977 cumulative IPC: 1.93714 (Simulation time: 0 hr 52 min 56 sec) 

Region of Interest Statistics
cpu0_DTLB TOTAL     ACCESS:    7581734  HIT:    7560085  MISS:      21649
cpu0_DTLB LOAD      ACCESS:    4243094  HIT:    4225529  MISS:      17565
cpu0_DTLB RFO       ACCESS:    3338640  HIT:    3334556  MISS:       4084
cpu0_DTLB PREFETCH  ACCESS:          0  HIT:          0  MISS:          0
cpu0_DTLB WRITEBACK ACCESS:          0  HIT:          0  MISS:          0
cpu0_ITLB TOTAL     ACCESS:    2784093  HIT:    2784037  MISS:         56
cpu0_ITLB LOAD      ACCESS:    2784093  HIT:    2784037  MISS:         56
cpu0_ITLB RFO       ACCESS:          0  HIT:          0  MISS:          0
cpu0_ITLB PREFETCH  ACCESS:          0  HIT:          0  MISS:          0
cpu0_ITLB WRITEBACK ACCESS:          0  HIT:          0  MISS:          0
cpu0_L1I TOTAL     ACCESS:    2108001  HIT:    2107491  MISS:        510
cpu0_L1I LOAD      ACCESS:    2108001  HIT:    2107491  MISS:        510
cpu0_L1I RFO       ACCESS:          0  HIT:          0  MISS:          0
cpu0_L1I PREFETCH  ACCESS:          0  HIT:          0  MISS:          0
cpu0_L1I WRITEBACK ACCESS:          0  HIT:          0  MISS:          0
cpu0_STLB TOTAL     ACCESS:      21705  HIT:      21593  MISS:        112
cpu0_STLB LOAD      ACCESS:      17621  HIT:      17527  MISS:         94
cpu0_STLB RFO       ACCESS:       4084  HIT:       4066  MISS:         18
cpu0_STLB PREFETCH  ACCESS:          0  HIT:          0  MISS:          0
cpu0_STLB WRITEBACK ACCESS:          0  HIT:          0  MISS:          0
cpu0_L1D TOTAL     ACCESS:   13956330  HIT:   13954575  MISS:       1755
cpu0_L1D LOAD      ACCESS:    5137839  HIT:    5136251  MISS:       1588
cpu0_L1D RFO       ACCESS:    8818380  HIT:    8818225  MISS:        155
cpu0_L1D PREFETCH  ACCESS:          0  HIT:          0  MISS:          0
cpu0_L1D WRITEBACK ACCESS:          0  HIT:          0  MISS:          0
cpu0_L2C TOTAL     ACCESS:       2511  HIT:       1249  MISS:       1262
cpu0_L2C LOAD      ACCESS:       2096  HIT:        964  MISS:       1132
cpu0_L2C RFO       ACCESS:        155  HIT:         26  MISS:        129
cpu0_L2C PREFETCH  ACCESS:          0  HIT:          0  MISS:          0
cpu0_L2C WRITEBACK ACCESS:        248  HIT:        248  MISS:          0
LLC TOTAL     ACCESS:       1276  HIT:         24  MISS:       1252
LLC LOAD      ACCESS:       1132  HIT:          9  MISS:       1123
LLC RFO       ACCESS:        129  HIT:          0  MISS:        129
LLC PREFETCH  ACCESS:          0  HIT:          0  MISS:          0
LLC WRITEBACK ACCESS:         14  HIT:         14  MISS:          0
Heartbeat CPU 0 instructions: 92000003 cycles: 34166880 heartbeat IPC: 1.98937 cumulative IPC: 1.93957 (Simulation time: 0 hr 54 min 7 sec) 

Region of Interest Statistics
cpu0_DTLB TOTAL     ACCESS:    7951877  HIT:    7930069  MISS:      21808
cpu0_DTLB LOAD      ACCESS:    4442294  HIT:    4424574  MISS:      17720
cpu0_DTLB RFO       ACCESS:    3509583  HIT:    3505495  MISS:       4088
cpu0_DTLB PREFETCH  ACCESS:          0  HIT:          0  MISS:          0
cpu0_DTLB WRITEBACK ACCESS:          0  HIT:          0  MISS:          0
cpu0_ITLB TOTAL     ACCESS:    2933983  HIT:    2933921  MISS:         62
cpu0_ITLB LOAD      ACCESS:    2933983  HIT:    2933921  MISS:         62
cpu0_ITLB RFO       ACCESS:          0  HIT:          0  MISS:          0
cpu0_ITLB PREFETCH  ACCESS:          0  HIT:          0  MISS:          0
cpu0_ITLB WRITEBACK ACCESS:          0  HIT:          0  MISS:          0
cpu0_L1I TOTAL     ACCESS:    2239593  HIT:    2239034  MISS:        559
cpu0_L1I LOAD      ACCESS:    2239593  HIT:    2239034  MISS:        559
cpu0_L1I RFO       ACCESS:          0  HIT:          0  MISS:          0
cpu0_L1I PREFETCH  ACCESS:          0  HIT:          0  MISS:          0
cpu0_L1I WRITEBACK ACCESS:          0  HIT:          0  MISS:          0
cpu0_STLB TOTAL     ACCESS:      21870  HIT:      21753  MISS:        117
cpu0_STLB LOAD      ACCESS:      17782  HIT:      17683  MISS:         99
cpu0_STLB RFO       ACCESS:       4088  HIT:       4070  MISS:         18
cpu0_STLB PREFETCH  ACCESS:          0  HIT:          0  MISS:          0
cpu0_STLB WRITEBACK ACCESS:          0  HIT:          0  MISS:          0
cpu0_L1D TOTAL     ACCESS:   14642211  HIT:   14640346  MISS:       1865
cpu0_L1D LOAD      ACCESS:    5378693  HIT:    5377003  MISS:       1690
cpu0_L1D RFO       ACCESS:    9263402  HIT:    9263239  MISS:        163
cpu0_L1D PREFETCH  ACCESS:          0  HIT:          0  MISS:          0
cpu0_L1D WRITEBACK ACCESS:          0  HIT:          0  MISS:          0
cpu0_L2C TOTAL     ACCESS:       2684  HIT:       1348  MISS:       1336
cpu0_L2C LOAD      ACCESS:       2247  HIT:       1049  MISS:       1198
cpu0_L2C RFO       ACCESS:        163  HIT:         26  MISS:        137
cpu0_L2C PREFETCH  ACCESS:          0  HIT:          0  MISS:          0
cpu0_L2C WRITEBACK ACCESS:        262  HIT:        262  MISS:          0
LLC TOTAL     ACCESS:       1354  HIT:         28  MISS:       1326
LLC LOAD      ACCESS:       1198  HIT:          9  MISS:       1189
LLC RFO       ACCESS:        137  HIT:          0  MISS:        137
LLC PREFETCH  ACCESS:          0  HIT:          0  MISS:          0
LLC WRITEBACK ACCESS:         18  HIT:         18  MISS:          0
Heartbeat CPU 0 instructions: 94000000 cycles: 35231096 heartbeat IPC: 1.87931 cumulative IPC: 1.93675 (Simulation time: 0 hr 55 min 35 sec) 

Region of Interest Statistics
cpu0_DTLB TOTAL     ACCESS:    8294251  HIT:    8271978  MISS:      22273
cpu0_DTLB LOAD      ACCESS:    4619848  HIT:    4601713  MISS:      18135
cpu0_DTLB RFO       ACCESS:    3674403  HIT:    3670265  MISS:       4138
cpu0_DTLB PREFETCH  ACCESS:          0  HIT:          0  MISS:          0
cpu0_DTLB WRITEBACK ACCESS:          0  HIT:          0  MISS:          0
cpu0_ITLB TOTAL     ACCESS:    3097758  HIT:    3097689  MISS:         69
cpu0_ITLB LOAD      ACCESS:    3097758  HIT:    3097689  MISS:         69
cpu0_ITLB RFO       ACCESS:          0  HIT:          0  MISS:          0
cpu0_ITLB PREFETCH  ACCESS:          0  HIT:          0  MISS:          0
cpu0_ITLB WRITEBACK ACCESS:          0  HIT:          0  MISS:          0
cpu0_L1I TOTAL     ACCESS:    2302109  HIT:    2301510  MISS:        599
cpu0_L1I LOAD      ACCESS:    2302109  HIT:    2301510  MISS:        599
cpu0_L1I RFO       ACCESS:          0  HIT:          0  MISS:          0
cpu0_L1I PREFETCH  ACCESS:          0  HIT:          0  MISS:          0
cpu0_L1I WRITEBACK ACCESS:          0  HIT:          0  MISS:          0
cpu0_STLB TOTAL     ACCESS:      22342  HIT:      22205  MISS:        137
cpu0_STLB LOAD      ACCESS:      18204  HIT:      18086  MISS:        118
cpu0_STLB RFO       ACCESS:       4138  HIT:       4119  MISS:         19
cpu0_STLB PREFETCH  ACCESS:          0  HIT:          0  MISS:          0
cpu0_STLB WRITEBACK ACCESS:          0  HIT:          0  MISS:          0
cpu0_L1D TOTAL     ACCESS:   15282609  HIT:   15280493  MISS:       2116
cpu0_L1D LOAD      ACCESS:    5604877  HIT:    5602956  MISS:       1921
cpu0_L1D RFO       ACCESS:    9677596  HIT:    9677413  MISS:        183
cpu0_L1D PREFETCH  ACCESS:          0  HIT:          0  MISS:          0
cpu0_L1D WRITEBACK ACCESS:          0  HIT:          0  MISS:          0
cpu0_L2C TOTAL     ACCESS:       3009  HIT:       1495  MISS:       1514
cpu0_L2C LOAD      ACCESS:       2518  HIT:       1159  MISS:       1359
cpu0_L2C RFO       ACCESS:        183  HIT:         29  MISS:        154
cpu0_L2C PREFETCH  ACCESS:          0  HIT:          0  MISS:          0
cpu0_L2C WRITEBACK ACCESS:        296  HIT:        296  MISS:          0
LLC TOTAL     ACCESS:       1535  HIT:         32  MISS:       1503
LLC LOAD      ACCESS:       1359  HIT:         10  MISS:       1349
LLC RFO       ACCESS:        154  HIT:          0  MISS:        154
LLC PREFETCH  ACCESS:          0  HIT:          0  MISS:          0
LLC WRITEBACK ACCESS:         21  HIT:         21  MISS:          0
Heartbeat CPU 0 instructions: 96000000 cycles: 36286303 heartbeat IPC: 1.89536 cumulative IPC: 1.93491 (Simulation time: 0 hr 57 min 3 sec) 

Region of Interest Statistics
cpu0_DTLB TOTAL     ACCESS:    8639503  HIT:    8616771  MISS:      22732
cpu0_DTLB LOAD      ACCESS:    4801744  HIT:    4783196  MISS:      18548
cpu0_DTLB RFO       ACCESS:    3837759  HIT:    3833575  MISS:       4184
cpu0_DTLB PREFETCH  ACCESS:          0  HIT:          0  MISS:          0
cpu0_DTLB WRITEBACK ACCESS:          0  HIT:          0  MISS:          0
cpu0_ITLB TOTAL     ACCESS:    3269031  HIT:    3268957  MISS:         74
cpu0_ITLB LOAD      ACCESS:    3269031  HIT:    3268957  MISS:         74
cpu0_ITLB RFO       ACCESS:          0  HIT:          0  MISS:          0
cpu0_ITLB PREFETCH  ACCESS:          0  HIT:          0  MISS:          0
cpu0_ITLB WRITEBACK ACCESS:          0  HIT:          0  MISS:          0
cpu0_L1I TOTAL     ACCESS:    2358108  HIT:    2357465  MISS:        643
cpu0_L1I LOAD      ACCESS:    2358108  HIT:    2357465  MISS:        643
cpu0_L1I RFO       ACCESS:          0  HIT:          0  MISS:          0
cpu0_L1I PREFETCH  ACCESS:          0  HIT:          0  MISS:          0
cpu0_L1I WRITEBACK ACCESS:          0  HIT:          0  MISS:          0
cpu0_STLB TOTAL     ACCESS:      22806  HIT:      22655  MISS:        151
cpu0_STLB LOAD      ACCESS:      18622  HIT:      18492  MISS:        130
cpu0_STLB RFO       ACCESS:       4184  HIT:       4163  MISS:         21
cpu0_STLB PREFETCH  ACCESS:          0  HIT:          0  MISS:          0
cpu0_STLB WRITEBACK ACCESS:          0  HIT:          0  MISS:          0
cpu0_L1D TOTAL     ACCESS:   15922665  HIT:   15920346  MISS:       2319
cpu0_L1D LOAD      ACCESS:    5831817  HIT:    5829716  MISS:       2101
cpu0_L1D RFO       ACCESS:   10090698  HIT:   10090494  MISS:        204
cpu0_L1D PREFETCH  ACCESS:          0  HIT:          0  MISS:          0
cpu0_L1D WRITEBACK ACCESS:          0  HIT:          0  MISS:          0
cpu0_L2C TOTAL     ACCESS:       3288  HIT:       1614  MISS:       1674
cpu0_L2C LOAD      ACCESS:       2742  HIT:       1240  MISS:       1502
cpu0_L2C RFO       ACCESS:        204  HIT:         33  MISS:        171
cpu0_L2C PREFETCH  ACCESS:          0  HIT:          0  MISS:          0
cpu0_L2C WRITEBACK ACCESS:        328  HIT:        328  MISS:          0
LLC TOTAL     ACCESS:       1704  HIT:         41  MISS:       1663
LLC LOAD      ACCESS:       1502  HIT:         10  MISS:       1492
LLC RFO       ACCESS:        171  HIT:          0  MISS:        171
LLC PREFETCH  ACCESS:          0  HIT:          0  MISS:          0
LLC WRITEBACK ACCESS:         30  HIT:         30  MISS:          0
Heartbeat CPU 0 instructions: 98000000 cycles: 37327083 heartbeat IPC: 1.92164 cumulative IPC: 1.93435 (Simulation time: 0 hr 58 min 25 sec) 

Region of Interest Statistics
cpu0_DTLB TOTAL     ACCESS:    8994117  HIT:    8971120  MISS:      22997
cpu0_DTLB LOAD      ACCESS:    4994084  HIT:    4975303  MISS:      18781
cpu0_DTLB RFO       ACCESS:    4000033  HIT:    3995817  MISS:       4216
cpu0_DTLB PREFETCH  ACCESS:          0  HIT:          0  MISS:          0
cpu0_DTLB WRITEBACK ACCESS:          0  HIT:          0  MISS:          0
cpu0_ITLB TOTAL     ACCESS:    3470434  HIT:    3470355  MISS:         79
cpu0_ITLB LOAD      ACCESS:    3470434  HIT:    3470355  MISS:         79
cpu0_ITLB RFO       ACCESS:          0  HIT:          0  MISS:          0
cpu0_ITLB PREFETCH  ACCESS:          0  HIT:          0  MISS:          0
cpu0_ITLB WRITEBACK ACCESS:          0  HIT:          0  MISS:          0
cpu0_L1I TOTAL     ACCESS:    2380631  HIT:    2379969  MISS:        662
cpu0_L1I LOAD      ACCESS:    2380631  HIT:    2379969  MISS:        662
cpu0_L1I RFO       ACCESS:          0  HIT:          0  MISS:          0
cpu0_L1I PREFETCH  ACCESS:          0  HIT:          0  MISS:          0
cpu0_L1I WRITEBACK ACCESS:          0  HIT:          0  MISS:          0
cpu0_STLB TOTAL     ACCESS:      23076  HIT:      22920  MISS:        156
cpu0_STLB LOAD      ACCESS:      18860  HIT:      18726  MISS:        134
cpu0_STLB RFO       ACCESS:       4216  HIT:       4194  MISS:         22
cpu0_STLB PREFETCH  ACCESS:          0  HIT:          0  MISS:          0
cpu0_STLB WRITEBACK ACCESS:          0  HIT:          0  MISS:          0
cpu0_L1D TOTAL     ACCESS:   16574316  HIT:   16571888  MISS:       2428
cpu0_L1D LOAD      ACCESS:    6063988  HIT:    6061786  MISS:       2202
cpu0_L1D RFO       ACCESS:   10510173  HIT:   10509961  MISS:        212
cpu0_L1D PREFETCH  ACCESS:          0  HIT:          0  MISS:          0
cpu0_L1D WRITEBACK ACCESS:          0  HIT:          0  MISS:          0
cpu0_L2C TOTAL     ACCESS:       3432  HIT:       1675  MISS:       1757
cpu0_L2C LOAD      ACCESS:       2862  HIT:       1285  MISS:       1577
cpu0_L2C RFO       ACCESS:        212  HIT:         33  MISS:        179
cpu0_L2C PREFETCH  ACCESS:          0  HIT:          0  MISS:          0
cpu0_L2C WRITEBACK ACCESS:        344  HIT:        344  MISS:          0
LLC TOTAL     ACCESS:       1788  HIT:         42  MISS:       1746
LLC LOAD      ACCESS:       1577  HIT:         10  MISS:       1567
LLC RFO       ACCESS:        179  HIT:          0  MISS:        179
LLC PREFETCH  ACCESS:          0  HIT:          0  MISS:          0
LLC WRITEBACK ACCESS:         31  HIT:         31  MISS:          0
Heartbeat CPU 0 instructions: 100000004 cycles: 38367037 heartbeat IPC: 1.92317 cumulative IPC: 1.9339 (Simulation time: 0 hr 59 min 51 sec) 

Region of Interest Statistics
cpu0_DTLB TOTAL     ACCESS:    9341856  HIT:    9318673  MISS:      23183
cpu0_DTLB LOAD      ACCESS:    5172941  HIT:    5153981  MISS:      18960
cpu0_DTLB RFO       ACCESS:    4168915  HIT:    4164692  MISS:       4223
cpu0_DTLB PREFETCH  ACCESS:          0  HIT:          0  MISS:          0
cpu0_DTLB WRITEBACK ACCESS:          0  HIT:          0  MISS:          0
cpu0_ITLB TOTAL     ACCESS:    3619783  HIT:    3619699  MISS:         84
cpu0_ITLB LOAD      ACCESS:    3619783  HIT:    3619699  MISS:         84
cpu0_ITLB RFO       ACCESS:          0  HIT:          0  MISS:          0
cpu0_ITLB PREFETCH  ACCESS:          0  HIT:          0  MISS:          0
cpu0_ITLB WRITEBACK ACCESS:          0  HIT:          0  MISS:          0
cpu0_L1I TOTAL     ACCESS:    2460346  HIT:    2459661  MISS:        685
cpu0_L1I LOAD      ACCESS:    2460346  HIT:    2459661  MISS:        685
cpu0_L1I RFO       ACCESS:          0  HIT:          0  MISS:          0
cpu0_L1I PREFETCH  ACCESS:          0  HIT:          0  MISS:          0
cpu0_L1I WRITEBACK ACCESS:          0  HIT:          0  MISS:          0
cpu0_STLB TOTAL     ACCESS:      23267  HIT:      23108  MISS:        159
cpu0_STLB LOAD      ACCESS:      19044  HIT:      18907  MISS:        137
cpu0_STLB RFO       ACCESS:       4223  HIT:       4201  MISS:         22
cpu0_STLB PREFETCH  ACCESS:          0  HIT:          0  MISS:          0
cpu0_STLB WRITEBACK ACCESS:          0  HIT:          0  MISS:          0
cpu0_L1D TOTAL     ACCESS:   17235854  HIT:   17233318  MISS:       2536
cpu0_L1D LOAD      ACCESS:    6290739  HIT:    6288439  MISS:       2300
cpu0_L1D RFO       ACCESS:   10944957  HIT:   10944735  MISS:        222
cpu0_L1D PREFETCH  ACCESS:          0  HIT:          0  MISS:          0
cpu0_L1D WRITEBACK ACCESS:          0  HIT:          0  MISS:          0
cpu0_L2C TOTAL     ACCESS:       3579  HIT:       1740  MISS:       1839
cpu0_L2C LOAD      ACCESS:       2983  HIT:       1332  MISS:       1651
cpu0_L2C RFO       ACCESS:        222  HIT:         35  MISS:        187
cpu0_L2C PREFETCH  ACCESS:          0  HIT:          0  MISS:          0
cpu0_L2C WRITEBACK ACCESS:        360  HIT:        360  MISS:          0
LLC TOTAL     ACCESS:       1872  HIT:         45  MISS:       1827
LLC LOAD      ACCESS:       1651  HIT:         11  MISS:       1640
LLC RFO       ACCESS:        187  HIT:          0  MISS:        187
LLC PREFETCH  ACCESS:          0  HIT:          0  MISS:          0
LLC WRITEBACK ACCESS:         33  HIT:         33  MISS:          0
Heartbeat CPU 0 instructions: 102000003 cycles: 39417564 heartbeat IPC: 1.90381 cumulative IPC: 1.93273 (Simulation time: 1 hr 1 min 7 sec) 

Region of Interest Statistics
cpu0_DTLB TOTAL     ACCESS:    9717773  HIT:    9694584  MISS:      23189
cpu0_DTLB LOAD      ACCESS:    5379243  HIT:    5360277  MISS:      18966
cpu0_DTLB RFO       ACCESS:    4338530  HIT:    4334307  MISS:       4223
cpu0_DTLB PREFETCH  ACCESS:          0  HIT:          0  MISS:          0
cpu0_DTLB WRITEBACK ACCESS:          0  HIT:          0  MISS:          0
cpu0_ITLB TOTAL     ACCESS:    3736288  HIT:    3736204  MISS:         84
cpu0_ITLB LOAD      ACCESS:    3736288  HIT:    3736204  MISS:         84
cpu0_ITLB RFO       ACCESS:          0  HIT:          0  MISS:          0
cpu0_ITLB PREFETCH  ACCESS:          0  HIT:          0  MISS:          0
cpu0_ITLB WRITEBACK ACCESS:          0  HIT:          0  MISS:          0
cpu0_L1I TOTAL     ACCESS:    2589411  HIT:    2588726  MISS:        685
cpu0_L1I LOAD      ACCESS:    2589411  HIT:    2588726  MISS:        685
cpu0_L1I RFO       ACCESS:          0  HIT:          0  MISS:          0
cpu0_L1I PREFETCH  ACCESS:          0  HIT:          0  MISS:          0
cpu0_L1I WRITEBACK ACCESS:          0  HIT:          0  MISS:          0
cpu0_STLB TOTAL     ACCESS:      23273  HIT:      23114  MISS:        159
cpu0_STLB LOAD      ACCESS:      19050  HIT:      18913  MISS:        137
cpu0_STLB RFO       ACCESS:       4223  HIT:       4201  MISS:         22
cpu0_STLB PREFETCH  ACCESS:          0  HIT:          0  MISS:          0
cpu0_STLB WRITEBACK ACCESS:          0  HIT:          0  MISS:          0
cpu0_L1D TOTAL     ACCESS:   17940299  HIT:   17937760  MISS:       2539
cpu0_L1D LOAD      ACCESS:    6529810  HIT:    6527507  MISS:       2303
cpu0_L1D RFO       ACCESS:   11410331  HIT:   11410109  MISS:        222
cpu0_L1D PREFETCH  ACCESS:          0  HIT:          0  MISS:          0
cpu0_L1D WRITEBACK ACCESS:          0  HIT:          0  MISS:          0
cpu0_L2C TOTAL     ACCESS:       3582  HIT:       1742  MISS:       1840
cpu0_L2C LOAD      ACCESS:       2986  HIT:       1334  MISS:       1652
cpu0_L2C RFO       ACCESS:        222  HIT:         35  MISS:        187
cpu0_L2C PREFETCH  ACCESS:          0  HIT:          0  MISS:          0
cpu0_L2C WRITEBACK ACCESS:        360  HIT:        360  MISS:          0
LLC TOTAL     ACCESS:       1873  HIT:         45  MISS:       1828
LLC LOAD      ACCESS:       1652  HIT:         11  MISS:       1641
LLC RFO       ACCESS:        187  HIT:          0  MISS:        187
LLC PREFETCH  ACCESS:          0  HIT:          0  MISS:          0
LLC WRITEBACK ACCESS:         33  HIT:         33  MISS:          0
Heartbeat CPU 0 instructions: 104000004 cycles: 40474990 heartbeat IPC: 1.89139 cumulative IPC: 1.93116 (Simulation time: 1 hr 2 min 19 sec) 

Region of Interest Statistics
cpu0_DTLB TOTAL     ACCESS:   10094175  HIT:   10070962  MISS:      23213
cpu0_DTLB LOAD      ACCESS:    5585833  HIT:    5566843  MISS:      18990
cpu0_DTLB RFO       ACCESS:    4508342  HIT:    4504119  MISS:       4223
cpu0_DTLB PREFETCH  ACCESS:          0  HIT:          0  MISS:          0
cpu0_DTLB WRITEBACK ACCESS:          0  HIT:          0  MISS:          0
cpu0_ITLB TOTAL     ACCESS:    3852947  HIT:    3852863  MISS:         84
cpu0_ITLB LOAD      ACCESS:    3852947  HIT:    3852863  MISS:         84
cpu0_ITLB RFO       ACCESS:          0  HIT:          0  MISS:          0
cpu0_ITLB PREFETCH  ACCESS:          0  HIT:          0  MISS:          0
cpu0_ITLB WRITEBACK ACCESS:          0  HIT:          0  MISS:          0
cpu0_L1I TOTAL     ACCESS:    2719309  HIT:    2718624  MISS:        685
cpu0_L1I LOAD      ACCESS:    2719309  HIT:    2718624  MISS:        685
cpu0_L1I RFO       ACCESS:          0  HIT:          0  MISS:          0
cpu0_L1I PREFETCH  ACCESS:          0  HIT:          0  MISS:          0
cpu0_L1I WRITEBACK ACCESS:          0  HIT:          0  MISS:          0
cpu0_STLB TOTAL     ACCESS:      23297  HIT:      23138  MISS:        159
cpu0_STLB LOAD      ACCESS:      19074  HIT:      18937  MISS:        137
cpu0_STLB RFO       ACCESS:       4223  HIT:       4201  MISS:         22
cpu0_STLB PREFETCH  ACCESS:          0  HIT:          0  MISS:          0
cpu0_STLB WRITEBACK ACCESS:          0  HIT:          0  MISS:          0
cpu0_L1D TOTAL     ACCESS:   18644781  HIT:   18642236  MISS:       2545
cpu0_L1D LOAD      ACCESS:    6769030  HIT:    6766721  MISS:       2309
cpu0_L1D RFO       ACCESS:   11875593  HIT:   11875371  MISS:        222
cpu0_L1D PREFETCH  ACCESS:          0  HIT:          0  MISS:          0
cpu0_L1D WRITEBACK ACCESS:          0  HIT:          0  MISS:          0
cpu0_L2C TOTAL     ACCESS:       3588  HIT:       1748  MISS:       1840
cpu0_L2C LOAD      ACCESS:       2992  HIT:       1340  MISS:       1652
cpu0_L2C RFO       ACCESS:        222  HIT:         35  MISS:        187
cpu0_L2C PREFETCH  ACCESS:          0  HIT:          0  MISS:          0
cpu0_L2C WRITEBACK ACCESS:        360  HIT:        360  MISS:          0
LLC TOTAL     ACCESS:       1873  HIT:         45  MISS:       1828
LLC LOAD      ACCESS:       1652  HIT:         11  MISS:       1641
LLC RFO       ACCESS:        187  HIT:          0  MISS:        187
LLC PREFETCH  ACCESS:          0  HIT:          0  MISS:          0
LLC WRITEBACK ACCESS:         33  HIT:         33  MISS:          0
Heartbeat CPU 0 instructions: 106000002 cycles: 41533330 heartbeat IPC: 1.88975 cumulative IPC: 1.92965 (Simulation time: 1 hr 3 min 30 sec) 

Region of Interest Statistics
cpu0_DTLB TOTAL     ACCESS:   10470412  HIT:   10447175  MISS:      23237
cpu0_DTLB LOAD      ACCESS:    5792142  HIT:    5773128  MISS:      19014
cpu0_DTLB RFO       ACCESS:    4678270  HIT:    4674047  MISS:       4223
cpu0_DTLB PREFETCH  ACCESS:          0  HIT:          0  MISS:          0
cpu0_DTLB WRITEBACK ACCESS:          0  HIT:          0  MISS:          0
cpu0_ITLB TOTAL     ACCESS:    3969529  HIT:    3969445  MISS:         84
cpu0_ITLB LOAD      ACCESS:    3969529  HIT:    3969445  MISS:         84
cpu0_ITLB RFO       ACCESS:          0  HIT:          0  MISS:          0
cpu0_ITLB PREFETCH  ACCESS:          0  HIT:          0  MISS:          0
cpu0_ITLB WRITEBACK ACCESS:          0  HIT:          0  MISS:          0
cpu0_L1I TOTAL     ACCESS:    2849477  HIT:    2848792  MISS:        685
cpu0_L1I LOAD      ACCESS:    2849477  HIT:    2848792  MISS:        685
cpu0_L1I RFO       ACCESS:          0  HIT:          0  MISS:          0
cpu0_L1I PREFETCH  ACCESS:          0  HIT:          0  MISS:          0
cpu0_L1I WRITEBACK ACCESS:          0  HIT:          0  MISS:          0
cpu0_STLB TOTAL     ACCESS:      23321  HIT:      23162  MISS:        159
cpu0_STLB LOAD      ACCESS:      19098  HIT:      18961  MISS:        137
cpu0_STLB RFO       ACCESS:       4223  HIT:       4201  MISS:         22
cpu0_STLB PREFETCH  ACCESS:          0  HIT:          0  MISS:          0
cpu0_STLB WRITEBACK ACCESS:          0  HIT:          0  MISS:          0
cpu0_L1D TOTAL     ACCESS:   19349006  HIT:   19346458  MISS:       2548
cpu0_L1D LOAD      ACCESS:    7007730  HIT:    7005418  MISS:       2312
cpu0_L1D RFO       ACCESS:   12341118  HIT:   12340896  MISS:        222
cpu0_L1D PREFETCH  ACCESS:          0  HIT:          0  MISS:          0
cpu0_L1D WRITEBACK ACCESS:          0  HIT:          0  MISS:          0
cpu0_L2C TOTAL     ACCESS:       3591  HIT:       1751  MISS:       1840
cpu0_L2C LOAD      ACCESS:       2995  HIT:       1343  MISS:       1652
cpu0_L2C RFO       ACCESS:        222  HIT:         35  MISS:        187
cpu0_L2C PREFETCH  ACCESS:          0  HIT:          0  MISS:          0
cpu0_L2C WRITEBACK ACCESS:        360  HIT:        360  MISS:          0
LLC TOTAL     ACCESS:       1873  HIT:         45  MISS:       1828
[...]
cpu0_DTLB RFO       ACCESS:  123283681  HIT:  123117282  MISS:     166399
cpu0_DTLB PREFETCH  ACCESS:          0  HIT:          0  MISS:          0
cpu0_DTLB WRITEBACK ACCESS:          0  HIT:          0  MISS:          0
cpu0_DTLB TRANSLATION ACCESS:          0  HIT:          0  MISS:          0
cpu0_DTLB PREFETCH  REQUESTED:          0  ISSUED:          0  USEFUL:          0  USELESS:          0
cpu0_DTLB AVERAGE MISS LATENCY: 9.94842 cycles
cpu0_ITLB TOTAL     ACCESS:  108123975  HIT:  107939734  MISS:     184241
cpu0_ITLB LOAD      ACCESS:  108123975  HIT:  107939734  MISS:     184241
cpu0_ITLB RFO       ACCESS:          0  HIT:          0  MISS:          0
cpu0_ITLB PREFETCH  ACCESS:          0  HIT:          0  MISS:          0
cpu0_ITLB WRITEBACK ACCESS:          0  HIT:          0  MISS:          0
cpu0_ITLB TRANSLATION ACCESS:          0  HIT:          0  MISS:          0
cpu0_ITLB PREFETCH  REQUESTED:          0  ISSUED:          0  USEFUL:          0  USELESS:          0
cpu0_ITLB AVERAGE MISS LATENCY: 9.35222 cycles
cpu0_L1I TOTAL     ACCESS:   87502751  HIT:   84984884  MISS:    2517867
cpu0_L1I LOAD      ACCESS:   87502751  HIT:   84984884  MISS:    2517867
cpu0_L1I RFO       ACCESS:          0  HIT:          0  MISS:          0
cpu0_L1I PREFETCH  ACCESS:          0  HIT:          0  MISS:          0
cpu0_L1I WRITEBACK ACCESS:          0  HIT:          0  MISS:          0
cpu0_L1I TRANSLATION ACCESS:          0  HIT:          0  MISS:          0
cpu0_L1I PREFETCH  REQUESTED:          0  ISSUED:          0  USEFUL:          0  USELESS:          0
cpu0_L1I AVERAGE MISS LATENCY: 13.9887 cycles
cpu0_STLB TOTAL     ACCESS:    1924906  HIT:    1864480  MISS:      60426
cpu0_STLB LOAD      ACCESS:    1758507  HIT:    1704948  MISS:      53559
cpu0_STLB RFO       ACCESS:     166399  HIT:     159532  MISS:       6867
cpu0_STLB PREFETCH  ACCESS:          0  HIT:          0  MISS:          0
cpu0_STLB WRITEBACK ACCESS:          0  HIT:          0  MISS:          0
cpu0_STLB TRANSLATION ACCESS:          0  HIT:          0  MISS:          0
cpu0_STLB PREFETCH  REQUESTED:          0  ISSUED:          0  USEFUL:          0  USELESS:          0
cpu0_STLB AVERAGE MISS LATENCY: 27.8738 cycles
cpu0_L1D TOTAL     ACCESS:  496464490  HIT:  494742864  MISS:    1721626
cpu0_L1D LOAD      ACCESS:  185019753  HIT:  183441883  MISS:    1577870
cpu0_L1D RFO       ACCESS:  311384614  HIT:  311246869  MISS:     137745
cpu0_L1D PREFETCH  ACCESS:          0  HIT:          0  MISS:          0
cpu0_L1D WRITEBACK ACCESS:          0  HIT:          0  MISS:          0
cpu0_L1D TRANSLATION ACCESS:      60123  HIT:      54112  MISS:       6011
cpu0_L1D PREFETCH  REQUESTED:          0  ISSUED:          0  USEFUL:          0  USELESS:          0
cpu0_L1D AVERAGE MISS LATENCY: 70.3837 cycles
cpu0_L2C TOTAL     ACCESS:    4672026  HIT:    3884043  MISS:     787983
cpu0_L2C LOAD      ACCESS:    4095650  HIT:    3357900  MISS:     737750
cpu0_L2C RFO       ACCESS:     137729  HIT:      90014  MISS:      47715
cpu0_L2C PREFETCH  ACCESS:          0  HIT:          0  MISS:          0
cpu0_L2C WRITEBACK ACCESS:     432636  HIT:     430586  MISS:       2050
cpu0_L2C TRANSLATION ACCESS:       6011  HIT:       5543  MISS:        468
cpu0_L2C PREFETCH  REQUESTED:          0  ISSUED:          0  USEFUL:          0  USELESS:          0
cpu0_L2C AVERAGE MISS LATENCY: 139.213 cycles
LLC TOTAL     ACCESS:     940822  HIT:     343198  MISS:     597624
LLC LOAD      ACCESS:     737750  HIT:     176372  MISS:     561378
LLC RFO       ACCESS:      47715  HIT:      13115  MISS:      34600
LLC PREFETCH  ACCESS:          0  HIT:          0  MISS:          0
LLC WRITEBACK ACCESS:     154889  HIT:     153352  MISS:       1537
LLC TRANSLATION ACCESS:        468  HIT:        359  MISS:        109
LLC PREFETCH  REQUESTED:          0  ISSUED:          0  USEFUL:          0  USELESS:          0
LLC AVERAGE MISS LATENCY: 155.939 cycles
~~~~~~~~~~Reuse Distance Profiler output~~~~~~~~~~
0	83114464	4181152
1	39345072	5497328
2	27322416	7617088
3	25133584	5972272
4	16376416	5528768
5	11241424	2832320
6	11597808	3862352
7	15158864	3683024
8	11028768	3864144
9	8696976	3529904
10	11815184	3826096
11	11591920	4587520
12	6978672	2499200
13	6991136	2732864
14	6492512	1685600
15	5477856	1737792
16	6649232	3224400
17	6124880	2126752
18	5493856	1463616
19	4755840	1743232
20	5305168	1918272
21	5322704	2036832
22	4040976	1500256
23	5015184	2076368
24	2775552	1277344
25	2312960	903024
26	2994320	945840
27	3307488	1175616
28	2126032	758176
29	2268144	804112
30	1776000	523440
31	2906768	1746992
32	2455776	667760
33	1599312	652096
34	1428864	812000
35	1393488	615296
36	2234768	1330384
37	2708944	628848
38	1124608	421904
39	1115424	543344
40	1723184	911072
41	1720144	1095520
42	2064480	754720
43	1882144	1304608
44	2148656	564528
45	1315840	543520
46	1425456	903600
47	2608000	998928
48	2339456	1815616
49	1013248	812688
50	1305728	591936
51	963984	592384
52	826592	401520
53	1193024	507104
54	1399824	1009376
55	646112	372288
56	1209648	460928
57	1640192	483184
58	1344208	396096
59	1759824	1213920
60	1874960	777472
61	1873728	925872
62	1500432	619056
63	994912	585408
64	2554912	1536128
66	2183552	1405824
68	2141376	958864
70	2496896	1270768
72	2428688	1062320
74	1339088	508608
76	1403648	605232
78	1188416	427792
80	1181680	721424
82	1991376	1692768
84	1354160	1068272
86	929264	654544
88	684592	468144
90	1069184	806800
92	1562464	1420112
94	1685376	1195744
96	1586928	1176096
98	875888	585488
100	1892016	1575440
102	677696	475152
104	947728	845200
106	957952	841456
108	1302048	1132624
110	525344	438032
112	477328	406720
114	611312	552848
116	1176256	1106208
118	620080	552160
120	640176	513056
122	741456	685984
124	404368	353968
126	922624	426832
128	1832464	1073312
132	1800192	1091984
136	1246000	804688
140	2389040	1918944
144	4960928	4479376
148	2772624	2110800
152	3320176	3154368
156	1688432	1612576
160	967936	839072
164	812992	715824
168	1127088	887536
172	1522576	1353104
176	1637696	1328304
180	1661056	1396288
184	1018288	872192
188	738768	644640
192	532624	463168
196	361696	306112
200	419728	353296
204	387296	340080
208	379536	305584
212	370144	310416
216	294592	243808
220	377456	322016
224	263280	225920
228	360096	310064
232	480912	431360
236	509888	449664
240	259632	212112
244	292208	252592
248	348992	318400
252	241920	216576
256	435712	390064
264	621296	572496
272	641120	575760
280	1880592	1678848
288	547152	500928
296	1321920	1241488
304	570816	520736
312	481008	418944
320	325360	269984
328	431520	367552
336	579232	484704
344	628384	518688
352	697632	607600
360	484720	413296
368	465552	407856
376	502352	436464
384	607904	535600
392	317888	275056
400	230816	196000
408	223232	193280
416	234960	201712
424	193104	159456
432	199072	164320
440	157776	118080
448	146800	126800
456	185040	163856
464	210960	191200
472	120608	106560
480	93536	80064
488	72800	61984
496	82976	71216
504	80912	70480
512	143456	126576
528	173392	154800
544	166112	143424
560	197328	179616
576	285328	253520
592	268528	248736
608	149536	135856
624	308064	272784
640	123536	105952
656	68256	59600
672	113888	96992
688	102720	90720
704	86816	77328
720	92096	81008
736	74528	65392
752	76608	68304
768	73312	65776
784	65824	57232
800	69296	59424
816	66288	59232
832	66992	59552
848	62192	54368
864	67392	59744
880	84112	74000
896	60432	54176
912	49280	41984
928	48672	40832
944	43200	37280
960	62304	51328
976	60784	52592
992	53200	47088
1008	47616	42224
1024	89184	79952
1056	95504	87808
1088	90416	80896
1120	77920	69376
1152	91200	81344
1184	87984	77776
1216	69856	56272
1248	84912	70384
1280	77968	67136
1312	57104	46784
1344	75904	63344
1376	81408	68048
1408	76384	68736
1440	66672	59472
1472	65680	58384
1504	61728	54080
1536	63200	53536
1568	47488	40544
1600	38832	33712
1632	43056	38448
1664	36512	32624
1696	41472	37376
1728	36496	32160
1760	37424	32128
1792	38400	33424
1824	41024	34400
1856	33584	29840
1888	25936	22880
1920	30432	26800
1952	27424	23904
1984	31600	28000
2016	27360	23440
2048	63296	53120
2112	67472	56160
2176	51568	46160
2240	50720	45760
2304	52352	46672
2368	58416	51984
2432	47008	42832
2496	53472	48560
2560	54816	47936
2624	52640	45360
2688	46384	40720
2752	44816	40592
2816	40496	37168
2880	34240	29824
2944	41952	36784
3008	37856	33632
3072	41552	36640
3136	43696	38272
3200	46432	41232
3264	44512	39920
3328	34048	30592
3392	24208	21696
3456	23696	20768
3520	24016	21312
3584	22960	20544
3648	22544	20192
3712	22080	18752
3776	19536	16992
3840	24272	22144
3904	22880	20256
3968	17264	15312
4032	22464	20416
4096	41984	37344
4224	39456	34464
4352	50672	46080
4480	36528	32320
4608	37040	33520
4736	39376	35920
4864	35936	32544
4992	37136	33936
5120	29824	26192
5248	28016	25136
5376	26416	23936
5504	28912	26912
5632	33984	31616
5760	29280	26240
5888	22976	20960
6016	20128	18496
6144	19696	18048
6272	19680	17888
6400	23168	20432
6528	22896	21536
6656	18400	16512
6784	17952	16624
6912	17552	16064
7040	18000	15792
7168	18400	16592
7296	20576	18544
7424	22080	20848
7552	17120	15216
7680	22096	20048
7808	13936	12608
7936	13344	12128
8064	15328	13808
8192	27136	24416
8448	28416	25488
8704	44880	41232
8960	29328	27072
9216	27312	25264
9472	25568	23904
9728	23968	21888
9984	20496	18064
10240	21952	19552
10496	22096	19808
10752	21680	19504
11008	23168	20688
11264	21856	20032
11520	24912	23184
11776	21232	19632
12032	19200	16976
12288	22032	19936
12544	24528	22832
12800	19840	17952
13056	19008	17152
13312	19312	17472
13568	21392	19632
13824	20368	18496
14080	23936	21984
14336	26800	24464
14592	23008	20992
14848	28416	26464
15104	17440	16000
15360	17360	15856
15616	20112	18656
15872	21072	19632
16128	16096	14800
16384	35680	33488
16896	29104	26736
17408	31376	29040
17920	28784	26400
18432	33024	31104
18944	26608	24720
19456	22704	21104
19968	22032	20576
20480	18976	17408
20992	16064	14688
21504	17680	15952
22016	21728	19984
22528	38736	36592
23040	28816	27312
23552	19152	17520
24064	15248	13696
24576	15456	13904
25088	18848	17104
25600	14640	13392
26112	13024	11808
26624	14528	13248
27136	13072	11824
27648	11040	10048
28160	10144	9312
28672	10384	9568
29184	12672	11920
29696	10816	9824
30208	10304	9440
30720	12688	11664
31232	11664	10832
31744	7776	7168
32256	8096	7680
32768	18656	17440
33792	22640	20768
34816	21536	20128
35840	21392	19568
36864	19376	17696
37888	16400	15056
38912	16160	14736
39936	15568	13968
40960	16144	14432
41984	10880	10000
43008	10784	9680
44032	12272	11152
45056	11552	10176
46080	15616	14000
47104	11824	10640
48128	13488	11920
49152	15504	12784
50176	10992	9760
51200	9424	7984
52224	13072	9840
53248	10976	8944
54272	7232	6032
55296	9392	8128
56320	8016	7216
57344	6928	6080
58368	7760	7104
59392	7952	7424
60416	5616	5120
61440	6000	5168
62464	6624	5936
63488	4624	4144
64512	4992	4672
65536	10432	9568
67584	10368	9328
69632	6816	6160
71680	9472	8608
73728	15952	15392
75776	15440	14800
77824	8256	7616
79872	11712	10992
81920	18160	17568
83968	12656	12080
86016	5136	4832
88064	5504	5104
90112	6032	5472
92160	6528	5888
94208	7232	6672
96256	10512	9712
98304	22976	21008
100352	17632	16336
102400	7104	6752
104448	6512	6128
106496	3744	3424
108544	3824	3376
110592	5744	5472
112640	4960	4720
114688	4016	3760
116736	4688	4304
118784	6256	5600
120832	6480	5936
122880	4272	3856
124928	3584	3392
126976	3360	3120
129024	2592	2416
131072	5200	4752
135168	6944	6496
139264	5872	5472
143360	5712	5328
147456	10448	9504
151552	7408	6704
155648	7136	6528
159744	4480	4176
163840	9184	8416
167936	4400	4160
172032	4560	4096
176128	4224	3952
180224	4640	4128
184320	4176	3824
188416	4384	4160
192512	4832	4432
196608	2992	2736
200704	4768	4400
204800	5536	5088
208896	4144	3888
212992	4304	3680
217088	3152	2976
221184	3888	3600
225280	3808	3360
229376	4608	4336
233472	3680	3456
237568	3024	2672
241664	2896	2768
245760	3152	2960
249856	2448	2256
253952	2688	2528
258048	3328	3184
262144	6240	5664
270336	5504	5072
278528	4784	4496
286720	4288	3984
294912	4512	4128
303104	5504	5136
311296	5104	4864
319488	4416	4192
327680	3824	3552
335872	3312	3072
344064	4752	4368
352256	3920	3360
360448	3472	3360
368640	4592	4160
376832	3392	2912
385024	3040	2832
393216	3584	3312
401408	3504	3200
409600	3024	2784
417792	2944	2448
425984	2736	2528
434176	2464	2320
442368	1920	1824
450560	2032	1904
458752	2384	2176
466944	2192	2064
475136	2080	1840
483328	2352	2192
491520	2112	1824
499712	2112	2016
507904	1984	1840
516096	2000	1856
524288	4896	4640
540672	14464	13984
557056	21648	20592
573440	8400	7584
589824	3888	3664
606208	4704	4416
622592	4448	4048
638976	4496	4304
655360	4960	4544
671744	5904	5696
688128	3088	2816
704512	2384	2224
720896	2000	1936
737280	1600	1488
753664	1264	1088
770048	1232	1184
786432	2192	2064
802816	1760	1552
819200	1344	1280
835584	1296	1008
851968	1184	1152
868352	1376	1248
884736	976	832
901120	800	752
917504	1232	1136
933888	1152	1104
950272	1520	1360
966656	864	736
983040	800	640
999424	1408	1312
1015808	1488	1248
1032192	816	656
1048576	1888	1728
1081344	1616	1472
1114112	1936	1776
1146880	1648	1440
1179648	1600	1440
1212416	1856	1616
1245184	2560	2288
1277952	2960	2672
1310720	2432	2144
1343488	2352	2128
1376256	2400	2032
1409024	1312	1104
1441792	1984	1744
1474560	2656	2224
1507328	816	704
1540096	1264	1136
1572864	1328	1232
1605632	1360	1328
1638400	1840	1648
1671168	2544	2240
1703936	1792	1600
1736704	1328	1152
1769472	2320	2224
1802240	976	896
1835008	1120	1072
1867776	1712	1632
1900544	2496	2320
1933312	2320	2208
1966080	832	736
1998848	720	656
2031616	1024	928
2064384	1040	928
2097152	1200	1136
2162688	1696	1536
2228224	1952	1792
2293760	1504	1392
2359296	1760	1616
2424832	1744	1568
2490368	1792	1648
2555904	1040	912
2621440	1136	1088
2686976	1312	1232
2752512	960	864
2818048	1600	1520
2883584	880	752
2949120	944	880
3014656	1104	992
3080192	832	800
3145728	976	912
3211264	928	816
3276800	720	656
3342336	752	720
3407872	1024	720
3473408	880	800
3538944	992	896
3604480	544	496
3670016	992	848
3735552	352	304
3801088	800	736
3866624	480	464
3932160	768	672
3997696	208	160
4063232	208	208
4128768	384	352
4194304	624	464
4325376	1104	1008
4456448	528	496
4587520	320	272
4718592	640	608
4849664	544	464
4980736	720	624
5111808	448	384
5242880	480	432
5373952	912	848
5505024	544	496
5636096	352	320
5767168	528	448
5898240	464	416
6029312	656	416
6160384	272	224
6291456	640	624
6422528	432	416
6553600	640	608
6684672	1024	912
6815744	736	704
6946816	624	400
7077888	752	704
7208960	320	304
7340032	416	384
7471104	288	256
7602176	544	512
7733248	592	560
7864320	512	432
7995392	608	512
8126464	720	672
8257536	480	448
8388608	1456	1376
8650752	2064	2016
8912896	1376	1248
9175040	1376	1280
9437184	2800	2336
9699328	11392	11024
9961472	3808	3584
10223616	10480	10160
10485760	2416	2208
10747904	2736	2560
11010048	3792	3552
11272192	12992	12368
11534336	14080	13616
11796480	14928	14608
12058624	8128	7856
12320768	1264	1152
12582912	1392	1328
12845056	1040	960
13107200	11744	11408
13369344	3568	3472
13631488	3280	3136
13893632	928	848
14155776	1136	1088
14417920	496	432
14680064	864	816
14942208	1328	1216
15204352	1504	1392
15466496	544	528
15728640	1680	1616
15990784	640	528
16252928	624	528
16515072	1456	1376
16777216	2576	2496
17301504	2304	2160
17825792	3056	2832
18350080	8416	8160
18874368	15008	14336
19398656	20736	20160
19922944	4912	4448
20447232	2608	2464
20971520	3360	3120
21495808	4736	4496
22020096	3168	2816
22544384	5504	5280
23068672	5456	5072
23592960	19808	19408
24117248	6080	5792
24641536	2096	1984
25165824	1872	1696
25690112	1568	1440
26214400	2064	1920
26738688	1456	1280
27262976	1728	1520
27787264	4352	4112
28311552	8544	8192
28835840	20816	20128
29360128	3536	3408
29884416	7504	7248
30408704	5488	5280
30932992	8400	8224
31457280	1312	1296
31981568	736	720
32505856	896	832
33030144	928	864
33554432	1280	1168
34603008	1328	1296
35651584	1696	1600
36700160	944	896
37748736	768	688
38797312	1696	1616
39845888	3408	3296
40894464	896	848
41943040	2464	2416
42991616	1504	1488
44040192	1488	1376
45088768	576	560
46137344	2384	2288
47185920	1696	1600
48234496	2352	2144
49283072	3024	2592
50331648	2176	1840
51380224	4496	4032
52428800	7392	7280
53477376	11136	10736
54525952	2480	2384
55574528	544	512
56623104	176	176
57671680	496	320
58720256	464	432
59768832	576	560
60817408	656	576
61865984	752	720
62914560	544	544
63963136	256	256
65011712	176	176
66060288	400	384
67108864	928	912
69206016	640	640
71303168	1136	1104
73400320	1696	1552
75497472	1584	1504
77594624	864	816
79691776	320	320
81788928	608	592
83886080	528	512
85983232	752	704
88080384	944	912
90177536	1104	1072
92274688	512	496
94371840	896	864
96468992	1312	1280
98566144	896	880
100663296	880	848
102760448	1072	1056
104857600	1200	1168
106954752	1136	1088
109051904	272	272
111149056	640	624
113246208	912	880
115343360	1040	1024
117440512	800	800
119537664	560	528
121634816	896	832
123731968	1072	1024
125829120	800	784
127926272	1120	1104
130023424	704	688
132120576	1184	1120
134217728	944	928
138412032	1808	1760
142606336	1504	1456
146800640	944	928
150994944	1792	1728
155189248	2016	1952
159383552	1040	1024
163577856	2128	2112
167772160	2208	2048
171966464	1856	1728
176160768	6224	5280
180355072	24208	22704
184549376	16576	15984
188743680	144	80
192937984	2768	2576
197132288	48	32
201326592	80	64
205520896	688	560
209715200	1312	1024
213909504	16	16
218103808	160	160
222298112	1984	1936
226492416	32	16
230686720	1840	1568
234881024	416	272
239075328	0	0
243269632	256	96
247463936	192	80
251658240	240	224
255852544	16	16
260046848	32	32
264241152	48	48
268435456	0	0
276824064	16	16
285212672	16	16
293601280	0	0
301989888	0	0
310378496	0	0
318767104	0	0
327155712	64	64
335544320	0	0
343932928	0	0
352321536	0	0
360710144	0	0
369098752	0	0
377487360	0	0
385875968	0	0
394264576	0	0
402653184	0	0
411041792	0	0
419430400	0	0
427819008	0	0
436207616	0	0
444596224	0	0
452984832	0	0
461373440	0	0
469762048	0	0
478150656	0	0
486539264	0	0
494927872	0	0
503316480	0	0
511705088	0	0
520093696	0	0
528482304	0	0
536870912	0	0
553648128	0	0
570425344	0	0
587202560	0	0
603979776	0	0
620756992	0	0
637534208	0	0
654311424	0	0
671088640	0	0
687865856	0	0
704643072	0	0
721420288	0	0
738197504	0	0
754974720	0	0
771751936	0	0
788529152	0	0
805306368	0	0
822083584	0	0
838860800	0	0
855638016	0	0
872415232	0	0
889192448	0	0
905969664	0	0
922746880	0	0
939524096	0	0
956301312	0	0
973078528	0	0
989855744	0	0
1006632960	0	0
1023410176	0	0
1040187392	0	0
1056964608	0	0
1073741824	0	0
1107296256	0	0
1140850688	0	0
1174405120	0	0
1207959552	0	0
1241513984	0	0
1275068416	0	0
1308622848	0	0
1342177280	0	0
1375731712	0	0
1409286144	0	0
1442840576	0	0
1476395008	0	0
1509949440	0	0
1543503872	0	0
1577058304	0	0
1610612736	0	0
1644167168	0	0
1677721600	0	0
1711276032	0	0
1744830464	0	0
1778384896	0	0
1811939328	0	0
1845493760	0	0
1879048192	0	0
1912602624	0	0
1946157056	0	0
1979711488	0	0
2013265920	0	0
2046820352	0	0
2080374784	0	0
2113929216	0	0
2147483648	0	0
2214592512	0	0
2281701376	0	0
2348810240	0	0
2415919104	0	0
2483027968	0	0
2550136832	0	0
2617245696	0	0
2684354560	0	0
2751463424	0	0
2818572288	0	0
2885681152	0	0
2952790016	0	0
3019898880	0	0
3087007744	0	0
3154116608	0	0
3221225472	0	0
3288334336	0	0
3355443200	0	0
3422552064	0	0
3489660928	0	0
3556769792	0	0
3623878656	0	0
3690987520	0	0
3758096384	0	0
3825205248	0	0
3892314112	0	0
3959422976	0	0
4026531840	0	0
4093640704	0	0
4160749568	0	0
4227858432	0	0
~~~~~~~~~~Reuse Distance Profiler output end~~~~~~~~~~

Sampler size:5882

DRAM Statistics
 CHANNEL 0
 RQ ROW_BUFFER_HIT:      64988  ROW_BUFFER_MISS:     531099
 DBUS AVG_CONGESTED_CYCLE:    3.85185
 WQ ROW_BUFFER_HIT:      63795  ROW_BUFFER_MISS:      41382  FULL:          0


CPU 0 Branch Prediction Accuracy: 96.5949% MPKI: 5.08792 Average ROB Occupancy at Mispredict: 101.307
Branch type MPKI
BRANCH_DIRECT_JUMP: 0.00153333
BRANCH_INDIRECT: 0.327247
BRANCH_CONDITIONAL: 4.60211
BRANCH_DIRECT_CALL: 0.00156667
BRANCH_INDIRECT_CALL: 0.1496
BRANCH_RETURN: 0.00586

