
*** ChampSim Multicore Out-of-Order Simulator ***

Warmup Instructions: 50000000
Simulation Instructions: 1500000000
Number of CPUs: 1
Off-chip DRAM Size: 4 GiB Channels: 1 Width: 64-bit Data Rate: 3200 MT/s

VirtualMemory physical capacity: 8588881920 num_ppages: 2096895
VirtualMemory page size: 4096 log2_page_size: 12

CPU 0 runs /s/traces/champsim_traces/603.bwaves_s-1080B.champsimtrace.xz
CPU 0 Bimodal branch predictor
Basic BTB sets: 1024 ways: 8 indirect buffer size: 4096 RAS size: 64
Initializing LRU.
Initializing LRU.
Initializing LRU.
Initializing LRU.
Initializing rdLRU.
Initializing LRU.
Initializing LRU.
Heartbeat CPU 0 instructions: 2000000 cycles: 535860 heartbeat IPC: 3.73232 cumulative IPC: 3.73232 (Simulation time: 0 hr 1 min 6 sec) 
Heartbeat CPU 0 instructions: 4000002 cycles: 1070483 heartbeat IPC: 3.74096 cumulative IPC: 3.73663 (Simulation time: 0 hr 2 min 16 sec) 
Heartbeat CPU 0 instructions: 6000002 cycles: 1607807 heartbeat IPC: 3.72215 cumulative IPC: 3.73179 (Simulation time: 0 hr 3 min 23 sec) 
Heartbeat CPU 0 instructions: 8000002 cycles: 2119991 heartbeat IPC: 3.90485 cumulative IPC: 3.7736 (Simulation time: 0 hr 4 min 26 sec) 
Heartbeat CPU 0 instructions: 10000002 cycles: 2619991 heartbeat IPC: 4 cumulative IPC: 3.81681 (Simulation time: 0 hr 5 min 31 sec) 
Heartbeat CPU 0 instructions: 12000002 cycles: 3119991 heartbeat IPC: 4 cumulative IPC: 3.84617 (Simulation time: 0 hr 6 min 33 sec) 
Heartbeat CPU 0 instructions: 14000002 cycles: 3619991 heartbeat IPC: 4 cumulative IPC: 3.86741 (Simulation time: 0 hr 7 min 37 sec) 
Heartbeat CPU 0 instructions: 16000000 cycles: 4130386 heartbeat IPC: 3.91853 cumulative IPC: 3.87373 (Simulation time: 0 hr 8 min 39 sec) 
Heartbeat CPU 0 instructions: 18000000 cycles: 4665372 heartbeat IPC: 3.73842 cumulative IPC: 3.85821 (Simulation time: 0 hr 9 min 45 sec) 
Heartbeat CPU 0 instructions: 20000003 cycles: 5202843 heartbeat IPC: 3.72114 cumulative IPC: 3.84405 (Simulation time: 0 hr 10 min 51 sec) 
Heartbeat CPU 0 instructions: 22000000 cycles: 5740306 heartbeat IPC: 3.72118 cumulative IPC: 3.83255 (Simulation time: 0 hr 11 min 56 sec) 
Heartbeat CPU 0 instructions: 24000001 cycles: 6276470 heartbeat IPC: 3.7302 cumulative IPC: 3.82381 (Simulation time: 0 hr 13 min 5 sec) 
Heartbeat CPU 0 instructions: 26000003 cycles: 6813244 heartbeat IPC: 3.72597 cumulative IPC: 3.8161 (Simulation time: 0 hr 14 min 14 sec) 
Heartbeat CPU 0 instructions: 28000003 cycles: 7350314 heartbeat IPC: 3.72391 cumulative IPC: 3.80936 (Simulation time: 0 hr 15 min 23 sec) 
Heartbeat CPU 0 instructions: 30000003 cycles: 7887804 heartbeat IPC: 3.721 cumulative IPC: 3.80334 (Simulation time: 0 hr 16 min 34 sec) 
Heartbeat CPU 0 instructions: 32000001 cycles: 8422546 heartbeat IPC: 3.74012 cumulative IPC: 3.79933 (Simulation time: 0 hr 17 min 43 sec) 
Heartbeat CPU 0 instructions: 34000002 cycles: 8960256 heartbeat IPC: 3.71948 cumulative IPC: 3.79453 (Simulation time: 0 hr 18 min 51 sec) 
Heartbeat CPU 0 instructions: 36000003 cycles: 9497245 heartbeat IPC: 3.72447 cumulative IPC: 3.79057 (Simulation time: 0 hr 19 min 58 sec) 
Heartbeat CPU 0 instructions: 38000003 cycles: 10033886 heartbeat IPC: 3.72689 cumulative IPC: 3.78717 (Simulation time: 0 hr 21 min 7 sec) 
Heartbeat CPU 0 instructions: 40000002 cycles: 10570130 heartbeat IPC: 3.72964 cumulative IPC: 3.78425 (Simulation time: 0 hr 22 min 15 sec) 
Heartbeat CPU 0 instructions: 42000002 cycles: 11107728 heartbeat IPC: 3.72025 cumulative IPC: 3.78115 (Simulation time: 0 hr 23 min 22 sec) 
Heartbeat CPU 0 instructions: 44000004 cycles: 11644647 heartbeat IPC: 3.72496 cumulative IPC: 3.77856 (Simulation time: 0 hr 24 min 30 sec) 
Heartbeat CPU 0 instructions: 46000000 cycles: 12179959 heartbeat IPC: 3.73613 cumulative IPC: 3.7767 (Simulation time: 0 hr 25 min 38 sec) 
Heartbeat CPU 0 instructions: 48000001 cycles: 12717676 heartbeat IPC: 3.71943 cumulative IPC: 3.77427 (Simulation time: 0 hr 26 min 44 sec) 
Heartbeat CPU 0 instructions: 50000001 cycles: 13250572 heartbeat IPC: 3.75308 cumulative IPC: 3.77342 (Simulation time: 0 hr 27 min 47 sec) 

Warmup complete CPU 0 instructions: 50000001 cycles: 13250572 (Simulation time: 0 hr 27 min 47 sec) 

Heartbeat CPU 0 instructions: 52000003 cycles: 14440898 heartbeat IPC: 1.68021 cumulative IPC: 1.68021 (Simulation time: 0 hr 28 min 41 sec) 

Region of Interest Statistics
cpu0_DTLB TOTAL     ACCESS:     312718  HIT:     312718  MISS:          0
cpu0_DTLB LOAD      ACCESS:     270856  HIT:     270856  MISS:          0
cpu0_DTLB RFO       ACCESS:      41862  HIT:      41862  MISS:          0
cpu0_DTLB PREFETCH  ACCESS:          0  HIT:          0  MISS:          0
cpu0_DTLB WRITEBACK ACCESS:          0  HIT:          0  MISS:          0
cpu0_ITLB TOTAL     ACCESS:     239888  HIT:     239888  MISS:          0
cpu0_ITLB LOAD      ACCESS:     239888  HIT:     239888  MISS:          0
cpu0_ITLB RFO       ACCESS:          0  HIT:          0  MISS:          0
cpu0_ITLB PREFETCH  ACCESS:          0  HIT:          0  MISS:          0
cpu0_ITLB WRITEBACK ACCESS:          0  HIT:          0  MISS:          0
cpu0_L1I TOTAL     ACCESS:       9694  HIT:       9694  MISS:          0
cpu0_L1I LOAD      ACCESS:       9694  HIT:       9694  MISS:          0
cpu0_L1I RFO       ACCESS:          0  HIT:          0  MISS:          0
cpu0_L1I PREFETCH  ACCESS:          0  HIT:          0  MISS:          0
cpu0_L1I WRITEBACK ACCESS:          0  HIT:          0  MISS:          0
cpu0_L1D TOTAL     ACCESS:     330592  HIT:     330577  MISS:         15
cpu0_L1D LOAD      ACCESS:     261388  HIT:     261388  MISS:          0
cpu0_L1D RFO       ACCESS:      69204  HIT:      69189  MISS:         15
cpu0_L1D PREFETCH  ACCESS:          0  HIT:          0  MISS:          0
cpu0_L1D WRITEBACK ACCESS:          0  HIT:          0  MISS:          0
cpu0_L2C TOTAL     ACCESS:         30  HIT:         21  MISS:          9
cpu0_L2C LOAD      ACCESS:          0  HIT:          0  MISS:          0
cpu0_L2C RFO       ACCESS:         15  HIT:          6  MISS:          9
cpu0_L2C PREFETCH  ACCESS:          0  HIT:          0  MISS:          0
cpu0_L2C WRITEBACK ACCESS:         15  HIT:         15  MISS:          0
LLC TOTAL     ACCESS:         18  HIT:          9  MISS:          9
LLC LOAD      ACCESS:          0  HIT:          0  MISS:          0
LLC RFO       ACCESS:          9  HIT:          0  MISS:          9
LLC PREFETCH  ACCESS:          0  HIT:          0  MISS:          0
LLC WRITEBACK ACCESS:          9  HIT:          9  MISS:          0
Heartbeat CPU 0 instructions: 54000001 cycles: 15631125 heartbeat IPC: 1.68035 cumulative IPC: 1.68028 (Simulation time: 0 hr 29 min 35 sec) 

Region of Interest Statistics
cpu0_DTLB TOTAL     ACCESS:     625116  HIT:     625116  MISS:          0
cpu0_DTLB LOAD      ACCESS:     541760  HIT:     541760  MISS:          0
cpu0_DTLB RFO       ACCESS:      83356  HIT:      83356  MISS:          0
cpu0_DTLB PREFETCH  ACCESS:          0  HIT:          0  MISS:          0
cpu0_DTLB WRITEBACK ACCESS:          0  HIT:          0  MISS:          0
cpu0_ITLB TOTAL     ACCESS:     480864  HIT:     480864  MISS:          0
cpu0_ITLB LOAD      ACCESS:     480864  HIT:     480864  MISS:          0
cpu0_ITLB RFO       ACCESS:          0  HIT:          0  MISS:          0
cpu0_ITLB PREFETCH  ACCESS:          0  HIT:          0  MISS:          0
cpu0_ITLB WRITEBACK ACCESS:          0  HIT:          0  MISS:          0
cpu0_L1I TOTAL     ACCESS:      19184  HIT:      19184  MISS:          0
cpu0_L1I LOAD      ACCESS:      19184  HIT:      19184  MISS:          0
cpu0_L1I RFO       ACCESS:          0  HIT:          0  MISS:          0
cpu0_L1I PREFETCH  ACCESS:          0  HIT:          0  MISS:          0
cpu0_L1I WRITEBACK ACCESS:          0  HIT:          0  MISS:          0
cpu0_L1D TOTAL     ACCESS:     658989  HIT:     658962  MISS:         27
cpu0_L1D LOAD      ACCESS:     521656  HIT:     521654  MISS:          2
cpu0_L1D RFO       ACCESS:     137333  HIT:     137308  MISS:         25
cpu0_L1D PREFETCH  ACCESS:          0  HIT:          0  MISS:          0
cpu0_L1D WRITEBACK ACCESS:          0  HIT:          0  MISS:          0
cpu0_L2C TOTAL     ACCESS:         54  HIT:         33  MISS:         21
cpu0_L2C LOAD      ACCESS:          2  HIT:          0  MISS:          2
cpu0_L2C RFO       ACCESS:         25  HIT:          6  MISS:         19
cpu0_L2C PREFETCH  ACCESS:          0  HIT:          0  MISS:          0
cpu0_L2C WRITEBACK ACCESS:         27  HIT:         27  MISS:          0
LLC TOTAL     ACCESS:         42  HIT:         21  MISS:         21
LLC LOAD      ACCESS:          2  HIT:          0  MISS:          2
LLC RFO       ACCESS:         19  HIT:          0  MISS:         19
LLC PREFETCH  ACCESS:          0  HIT:          0  MISS:          0
LLC WRITEBACK ACCESS:         21  HIT:         21  MISS:          0
Heartbeat CPU 0 instructions: 56000001 cycles: 16817131 heartbeat IPC: 1.68633 cumulative IPC: 1.68229 (Simulation time: 0 hr 30 min 31 sec) 

Region of Interest Statistics
cpu0_DTLB TOTAL     ACCESS:     938891  HIT:     938891  MISS:          0
cpu0_DTLB LOAD      ACCESS:     815042  HIT:     815042  MISS:          0
cpu0_DTLB RFO       ACCESS:     123849  HIT:     123849  MISS:          0
cpu0_DTLB PREFETCH  ACCESS:          0  HIT:          0  MISS:          0
cpu0_DTLB WRITEBACK ACCESS:          0  HIT:          0  MISS:          0
cpu0_ITLB TOTAL     ACCESS:     722672  HIT:     722672  MISS:          0
cpu0_ITLB LOAD      ACCESS:     722672  HIT:     722672  MISS:          0
cpu0_ITLB RFO       ACCESS:          0  HIT:          0  MISS:          0
cpu0_ITLB PREFETCH  ACCESS:          0  HIT:          0  MISS:          0
cpu0_ITLB WRITEBACK ACCESS:          0  HIT:          0  MISS:          0
cpu0_L1I TOTAL     ACCESS:      27375  HIT:      27375  MISS:          0
cpu0_L1I LOAD      ACCESS:      27375  HIT:      27375  MISS:          0
cpu0_L1I RFO       ACCESS:          0  HIT:          0  MISS:          0
cpu0_L1I PREFETCH  ACCESS:          0  HIT:          0  MISS:          0
cpu0_L1I WRITEBACK ACCESS:          0  HIT:          0  MISS:          0
cpu0_L1D TOTAL     ACCESS:     985380  HIT:     985346  MISS:         34
cpu0_L1D LOAD      ACCESS:     782217  HIT:     782215  MISS:          2
cpu0_L1D RFO       ACCESS:     203163  HIT:     203131  MISS:         32
cpu0_L1D PREFETCH  ACCESS:          0  HIT:          0  MISS:          0
cpu0_L1D WRITEBACK ACCESS:          0  HIT:          0  MISS:          0
cpu0_L2C TOTAL     ACCESS:         68  HIT:         40  MISS:         28
cpu0_L2C LOAD      ACCESS:          2  HIT:          0  MISS:          2
cpu0_L2C RFO       ACCESS:         32  HIT:          6  MISS:         26
cpu0_L2C PREFETCH  ACCESS:          0  HIT:          0  MISS:          0
cpu0_L2C WRITEBACK ACCESS:         34  HIT:         34  MISS:          0
LLC TOTAL     ACCESS:         56  HIT:         28  MISS:         28
LLC LOAD      ACCESS:          2  HIT:          0  MISS:          2
LLC RFO       ACCESS:         26  HIT:          0  MISS:         26
LLC PREFETCH  ACCESS:          0  HIT:          0  MISS:          0
LLC WRITEBACK ACCESS:         28  HIT:         28  MISS:          0
Heartbeat CPU 0 instructions: 58000002 cycles: 18007527 heartbeat IPC: 1.68011 cumulative IPC: 1.68175 (Simulation time: 0 hr 31 min 26 sec) 

Region of Interest Statistics
cpu0_DTLB TOTAL     ACCESS:    1251713  HIT:    1251713  MISS:          0
cpu0_DTLB LOAD      ACCESS:    1086103  HIT:    1086103  MISS:          0
cpu0_DTLB RFO       ACCESS:     165610  HIT:     165610  MISS:          0
cpu0_DTLB PREFETCH  ACCESS:          0  HIT:          0  MISS:          0
cpu0_DTLB WRITEBACK ACCESS:          0  HIT:          0  MISS:          0
cpu0_ITLB TOTAL     ACCESS:     962784  HIT:     962784  MISS:          0
cpu0_ITLB LOAD      ACCESS:     962784  HIT:     962784  MISS:          0
cpu0_ITLB RFO       ACCESS:          0  HIT:          0  MISS:          0
cpu0_ITLB PREFETCH  ACCESS:          0  HIT:          0  MISS:          0
cpu0_ITLB WRITEBACK ACCESS:          0  HIT:          0  MISS:          0
cpu0_L1I TOTAL     ACCESS:      37036  HIT:      37036  MISS:          0
cpu0_L1I LOAD      ACCESS:      37036  HIT:      37036  MISS:          0
cpu0_L1I RFO       ACCESS:          0  HIT:          0  MISS:          0
cpu0_L1I PREFETCH  ACCESS:          0  HIT:          0  MISS:          0
cpu0_L1I WRITEBACK ACCESS:          0  HIT:          0  MISS:          0
cpu0_L1D TOTAL     ACCESS:    1315619  HIT:    1315575  MISS:         44
cpu0_L1D LOAD      ACCESS:    1043453  HIT:    1043450  MISS:          3
cpu0_L1D RFO       ACCESS:     272166  HIT:     272125  MISS:         41
cpu0_L1D PREFETCH  ACCESS:          0  HIT:          0  MISS:          0
cpu0_L1D WRITEBACK ACCESS:          0  HIT:          0  MISS:          0
cpu0_L2C TOTAL     ACCESS:         88  HIT:         50  MISS:         38
cpu0_L2C LOAD      ACCESS:          3  HIT:          0  MISS:          3
cpu0_L2C RFO       ACCESS:         41  HIT:          6  MISS:         35
cpu0_L2C PREFETCH  ACCESS:          0  HIT:          0  MISS:          0
cpu0_L2C WRITEBACK ACCESS:         44  HIT:         44  MISS:          0
LLC TOTAL     ACCESS:         76  HIT:         38  MISS:         38
LLC LOAD      ACCESS:          3  HIT:          0  MISS:          3
LLC RFO       ACCESS:         35  HIT:          0  MISS:         35
LLC PREFETCH  ACCESS:          0  HIT:          0  MISS:          0
LLC WRITEBACK ACCESS:         38  HIT:         38  MISS:          0
Heartbeat CPU 0 instructions: 60000000 cycles: 19196808 heartbeat IPC: 1.68169 cumulative IPC: 1.68174 (Simulation time: 0 hr 32 min 15 sec) 

Region of Interest Statistics
cpu0_DTLB TOTAL     ACCESS:    1564033  HIT:    1564033  MISS:          0
cpu0_DTLB LOAD      ACCESS:    1356865  HIT:    1356865  MISS:          0
cpu0_DTLB RFO       ACCESS:     207168  HIT:     207168  MISS:          0
cpu0_DTLB PREFETCH  ACCESS:          0  HIT:          0  MISS:          0
cpu0_DTLB WRITEBACK ACCESS:          0  HIT:          0  MISS:          0
cpu0_ITLB TOTAL     ACCESS:    1203463  HIT:    1203463  MISS:          0
cpu0_ITLB LOAD      ACCESS:    1203463  HIT:    1203463  MISS:          0
cpu0_ITLB RFO       ACCESS:          0  HIT:          0  MISS:          0
cpu0_ITLB PREFETCH  ACCESS:          0  HIT:          0  MISS:          0
cpu0_ITLB WRITEBACK ACCESS:          0  HIT:          0  MISS:          0
cpu0_L1I TOTAL     ACCESS:      46570  HIT:      46570  MISS:          0
cpu0_L1I LOAD      ACCESS:      46570  HIT:      46570  MISS:          0
cpu0_L1I RFO       ACCESS:          0  HIT:          0  MISS:          0
cpu0_L1I PREFETCH  ACCESS:          0  HIT:          0  MISS:          0
cpu0_L1I WRITEBACK ACCESS:          0  HIT:          0  MISS:          0
cpu0_L1D TOTAL     ACCESS:    1644597  HIT:    1644543  MISS:         54
cpu0_L1D LOAD      ACCESS:    1304055  HIT:    1304051  MISS:          4
cpu0_L1D RFO       ACCESS:     340542  HIT:     340492  MISS:         50
cpu0_L1D PREFETCH  ACCESS:          0  HIT:          0  MISS:          0
cpu0_L1D WRITEBACK ACCESS:          0  HIT:          0  MISS:          0
cpu0_L2C TOTAL     ACCESS:        108  HIT:         60  MISS:         48
cpu0_L2C LOAD      ACCESS:          4  HIT:          0  MISS:          4
cpu0_L2C RFO       ACCESS:         50  HIT:          6  MISS:         44
cpu0_L2C PREFETCH  ACCESS:          0  HIT:          0  MISS:          0
cpu0_L2C WRITEBACK ACCESS:         54  HIT:         54  MISS:          0
LLC TOTAL     ACCESS:         96  HIT:         48  MISS:         48
LLC LOAD      ACCESS:          4  HIT:          0  MISS:          4
LLC RFO       ACCESS:         44  HIT:          0  MISS:         44
LLC PREFETCH  ACCESS:          0  HIT:          0  MISS:          0
LLC WRITEBACK ACCESS:         48  HIT:         48  MISS:          0
Heartbeat CPU 0 instructions: 62000002 cycles: 20381245 heartbeat IPC: 1.68857 cumulative IPC: 1.68287 (Simulation time: 0 hr 32 min 48 sec) 

Region of Interest Statistics
cpu0_DTLB TOTAL     ACCESS:    1876623  HIT:    1876623  MISS:          0
cpu0_DTLB LOAD      ACCESS:    1628763  HIT:    1628763  MISS:          0
cpu0_DTLB RFO       ACCESS:     247860  HIT:     247860  MISS:          0
cpu0_DTLB PREFETCH  ACCESS:          0  HIT:          0  MISS:          0
cpu0_DTLB WRITEBACK ACCESS:          0  HIT:          0  MISS:          0
cpu0_ITLB TOTAL     ACCESS:    1445045  HIT:    1445045  MISS:          0
cpu0_ITLB LOAD      ACCESS:    1445045  HIT:    1445045  MISS:          0
cpu0_ITLB RFO       ACCESS:          0  HIT:          0  MISS:          0
cpu0_ITLB PREFETCH  ACCESS:          0  HIT:          0  MISS:          0
cpu0_ITLB WRITEBACK ACCESS:          0  HIT:          0  MISS:          0
cpu0_L1I TOTAL     ACCESS:      55379  HIT:      55379  MISS:          0
cpu0_L1I LOAD      ACCESS:      55379  HIT:      55379  MISS:          0
cpu0_L1I RFO       ACCESS:          0  HIT:          0  MISS:          0
cpu0_L1I PREFETCH  ACCESS:          0  HIT:          0  MISS:          0
cpu0_L1I WRITEBACK ACCESS:          0  HIT:          0  MISS:          0
cpu0_L1D TOTAL     ACCESS:    1970926  HIT:    1970862  MISS:         64
cpu0_L1D LOAD      ACCESS:    1564002  HIT:    1563997  MISS:          5
cpu0_L1D RFO       ACCESS:     406924  HIT:     406865  MISS:         59
cpu0_L1D PREFETCH  ACCESS:          0  HIT:          0  MISS:          0
cpu0_L1D WRITEBACK ACCESS:          0  HIT:          0  MISS:          0
cpu0_L2C TOTAL     ACCESS:        128  HIT:         70  MISS:         58
cpu0_L2C LOAD      ACCESS:          5  HIT:          0  MISS:          5
cpu0_L2C RFO       ACCESS:         59  HIT:          6  MISS:         53
cpu0_L2C PREFETCH  ACCESS:          0  HIT:          0  MISS:          0
cpu0_L2C WRITEBACK ACCESS:         64  HIT:         64  MISS:          0
LLC TOTAL     ACCESS:        116  HIT:         58  MISS:         58
LLC LOAD      ACCESS:          5  HIT:          0  MISS:          5
LLC RFO       ACCESS:         53  HIT:          0  MISS:         53
LLC PREFETCH  ACCESS:          0  HIT:          0  MISS:          0
LLC WRITEBACK ACCESS:         58  HIT:         58  MISS:          0
Heartbeat CPU 0 instructions: 64000004 cycles: 21573782 heartbeat IPC: 1.6771 cumulative IPC: 1.68204 (Simulation time: 0 hr 33 min 27 sec) 

Region of Interest Statistics
cpu0_DTLB TOTAL     ACCESS:    2190703  HIT:    2190703  MISS:          0
cpu0_DTLB LOAD      ACCESS:    1901343  HIT:    1901343  MISS:          0
cpu0_DTLB RFO       ACCESS:     289360  HIT:     289360  MISS:          0
cpu0_DTLB PREFETCH  ACCESS:          0  HIT:          0  MISS:          0
cpu0_DTLB WRITEBACK ACCESS:          0  HIT:          0  MISS:          0
cpu0_ITLB TOTAL     ACCESS:    1685686  HIT:    1685686  MISS:          0
cpu0_ITLB LOAD      ACCESS:    1685686  HIT:    1685686  MISS:          0
cpu0_ITLB RFO       ACCESS:          0  HIT:          0  MISS:          0
cpu0_ITLB PREFETCH  ACCESS:          0  HIT:          0  MISS:          0
cpu0_ITLB WRITEBACK ACCESS:          0  HIT:          0  MISS:          0
cpu0_L1I TOTAL     ACCESS:      64391  HIT:      64391  MISS:          0
cpu0_L1I LOAD      ACCESS:      64391  HIT:      64391  MISS:          0
cpu0_L1I RFO       ACCESS:          0  HIT:          0  MISS:          0
cpu0_L1I PREFETCH  ACCESS:          0  HIT:          0  MISS:          0
cpu0_L1I WRITEBACK ACCESS:          0  HIT:          0  MISS:          0
cpu0_L1D TOTAL     ACCESS:    2300622  HIT:    2300552  MISS:         70
cpu0_L1D LOAD      ACCESS:    1825499  HIT:    1825494  MISS:          5
cpu0_L1D RFO       ACCESS:     475123  HIT:     475058  MISS:         65
cpu0_L1D PREFETCH  ACCESS:          0  HIT:          0  MISS:          0
cpu0_L1D WRITEBACK ACCESS:          0  HIT:          0  MISS:          0
cpu0_L2C TOTAL     ACCESS:        140  HIT:         76  MISS:         64
cpu0_L2C LOAD      ACCESS:          5  HIT:          0  MISS:          5
cpu0_L2C RFO       ACCESS:         65  HIT:          6  MISS:         59
cpu0_L2C PREFETCH  ACCESS:          0  HIT:          0  MISS:          0
cpu0_L2C WRITEBACK ACCESS:         70  HIT:         70  MISS:          0
LLC TOTAL     ACCESS:        128  HIT:         64  MISS:         64
LLC LOAD      ACCESS:          5  HIT:          0  MISS:          5
LLC RFO       ACCESS:         59  HIT:          0  MISS:         59
LLC PREFETCH  ACCESS:          0  HIT:          0  MISS:          0
LLC WRITEBACK ACCESS:         64  HIT:         64  MISS:          0
Heartbeat CPU 0 instructions: 66000003 cycles: 22765235 heartbeat IPC: 1.67862 cumulative IPC: 1.68162 (Simulation time: 0 hr 34 min 11 sec) 

Region of Interest Statistics
cpu0_DTLB TOTAL     ACCESS:    2503142  HIT:    2503141  MISS:          1
cpu0_DTLB LOAD      ACCESS:    2171991  HIT:    2171991  MISS:          0
cpu0_DTLB RFO       ACCESS:     331151  HIT:     331150  MISS:          1
cpu0_DTLB PREFETCH  ACCESS:          0  HIT:          0  MISS:          0
cpu0_DTLB WRITEBACK ACCESS:          0  HIT:          0  MISS:          0
cpu0_ITLB TOTAL     ACCESS:    1925989  HIT:    1925989  MISS:          0
cpu0_ITLB LOAD      ACCESS:    1925989  HIT:    1925989  MISS:          0
cpu0_ITLB RFO       ACCESS:          0  HIT:          0  MISS:          0
cpu0_ITLB PREFETCH  ACCESS:          0  HIT:          0  MISS:          0
cpu0_ITLB WRITEBACK ACCESS:          0  HIT:          0  MISS:          0
cpu0_L1I TOTAL     ACCESS:      74023  HIT:      74023  MISS:          0
cpu0_L1I LOAD      ACCESS:      74023  HIT:      74023  MISS:          0
cpu0_L1I RFO       ACCESS:          0  HIT:          0  MISS:          0
cpu0_L1I PREFETCH  ACCESS:          0  HIT:          0  MISS:          0
cpu0_L1I WRITEBACK ACCESS:          0  HIT:          0  MISS:          0
cpu0_STLB TOTAL     ACCESS:          1  HIT:          0  MISS:          1
cpu0_STLB LOAD      ACCESS:          0  HIT:          0  MISS:          0
cpu0_STLB RFO       ACCESS:          1  HIT:          0  MISS:          1
cpu0_STLB PREFETCH  ACCESS:          0  HIT:          0  MISS:          0
cpu0_STLB WRITEBACK ACCESS:          0  HIT:          0  MISS:          0
cpu0_L1D TOTAL     ACCESS:    2630451  HIT:    2630369  MISS:         82
cpu0_L1D LOAD      ACCESS:    2086344  HIT:    2086337  MISS:          7
cpu0_L1D RFO       ACCESS:     544106  HIT:     544031  MISS:         75
cpu0_L1D PREFETCH  ACCESS:          0  HIT:          0  MISS:          0
cpu0_L1D WRITEBACK ACCESS:          0  HIT:          0  MISS:          0
cpu0_L2C TOTAL     ACCESS:        164  HIT:         88  MISS:         76
cpu0_L2C LOAD      ACCESS:          7  HIT:          0  MISS:          7
cpu0_L2C RFO       ACCESS:         75  HIT:          6  MISS:         69
cpu0_L2C PREFETCH  ACCESS:          0  HIT:          0  MISS:          0
cpu0_L2C WRITEBACK ACCESS:         82  HIT:         82  MISS:          0
LLC TOTAL     ACCESS:        152  HIT:         76  MISS:         76
LLC LOAD      ACCESS:          7  HIT:          0  MISS:          7
LLC RFO       ACCESS:         69  HIT:          0  MISS:         69
LLC PREFETCH  ACCESS:          0  HIT:          0  MISS:          0
LLC WRITEBACK ACCESS:         76  HIT:         76  MISS:          0
Heartbeat CPU 0 instructions: 68000003 cycles: 23955341 heartbeat IPC: 1.68052 cumulative IPC: 1.68149 (Simulation time: 0 hr 34 min 45 sec) 

Region of Interest Statistics
cpu0_DTLB TOTAL     ACCESS:    2815778  HIT:    2815776  MISS:          2
cpu0_DTLB LOAD      ACCESS:    2443449  HIT:    2443449  MISS:          0
cpu0_DTLB RFO       ACCESS:     372329  HIT:     372327  MISS:          2
cpu0_DTLB PREFETCH  ACCESS:          0  HIT:          0  MISS:          0
cpu0_DTLB WRITEBACK ACCESS:          0  HIT:          0  MISS:          0
cpu0_ITLB TOTAL     ACCESS:    2167646  HIT:    2167646  MISS:          0
cpu0_ITLB LOAD      ACCESS:    2167646  HIT:    2167646  MISS:          0
cpu0_ITLB RFO       ACCESS:          0  HIT:          0  MISS:          0
cpu0_ITLB PREFETCH  ACCESS:          0  HIT:          0  MISS:          0
cpu0_ITLB WRITEBACK ACCESS:          0  HIT:          0  MISS:          0
cpu0_L1I TOTAL     ACCESS:      83381  HIT:      83381  MISS:          0
cpu0_L1I LOAD      ACCESS:      83381  HIT:      83381  MISS:          0
cpu0_L1I RFO       ACCESS:          0  HIT:          0  MISS:          0
cpu0_L1I PREFETCH  ACCESS:          0  HIT:          0  MISS:          0
cpu0_L1I WRITEBACK ACCESS:          0  HIT:          0  MISS:          0
cpu0_STLB TOTAL     ACCESS:          2  HIT:          0  MISS:          2
cpu0_STLB LOAD      ACCESS:          0  HIT:          0  MISS:          0
cpu0_STLB RFO       ACCESS:          2  HIT:          0  MISS:          2
cpu0_STLB PREFETCH  ACCESS:          0  HIT:          0  MISS:          0
cpu0_STLB WRITEBACK ACCESS:          0  HIT:          0  MISS:          0
cpu0_L1D TOTAL     ACCESS:    2956940  HIT:    2956848  MISS:         92
cpu0_L1D LOAD      ACCESS:    2345475  HIT:    2345468  MISS:          7
cpu0_L1D RFO       ACCESS:     611463  HIT:     611378  MISS:         85
cpu0_L1D PREFETCH  ACCESS:          0  HIT:          0  MISS:          0
cpu0_L1D WRITEBACK ACCESS:          0  HIT:          0  MISS:          0
cpu0_L2C TOTAL     ACCESS:        184  HIT:         98  MISS:         86
cpu0_L2C LOAD      ACCESS:          7  HIT:          0  MISS:          7
cpu0_L2C RFO       ACCESS:         85  HIT:          6  MISS:         79
cpu0_L2C PREFETCH  ACCESS:          0  HIT:          0  MISS:          0
cpu0_L2C WRITEBACK ACCESS:         92  HIT:         92  MISS:          0
LLC TOTAL     ACCESS:        166  HIT:         80  MISS:         86
LLC LOAD      ACCESS:          7  HIT:          0  MISS:          7
LLC RFO       ACCESS:         79  HIT:          0  MISS:         79
LLC PREFETCH  ACCESS:          0  HIT:          0  MISS:          0
LLC WRITEBACK ACCESS:         80  HIT:         80  MISS:          0
Heartbeat CPU 0 instructions: 70000001 cycles: 25136757 heartbeat IPC: 1.69288 cumulative IPC: 1.68263 (Simulation time: 0 hr 35 min 18 sec) 

Region of Interest Statistics
cpu0_DTLB TOTAL     ACCESS:    3128556  HIT:    3128554  MISS:          2
cpu0_DTLB LOAD      ACCESS:    2715471  HIT:    2715471  MISS:          0
cpu0_DTLB RFO       ACCESS:     413085  HIT:     413083  MISS:          2
cpu0_DTLB PREFETCH  ACCESS:          0  HIT:          0  MISS:          0
cpu0_DTLB WRITEBACK ACCESS:          0  HIT:          0  MISS:          0
cpu0_ITLB TOTAL     ACCESS:    2408305  HIT:    2408305  MISS:          0
cpu0_ITLB LOAD      ACCESS:    2408305  HIT:    2408305  MISS:          0
cpu0_ITLB RFO       ACCESS:          0  HIT:          0  MISS:          0
cpu0_ITLB PREFETCH  ACCESS:          0  HIT:          0  MISS:          0
cpu0_ITLB WRITEBACK ACCESS:          0  HIT:          0  MISS:          0
cpu0_L1I TOTAL     ACCESS:      91984  HIT:      91984  MISS:          0
cpu0_L1I LOAD      ACCESS:      91984  HIT:      91984  MISS:          0
cpu0_L1I RFO       ACCESS:          0  HIT:          0  MISS:          0
cpu0_L1I PREFETCH  ACCESS:          0  HIT:          0  MISS:          0
cpu0_L1I WRITEBACK ACCESS:          0  HIT:          0  MISS:          0
cpu0_STLB TOTAL     ACCESS:          2  HIT:          0  MISS:          2
cpu0_STLB LOAD      ACCESS:          0  HIT:          0  MISS:          0
cpu0_STLB RFO       ACCESS:          2  HIT:          0  MISS:          2
cpu0_STLB PREFETCH  ACCESS:          0  HIT:          0  MISS:          0
cpu0_STLB WRITEBACK ACCESS:          0  HIT:          0  MISS:          0
cpu0_L1D TOTAL     ACCESS:    3285722  HIT:    3285623  MISS:         99
cpu0_L1D LOAD      ACCESS:    2607485  HIT:    2607477  MISS:          8
cpu0_L1D RFO       ACCESS:     678235  HIT:     678144  MISS:         91
cpu0_L1D PREFETCH  ACCESS:          0  HIT:          0  MISS:          0
cpu0_L1D WRITEBACK ACCESS:          0  HIT:          0  MISS:          0
cpu0_L2C TOTAL     ACCESS:        198  HIT:        105  MISS:         93
cpu0_L2C LOAD      ACCESS:          8  HIT:          0  MISS:          8
cpu0_L2C RFO       ACCESS:         91  HIT:          6  MISS:         85
cpu0_L2C PREFETCH  ACCESS:          0  HIT:          0  MISS:          0
cpu0_L2C WRITEBACK ACCESS:         99  HIT:         99  MISS:          0
LLC TOTAL     ACCESS:        177  HIT:         84  MISS:         93
LLC LOAD      ACCESS:          8  HIT:          0  MISS:          8
LLC RFO       ACCESS:         85  HIT:          0  MISS:         85
LLC PREFETCH  ACCESS:          0  HIT:          0  MISS:          0
LLC WRITEBACK ACCESS:         84  HIT:         84  MISS:          0
Heartbeat CPU 0 instructions: 72000003 cycles: 26330990 heartbeat IPC: 1.67472 cumulative IPC: 1.6819 (Simulation time: 0 hr 36 min 3 sec) 

Region of Interest Statistics
cpu0_DTLB TOTAL     ACCESS:    3442380  HIT:    3442378  MISS:          2
cpu0_DTLB LOAD      ACCESS:    2987461  HIT:    2987461  MISS:          0
cpu0_DTLB RFO       ACCESS:     454919  HIT:     454917  MISS:          2
cpu0_DTLB PREFETCH  ACCESS:          0  HIT:          0  MISS:          0
cpu0_DTLB WRITEBACK ACCESS:          0  HIT:          0  MISS:          0
cpu0_ITLB TOTAL     ACCESS:    2648584  HIT:    2648584  MISS:          0
cpu0_ITLB LOAD      ACCESS:    2648584  HIT:    2648584  MISS:          0
cpu0_ITLB RFO       ACCESS:          0  HIT:          0  MISS:          0
cpu0_ITLB PREFETCH  ACCESS:          0  HIT:          0  MISS:          0
cpu0_ITLB WRITEBACK ACCESS:          0  HIT:          0  MISS:          0
cpu0_L1I TOTAL     ACCESS:     101406  HIT:     101406  MISS:          0
cpu0_L1I LOAD      ACCESS:     101406  HIT:     101406  MISS:          0
cpu0_L1I RFO       ACCESS:          0  HIT:          0  MISS:          0
cpu0_L1I PREFETCH  ACCESS:          0  HIT:          0  MISS:          0
cpu0_L1I WRITEBACK ACCESS:          0  HIT:          0  MISS:          0
cpu0_STLB TOTAL     ACCESS:          2  HIT:          0  MISS:          2
cpu0_STLB LOAD      ACCESS:          0  HIT:          0  MISS:          0
cpu0_STLB RFO       ACCESS:          2  HIT:          0  MISS:          2
cpu0_STLB PREFETCH  ACCESS:          0  HIT:          0  MISS:          0
cpu0_STLB WRITEBACK ACCESS:          0  HIT:          0  MISS:          0
cpu0_L1D TOTAL     ACCESS:    3616144  HIT:    3616035  MISS:        109
cpu0_L1D LOAD      ACCESS:    2868929  HIT:    2868920  MISS:          9
cpu0_L1D RFO       ACCESS:     747213  HIT:     747113  MISS:        100
cpu0_L1D PREFETCH  ACCESS:          0  HIT:          0  MISS:          0
cpu0_L1D WRITEBACK ACCESS:          0  HIT:          0  MISS:          0
cpu0_L2C TOTAL     ACCESS:        218  HIT:        115  MISS:        103
cpu0_L2C LOAD      ACCESS:          9  HIT:          0  MISS:          9
cpu0_L2C RFO       ACCESS:        100  HIT:          6  MISS:         94
cpu0_L2C PREFETCH  ACCESS:          0  HIT:          0  MISS:          0
cpu0_L2C WRITEBACK ACCESS:        109  HIT:        109  MISS:          0
LLC TOTAL     ACCESS:        194  HIT:         91  MISS:        103
LLC LOAD      ACCESS:          9  HIT:          0  MISS:          9
LLC RFO       ACCESS:         94  HIT:          0  MISS:         94
LLC PREFETCH  ACCESS:          0  HIT:          0  MISS:          0
LLC WRITEBACK ACCESS:         91  HIT:         91  MISS:          0
Heartbeat CPU 0 instructions: 74000000 cycles: 27521930 heartbeat IPC: 1.67934 cumulative IPC: 1.68169 (Simulation time: 0 hr 36 min 46 sec) 

Region of Interest Statistics
cpu0_DTLB TOTAL     ACCESS:    3754630  HIT:    3754628  MISS:          2
cpu0_DTLB LOAD      ACCESS:    3258484  HIT:    3258484  MISS:          0
cpu0_DTLB RFO       ACCESS:     496146  HIT:     496144  MISS:          2
cpu0_DTLB PREFETCH  ACCESS:          0  HIT:          0  MISS:          0
cpu0_DTLB WRITEBACK ACCESS:          0  HIT:          0  MISS:          0
cpu0_ITLB TOTAL     ACCESS:    2890310  HIT:    2890310  MISS:          0
cpu0_ITLB LOAD      ACCESS:    2890310  HIT:    2890310  MISS:          0
cpu0_ITLB RFO       ACCESS:          0  HIT:          0  MISS:          0
cpu0_ITLB PREFETCH  ACCESS:          0  HIT:          0  MISS:          0
cpu0_ITLB WRITEBACK ACCESS:          0  HIT:          0  MISS:          0
cpu0_L1I TOTAL     ACCESS:     110746  HIT:     110746  MISS:          0
cpu0_L1I LOAD      ACCESS:     110746  HIT:     110746  MISS:          0
cpu0_L1I RFO       ACCESS:          0  HIT:          0  MISS:          0
cpu0_L1I PREFETCH  ACCESS:          0  HIT:          0  MISS:          0
cpu0_L1I WRITEBACK ACCESS:          0  HIT:          0  MISS:          0
cpu0_STLB TOTAL     ACCESS:          2  HIT:          0  MISS:          2
cpu0_STLB LOAD      ACCESS:          0  HIT:          0  MISS:          0
cpu0_STLB RFO       ACCESS:          2  HIT:          0  MISS:          2
cpu0_STLB PREFETCH  ACCESS:          0  HIT:          0  MISS:          0
cpu0_STLB WRITEBACK ACCESS:          0  HIT:          0  MISS:          0
cpu0_L1D TOTAL     ACCESS:    3942437  HIT:    3942318  MISS:        119
cpu0_L1D LOAD      ACCESS:    3127793  HIT:    3127783  MISS:         10
cpu0_L1D RFO       ACCESS:     814642  HIT:     814533  MISS:        109
cpu0_L1D PREFETCH  ACCESS:          0  HIT:          0  MISS:          0
cpu0_L1D WRITEBACK ACCESS:          0  HIT:          0  MISS:          0
cpu0_L2C TOTAL     ACCESS:        238  HIT:        125  MISS:        113
cpu0_L2C LOAD      ACCESS:         10  HIT:          0  MISS:         10
cpu0_L2C RFO       ACCESS:        109  HIT:          6  MISS:        103
cpu0_L2C PREFETCH  ACCESS:          0  HIT:          0  MISS:          0
cpu0_L2C WRITEBACK ACCESS:        119  HIT:        119  MISS:          0
LLC TOTAL     ACCESS:        208  HIT:         95  MISS:        113
LLC LOAD      ACCESS:         10  HIT:          0  MISS:         10
LLC RFO       ACCESS:        103  HIT:          0  MISS:        103
LLC PREFETCH  ACCESS:          0  HIT:          0  MISS:          0
LLC WRITEBACK ACCESS:         95  HIT:         95  MISS:          0
Heartbeat CPU 0 instructions: 76000004 cycles: 28712795 heartbeat IPC: 1.67945 cumulative IPC: 1.68152 (Simulation time: 0 hr 37 min 36 sec) 

Region of Interest Statistics
cpu0_DTLB TOTAL     ACCESS:    4067533  HIT:    4067531  MISS:          2
cpu0_DTLB LOAD      ACCESS:    3529594  HIT:    3529594  MISS:          0
cpu0_DTLB RFO       ACCESS:     537939  HIT:     537937  MISS:          2
cpu0_DTLB PREFETCH  ACCESS:          0  HIT:          0  MISS:          0
cpu0_DTLB WRITEBACK ACCESS:          0  HIT:          0  MISS:          0
cpu0_ITLB TOTAL     ACCESS:    3130495  HIT:    3130495  MISS:          0
cpu0_ITLB LOAD      ACCESS:    3130495  HIT:    3130495  MISS:          0
cpu0_ITLB RFO       ACCESS:          0  HIT:          0  MISS:          0
cpu0_ITLB PREFETCH  ACCESS:          0  HIT:          0  MISS:          0
cpu0_ITLB WRITEBACK ACCESS:          0  HIT:          0  MISS:          0
cpu0_L1I TOTAL     ACCESS:     120417  HIT:     120417  MISS:          0
cpu0_L1I LOAD      ACCESS:     120417  HIT:     120417  MISS:          0
cpu0_L1I RFO       ACCESS:          0  HIT:          0  MISS:          0
cpu0_L1I PREFETCH  ACCESS:          0  HIT:          0  MISS:          0
cpu0_L1I WRITEBACK ACCESS:          0  HIT:          0  MISS:          0
cpu0_STLB TOTAL     ACCESS:          2  HIT:          0  MISS:          2
cpu0_STLB LOAD      ACCESS:          0  HIT:          0  MISS:          0
cpu0_STLB RFO       ACCESS:          2  HIT:          0  MISS:          2
cpu0_STLB PREFETCH  ACCESS:          0  HIT:          0  MISS:          0
cpu0_STLB WRITEBACK ACCESS:          0  HIT:          0  MISS:          0
cpu0_L1D TOTAL     ACCESS:    4272609  HIT:    4272480  MISS:        129
cpu0_L1D LOAD      ACCESS:    3388962  HIT:    3388951  MISS:         11
cpu0_L1D RFO       ACCESS:     883645  HIT:     883527  MISS:        118
cpu0_L1D PREFETCH  ACCESS:          0  HIT:          0  MISS:          0
cpu0_L1D WRITEBACK ACCESS:          0  HIT:          0  MISS:          0
cpu0_L2C TOTAL     ACCESS:        258  HIT:        135  MISS:        123
cpu0_L2C LOAD      ACCESS:         11  HIT:          0  MISS:         11
cpu0_L2C RFO       ACCESS:        118  HIT:          6  MISS:        112
cpu0_L2C PREFETCH  ACCESS:          0  HIT:          0  MISS:          0
cpu0_L2C WRITEBACK ACCESS:        129  HIT:        129  MISS:          0
LLC TOTAL     ACCESS:        225  HIT:        102  MISS:        123
LLC LOAD      ACCESS:         11  HIT:          0  MISS:         11
LLC RFO       ACCESS:        112  HIT:          0  MISS:        112
LLC PREFETCH  ACCESS:          0  HIT:          0  MISS:          0
LLC WRITEBACK ACCESS:        102  HIT:        102  MISS:          0
Heartbeat CPU 0 instructions: 78000000 cycles: 29893796 heartbeat IPC: 1.69348 cumulative IPC: 1.68237 (Simulation time: 0 hr 38 min 28 sec) 

Region of Interest Statistics
cpu0_DTLB TOTAL     ACCESS:    4380539  HIT:    4380537  MISS:          2
cpu0_DTLB LOAD      ACCESS:    3801958  HIT:    3801958  MISS:          0
cpu0_DTLB RFO       ACCESS:     578581  HIT:     578579  MISS:          2
cpu0_DTLB PREFETCH  ACCESS:          0  HIT:          0  MISS:          0
cpu0_DTLB WRITEBACK ACCESS:          0  HIT:          0  MISS:          0
cpu0_ITLB TOTAL     ACCESS:    3371272  HIT:    3371272  MISS:          0
cpu0_ITLB LOAD      ACCESS:    3371272  HIT:    3371272  MISS:          0
cpu0_ITLB RFO       ACCESS:          0  HIT:          0  MISS:          0
cpu0_ITLB PREFETCH  ACCESS:          0  HIT:          0  MISS:          0
cpu0_ITLB WRITEBACK ACCESS:          0  HIT:          0  MISS:          0
cpu0_L1I TOTAL     ACCESS:     128840  HIT:     128840  MISS:          0
cpu0_L1I LOAD      ACCESS:     128840  HIT:     128840  MISS:          0
cpu0_L1I RFO       ACCESS:          0  HIT:          0  MISS:          0
cpu0_L1I PREFETCH  ACCESS:          0  HIT:          0  MISS:          0
cpu0_L1I WRITEBACK ACCESS:          0  HIT:          0  MISS:          0
cpu0_STLB TOTAL     ACCESS:          2  HIT:          0  MISS:          2
cpu0_STLB LOAD      ACCESS:          0  HIT:          0  MISS:          0
cpu0_STLB RFO       ACCESS:          2  HIT:          0  MISS:          2
cpu0_STLB PREFETCH  ACCESS:          0  HIT:          0  MISS:          0
cpu0_STLB WRITEBACK ACCESS:          0  HIT:          0  MISS:          0
cpu0_L1D TOTAL     ACCESS:    4601123  HIT:    4600986  MISS:        137
cpu0_L1D LOAD      ACCESS:    3651014  HIT:    3651002  MISS:         12
cpu0_L1D RFO       ACCESS:     950107  HIT:     949982  MISS:        125
cpu0_L1D PREFETCH  ACCESS:          0  HIT:          0  MISS:          0
cpu0_L1D WRITEBACK ACCESS:          0  HIT:          0  MISS:          0
cpu0_L2C TOTAL     ACCESS:        273  HIT:        142  MISS:        131
cpu0_L2C LOAD      ACCESS:         12  HIT:          0  MISS:         12
cpu0_L2C RFO       ACCESS:        125  HIT:          6  MISS:        119
cpu0_L2C PREFETCH  ACCESS:          0  HIT:          0  MISS:          0
cpu0_L2C WRITEBACK ACCESS:        136  HIT:        136  MISS:          0
LLC TOTAL     ACCESS:        238  HIT:        107  MISS:        131
LLC LOAD      ACCESS:         12  HIT:          0  MISS:         12
LLC RFO       ACCESS:        119  HIT:          0  MISS:        119
LLC PREFETCH  ACCESS:          0  HIT:          0  MISS:          0
LLC WRITEBACK ACCESS:        107  HIT:        107  MISS:          0
Heartbeat CPU 0 instructions: 80000001 cycles: 31088067 heartbeat IPC: 1.67466 cumulative IPC: 1.68185 (Simulation time: 0 hr 39 min 20 sec) 

Region of Interest Statistics
cpu0_DTLB TOTAL     ACCESS:    4693649  HIT:    4693647  MISS:          2
cpu0_DTLB LOAD      ACCESS:    4073653  HIT:    4073653  MISS:          0
cpu0_DTLB RFO       ACCESS:     619996  HIT:     619994  MISS:          2
cpu0_DTLB PREFETCH  ACCESS:          0  HIT:          0  MISS:          0
cpu0_DTLB WRITEBACK ACCESS:          0  HIT:          0  MISS:          0
cpu0_ITLB TOTAL     ACCESS:    3612927  HIT:    3612927  MISS:          0
cpu0_ITLB LOAD      ACCESS:    3612927  HIT:    3612927  MISS:          0
cpu0_ITLB RFO       ACCESS:          0  HIT:          0  MISS:          0
cpu0_ITLB PREFETCH  ACCESS:          0  HIT:          0  MISS:          0
cpu0_ITLB WRITEBACK ACCESS:          0  HIT:          0  MISS:          0
cpu0_L1I TOTAL     ACCESS:     138152  HIT:     138152  MISS:          0
cpu0_L1I LOAD      ACCESS:     138152  HIT:     138152  MISS:          0
cpu0_L1I RFO       ACCESS:          0  HIT:          0  MISS:          0
cpu0_L1I PREFETCH  ACCESS:          0  HIT:          0  MISS:          0
cpu0_L1I WRITEBACK ACCESS:          0  HIT:          0  MISS:          0
cpu0_STLB TOTAL     ACCESS:          2  HIT:          0  MISS:          2
cpu0_STLB LOAD      ACCESS:          0  HIT:          0  MISS:          0
cpu0_STLB RFO       ACCESS:          2  HIT:          0  MISS:          2
cpu0_STLB PREFETCH  ACCESS:          0  HIT:          0  MISS:          0
cpu0_STLB WRITEBACK ACCESS:          0  HIT:          0  MISS:          0
cpu0_L1D TOTAL     ACCESS:    4928216  HIT:    4928069  MISS:        147
cpu0_L1D LOAD      ACCESS:    3910333  HIT:    3910321  MISS:         12
cpu0_L1D RFO       ACCESS:    1017881  HIT:    1017746  MISS:        135
cpu0_L1D PREFETCH  ACCESS:          0  HIT:          0  MISS:          0
cpu0_L1D WRITEBACK ACCESS:          0  HIT:          0  MISS:          0
cpu0_L2C TOTAL     ACCESS:        290  HIT:        149  MISS:        141
cpu0_L2C LOAD      ACCESS:         12  HIT:          0  MISS:         12
cpu0_L2C RFO       ACCESS:        135  HIT:          6  MISS:        129
cpu0_L2C PREFETCH  ACCESS:          0  HIT:          0  MISS:          0
cpu0_L2C WRITEBACK ACCESS:        143  HIT:        143  MISS:          0
LLC TOTAL     ACCESS:        251  HIT:        110  MISS:        141
LLC LOAD      ACCESS:         12  HIT:          0  MISS:         12
LLC RFO       ACCESS:        129  HIT:          0  MISS:        129
LLC PREFETCH  ACCESS:          0  HIT:          0  MISS:          0
LLC WRITEBACK ACCESS:        110  HIT:        110  MISS:          0
Heartbeat CPU 0 instructions: 82000000 cycles: 32278943 heartbeat IPC: 1.67944 cumulative IPC: 1.6817 (Simulation time: 0 hr 40 min 8 sec) 

Region of Interest Statistics
cpu0_DTLB TOTAL     ACCESS:    5006431  HIT:    5006429  MISS:          2
cpu0_DTLB LOAD      ACCESS:    4344771  HIT:    4344771  MISS:          0
cpu0_DTLB RFO       ACCESS:     661660  HIT:     661658  MISS:          2
cpu0_DTLB PREFETCH  ACCESS:          0  HIT:          0  MISS:          0
cpu0_DTLB WRITEBACK ACCESS:          0  HIT:          0  MISS:          0
cpu0_ITLB TOTAL     ACCESS:    3853401  HIT:    3853401  MISS:          0
cpu0_ITLB LOAD      ACCESS:    3853401  HIT:    3853401  MISS:          0
cpu0_ITLB RFO       ACCESS:          0  HIT:          0  MISS:          0
cpu0_ITLB PREFETCH  ACCESS:          0  HIT:          0  MISS:          0
cpu0_ITLB WRITEBACK ACCESS:          0  HIT:          0  MISS:          0
cpu0_L1I TOTAL     ACCESS:     147733  HIT:     147733  MISS:          0
cpu0_L1I LOAD      ACCESS:     147733  HIT:     147733  MISS:          0
cpu0_L1I RFO       ACCESS:          0  HIT:          0  MISS:          0
cpu0_L1I PREFETCH  ACCESS:          0  HIT:          0  MISS:          0
cpu0_L1I WRITEBACK ACCESS:          0  HIT:          0  MISS:          0
cpu0_STLB TOTAL     ACCESS:          2  HIT:          0  MISS:          2
cpu0_STLB LOAD      ACCESS:          0  HIT:          0  MISS:          0
cpu0_STLB RFO       ACCESS:          2  HIT:          0  MISS:          2
cpu0_STLB PREFETCH  ACCESS:          0  HIT:          0  MISS:          0
cpu0_STLB WRITEBACK ACCESS:          0  HIT:          0  MISS:          0
cpu0_L1D TOTAL     ACCESS:    5257474  HIT:    5257316  MISS:        158
cpu0_L1D LOAD      ACCESS:    4170914  HIT:    4170900  MISS:         14
cpu0_L1D RFO       ACCESS:    1086558  HIT:    1086414  MISS:        144
cpu0_L1D PREFETCH  ACCESS:          0  HIT:          0  MISS:          0
cpu0_L1D WRITEBACK ACCESS:          0  HIT:          0  MISS:          0
cpu0_L2C TOTAL     ACCESS:        309  HIT:        157  MISS:        152
cpu0_L2C LOAD      ACCESS:         14  HIT:          0  MISS:         14
cpu0_L2C RFO       ACCESS:        144  HIT:          6  MISS:        138
cpu0_L2C PREFETCH  ACCESS:          0  HIT:          0  MISS:          0
cpu0_L2C WRITEBACK ACCESS:        151  HIT:        151  MISS:          0
LLC TOTAL     ACCESS:        270  HIT:        118  MISS:        152
LLC LOAD      ACCESS:         14  HIT:          0  MISS:         14
LLC RFO       ACCESS:        138  HIT:          0  MISS:        138
LLC PREFETCH  ACCESS:          0  HIT:          0  MISS:          0
LLC WRITEBACK ACCESS:        118  HIT:        118  MISS:          0
Heartbeat CPU 0 instructions: 84000002 cycles: 33470379 heartbeat IPC: 1.67865 cumulative IPC: 1.68152 (Simulation time: 0 hr 40 min 50 sec) 

Region of Interest Statistics
cpu0_DTLB TOTAL     ACCESS:    5319096  HIT:    5319094  MISS:          2
cpu0_DTLB LOAD      ACCESS:    4615587  HIT:    4615587  MISS:          0
cpu0_DTLB RFO       ACCESS:     703509  HIT:     703507  MISS:          2
cpu0_DTLB PREFETCH  ACCESS:          0  HIT:          0  MISS:          0
cpu0_DTLB WRITEBACK ACCESS:          0  HIT:          0  MISS:          0
cpu0_ITLB TOTAL     ACCESS:    4093596  HIT:    4093596  MISS:          0
cpu0_ITLB LOAD      ACCESS:    4093596  HIT:    4093596  MISS:          0
cpu0_ITLB RFO       ACCESS:          0  HIT:          0  MISS:          0
cpu0_ITLB PREFETCH  ACCESS:          0  HIT:          0  MISS:          0
cpu0_ITLB WRITEBACK ACCESS:          0  HIT:          0  MISS:          0
cpu0_L1I TOTAL     ACCESS:     157416  HIT:     157416  MISS:          0
cpu0_L1I LOAD      ACCESS:     157416  HIT:     157416  MISS:          0
cpu0_L1I RFO       ACCESS:          0  HIT:          0  MISS:          0
cpu0_L1I PREFETCH  ACCESS:          0  HIT:          0  MISS:          0
cpu0_L1I WRITEBACK ACCESS:          0  HIT:          0  MISS:          0
cpu0_STLB TOTAL     ACCESS:          2  HIT:          0  MISS:          2
cpu0_STLB LOAD      ACCESS:          0  HIT:          0  MISS:          0
cpu0_STLB RFO       ACCESS:          2  HIT:          0  MISS:          2
cpu0_STLB PREFETCH  ACCESS:          0  HIT:          0  MISS:          0
cpu0_STLB WRITEBACK ACCESS:          0  HIT:          0  MISS:          0
cpu0_L1D TOTAL     ACCESS:    5587654  HIT:    5587487  MISS:        167
cpu0_L1D LOAD      ACCESS:    4431969  HIT:    4431955  MISS:         14
cpu0_L1D RFO       ACCESS:    1155683  HIT:    1155530  MISS:        153
cpu0_L1D PREFETCH  ACCESS:          0  HIT:          0  MISS:          0
cpu0_L1D WRITEBACK ACCESS:          0  HIT:          0  MISS:          0
cpu0_L2C TOTAL     ACCESS:        324  HIT:        163  MISS:        161
cpu0_L2C LOAD      ACCESS:         14  HIT:          0  MISS:         14
cpu0_L2C RFO       ACCESS:        153  HIT:          6  MISS:        147
cpu0_L2C PREFETCH  ACCESS:          0  HIT:          0  MISS:          0
cpu0_L2C WRITEBACK ACCESS:        157  HIT:        157  MISS:          0
LLC TOTAL     ACCESS:        282  HIT:        121  MISS:        161
LLC LOAD      ACCESS:         14  HIT:          0  MISS:         14
LLC RFO       ACCESS:        147  HIT:          0  MISS:        147
LLC PREFETCH  ACCESS:          0  HIT:          0  MISS:          0
LLC WRITEBACK ACCESS:        121  HIT:        121  MISS:          0
Heartbeat CPU 0 instructions: 86000000 cycles: 34652567 heartbeat IPC: 1.69178 cumulative IPC: 1.68209 (Simulation time: 0 hr 41 min 35 sec) 

Region of Interest Statistics
cpu0_DTLB TOTAL     ACCESS:    5632141  HIT:    5632139  MISS:          2
cpu0_DTLB LOAD      ACCESS:    4888438  HIT:    4888438  MISS:          0
cpu0_DTLB RFO       ACCESS:     743703  HIT:     743701  MISS:          2
cpu0_DTLB PREFETCH  ACCESS:          0  HIT:          0  MISS:          0
cpu0_DTLB WRITEBACK ACCESS:          0  HIT:          0  MISS:          0
cpu0_ITLB TOTAL     ACCESS:    4335499  HIT:    4335499  MISS:          0
cpu0_ITLB LOAD      ACCESS:    4335499  HIT:    4335499  MISS:          0
cpu0_ITLB RFO       ACCESS:          0  HIT:          0  MISS:          0
cpu0_ITLB PREFETCH  ACCESS:          0  HIT:          0  MISS:          0
cpu0_ITLB WRITEBACK ACCESS:          0  HIT:          0  MISS:          0
cpu0_L1I TOTAL     ACCESS:     165557  HIT:     165557  MISS:          0
cpu0_L1I LOAD      ACCESS:     165557  HIT:     165557  MISS:          0
cpu0_L1I RFO       ACCESS:          0  HIT:          0  MISS:          0
cpu0_L1I PREFETCH  ACCESS:          0  HIT:          0  MISS:          0
cpu0_L1I WRITEBACK ACCESS:          0  HIT:          0  MISS:          0
cpu0_STLB TOTAL     ACCESS:          2  HIT:          0  MISS:          2
cpu0_STLB LOAD      ACCESS:          0  HIT:          0  MISS:          0
cpu0_STLB RFO       ACCESS:          2  HIT:          0  MISS:          2
cpu0_STLB PREFETCH  ACCESS:          0  HIT:          0  MISS:          0
cpu0_STLB WRITEBACK ACCESS:          0  HIT:          0  MISS:          0
cpu0_L1D TOTAL     ACCESS:    5913737  HIT:    5913563  MISS:        174
cpu0_L1D LOAD      ACCESS:    4692818  HIT:    4692803  MISS:         15
cpu0_L1D RFO       ACCESS:    1220917  HIT:    1220758  MISS:        159
cpu0_L1D PREFETCH  ACCESS:          0  HIT:          0  MISS:          0
cpu0_L1D WRITEBACK ACCESS:          0  HIT:          0  MISS:          0
cpu0_L2C TOTAL     ACCESS:        335  HIT:        167  MISS:        168
cpu0_L2C LOAD      ACCESS:         15  HIT:          0  MISS:         15
cpu0_L2C RFO       ACCESS:        159  HIT:          6  MISS:        153
cpu0_L2C PREFETCH  ACCESS:          0  HIT:          0  MISS:          0
cpu0_L2C WRITEBACK ACCESS:        161  HIT:        161  MISS:          0
LLC TOTAL     ACCESS:        293  HIT:        125  MISS:        168
LLC LOAD      ACCESS:         15  HIT:          0  MISS:         15
LLC RFO       ACCESS:        153  HIT:          0  MISS:        153
LLC PREFETCH  ACCESS:          0  HIT:          0  MISS:          0
LLC WRITEBACK ACCESS:        125  HIT:        125  MISS:          0
Heartbeat CPU 0 instructions: 88000001 cycles: 35845630 heartbeat IPC: 1.67636 cumulative IPC: 1.68178 (Simulation time: 0 hr 42 min 16 sec) 

Region of Interest Statistics
cpu0_DTLB TOTAL     ACCESS:    5945432  HIT:    5945430  MISS:          2
cpu0_DTLB LOAD      ACCESS:    5160020  HIT:    5160020  MISS:          0
cpu0_DTLB RFO       ACCESS:     785412  HIT:     785410  MISS:          2
cpu0_DTLB PREFETCH  ACCESS:          0  HIT:          0  MISS:          0
cpu0_DTLB WRITEBACK ACCESS:          0  HIT:          0  MISS:          0
cpu0_ITLB TOTAL     ACCESS:    4576294  HIT:    4576294  MISS:          0
cpu0_ITLB LOAD      ACCESS:    4576294  HIT:    4576294  MISS:          0
cpu0_ITLB RFO       ACCESS:          0  HIT:          0  MISS:          0
cpu0_ITLB PREFETCH  ACCESS:          0  HIT:          0  MISS:          0
cpu0_ITLB WRITEBACK ACCESS:          0  HIT:          0  MISS:          0
cpu0_L1I TOTAL     ACCESS:     175079  HIT:     175079  MISS:          0
cpu0_L1I LOAD      ACCESS:     175079  HIT:     175079  MISS:          0
cpu0_L1I RFO       ACCESS:          0  HIT:          0  MISS:          0
cpu0_L1I PREFETCH  ACCESS:          0  HIT:          0  MISS:          0
cpu0_L1I WRITEBACK ACCESS:          0  HIT:          0  MISS:          0
cpu0_STLB TOTAL     ACCESS:          2  HIT:          0  MISS:          2
cpu0_STLB LOAD      ACCESS:          0  HIT:          0  MISS:          0
cpu0_STLB RFO       ACCESS:          2  HIT:          0  MISS:          2
cpu0_STLB PREFETCH  ACCESS:          0  HIT:          0  MISS:          0
cpu0_STLB WRITEBACK ACCESS:          0  HIT:          0  MISS:          0
cpu0_L1D TOTAL     ACCESS:    6242500  HIT:    6242316  MISS:        184
cpu0_L1D LOAD      ACCESS:    4952979  HIT:    4952963  MISS:         16
cpu0_L1D RFO       ACCESS:    1289519  HIT:    1289351  MISS:        168
cpu0_L1D PREFETCH  ACCESS:          0  HIT:          0  MISS:          0
cpu0_L1D WRITEBACK ACCESS:          0  HIT:          0  MISS:          0
cpu0_L2C TOTAL     ACCESS:        355  HIT:        177  MISS:        178
cpu0_L2C LOAD      ACCESS:         16  HIT:          0  MISS:         16
cpu0_L2C RFO       ACCESS:        168  HIT:          6  MISS:        162
cpu0_L2C PREFETCH  ACCESS:          0  HIT:          0  MISS:          0
cpu0_L2C WRITEBACK ACCESS:        171  HIT:        171  MISS:          0
LLC TOTAL     ACCESS:        310  HIT:        132  MISS:        178
LLC LOAD      ACCESS:         16  HIT:          0  MISS:         16
LLC RFO       ACCESS:        162  HIT:          0  MISS:        162
LLC PREFETCH  ACCESS:          0  HIT:          0  MISS:          0
LLC WRITEBACK ACCESS:        132  HIT:        132  MISS:          0
Heartbeat CPU 0 instructions: 90000002 cycles: 37045376 heartbeat IPC: 1.66702 cumulative IPC: 1.68104 (Simulation time: 0 hr 42 min 46 sec) 

Region of Interest Statistics
cpu0_DTLB TOTAL     ACCESS:    6257236  HIT:    6257224  MISS:         12
cpu0_DTLB LOAD      ACCESS:    5428296  HIT:    5428294  MISS:          2
cpu0_DTLB RFO       ACCESS:     828940  HIT:     828930  MISS:         10
cpu0_DTLB PREFETCH  ACCESS:          0  HIT:          0  MISS:          0
cpu0_DTLB WRITEBACK ACCESS:          0  HIT:          0  MISS:          0
cpu0_ITLB TOTAL     ACCESS:    4811865  HIT:    4811865  MISS:          0
cpu0_ITLB LOAD      ACCESS:    4811865  HIT:    4811865  MISS:          0
cpu0_ITLB RFO       ACCESS:          0  HIT:          0  MISS:          0
cpu0_ITLB PREFETCH  ACCESS:          0  HIT:          0  MISS:          0
cpu0_ITLB WRITEBACK ACCESS:          0  HIT:          0  MISS:          0
cpu0_L1I TOTAL     ACCESS:     193075  HIT:     193075  MISS:          0
cpu0_L1I LOAD      ACCESS:     193075  HIT:     193075  MISS:          0
cpu0_L1I RFO       ACCESS:          0  HIT:          0  MISS:          0
cpu0_L1I PREFETCH  ACCESS:          0  HIT:          0  MISS:          0
cpu0_L1I WRITEBACK ACCESS:          0  HIT:          0  MISS:          0
cpu0_STLB TOTAL     ACCESS:         12  HIT:          1  MISS:         11
cpu0_STLB LOAD      ACCESS:          2  HIT:          1  MISS:          1
cpu0_STLB RFO       ACCESS:         10  HIT:          0  MISS:         10
cpu0_STLB PREFETCH  ACCESS:          0  HIT:          0  MISS:          0
cpu0_STLB WRITEBACK ACCESS:          0  HIT:          0  MISS:          0
cpu0_L1D TOTAL     ACCESS:    6574001  HIT:    6573235  MISS:        766
cpu0_L1D LOAD      ACCESS:    5211794  HIT:    5211713  MISS:         81
cpu0_L1D RFO       ACCESS:    1362196  HIT:    1361512  MISS:        684
cpu0_L1D PREFETCH  ACCESS:          0  HIT:          0  MISS:          0
cpu0_L1D WRITEBACK ACCESS:          0  HIT:          0  MISS:          0
cpu0_L2C TOTAL     ACCESS:       1454  HIT:        714  MISS:        740
cpu0_L2C LOAD      ACCESS:         81  HIT:         14  MISS:         67
cpu0_L2C RFO       ACCESS:        684  HIT:         11  MISS:        673
cpu0_L2C PREFETCH  ACCESS:          0  HIT:          0  MISS:          0
cpu0_L2C WRITEBACK ACCESS:        688  HIT:        688  MISS:          0
LLC TOTAL     ACCESS:       1416  HIT:        676  MISS:        740
LLC LOAD      ACCESS:         67  HIT:          0  MISS:         67
LLC RFO       ACCESS:        673  HIT:          0  MISS:        673
LLC PREFETCH  ACCESS:          0  HIT:          0  MISS:          0
LLC WRITEBACK ACCESS:        676  HIT:        676  MISS:          0
Heartbeat CPU 0 instructions: 92000003 cycles: 38228097 heartbeat IPC: 1.69102 cumulative IPC: 1.68151 (Simulation time: 0 hr 43 min 38 sec) 

Region of Interest Statistics
cpu0_DTLB TOTAL     ACCESS:    6570103  HIT:    6570091  MISS:         12
cpu0_DTLB LOAD      ACCESS:    5700454  HIT:    5700452  MISS:          2
cpu0_DTLB RFO       ACCESS:     869649  HIT:     869639  MISS:         10
cpu0_DTLB PREFETCH  ACCESS:          0  HIT:          0  MISS:          0
cpu0_DTLB WRITEBACK ACCESS:          0  HIT:          0  MISS:          0
cpu0_ITLB TOTAL     ACCESS:    5052785  HIT:    5052785  MISS:          0
cpu0_ITLB LOAD      ACCESS:    5052785  HIT:    5052785  MISS:          0
cpu0_ITLB RFO       ACCESS:          0  HIT:          0  MISS:          0
cpu0_ITLB PREFETCH  ACCESS:          0  HIT:          0  MISS:          0
cpu0_ITLB WRITEBACK ACCESS:          0  HIT:          0  MISS:          0
cpu0_L1I TOTAL     ACCESS:     201490  HIT:     201490  MISS:          0
cpu0_L1I LOAD      ACCESS:     201490  HIT:     201490  MISS:          0
cpu0_L1I RFO       ACCESS:          0  HIT:          0  MISS:          0
cpu0_L1I PREFETCH  ACCESS:          0  HIT:          0  MISS:          0
cpu0_L1I WRITEBACK ACCESS:          0  HIT:          0  MISS:          0
cpu0_STLB TOTAL     ACCESS:         12  HIT:          1  MISS:         11
cpu0_STLB LOAD      ACCESS:          2  HIT:          1  MISS:          1
cpu0_STLB RFO       ACCESS:         10  HIT:          0  MISS:         10
cpu0_STLB PREFETCH  ACCESS:          0  HIT:          0  MISS:          0
cpu0_STLB WRITEBACK ACCESS:          0  HIT:          0  MISS:          0
cpu0_L1D TOTAL     ACCESS:    6902443  HIT:    6901671  MISS:        772
cpu0_L1D LOAD      ACCESS:    5473762  HIT:    5473681  MISS:         81
cpu0_L1D RFO       ACCESS:    1428670  HIT:    1427980  MISS:        690
cpu0_L1D PREFETCH  ACCESS:          0  HIT:          0  MISS:          0
cpu0_L1D WRITEBACK ACCESS:          0  HIT:          0  MISS:          0
cpu0_L2C TOTAL     ACCESS:       1465  HIT:        719  MISS:        746
cpu0_L2C LOAD      ACCESS:         81  HIT:         14  MISS:         67
cpu0_L2C RFO       ACCESS:        690  HIT:         11  MISS:        679
cpu0_L2C PREFETCH  ACCESS:          0  HIT:          0  MISS:          0
cpu0_L2C WRITEBACK ACCESS:        693  HIT:        693  MISS:          0
LLC TOTAL     ACCESS:       1428  HIT:        682  MISS:        746
LLC LOAD      ACCESS:         67  HIT:          0  MISS:         67
LLC RFO       ACCESS:        679  HIT:          0  MISS:        679
LLC PREFETCH  ACCESS:          0  HIT:          0  MISS:          0
LLC WRITEBACK ACCESS:        682  HIT:        682  MISS:          0
Heartbeat CPU 0 instructions: 94000004 cycles: 39425933 heartbeat IPC: 1.66968 cumulative IPC: 1.68097 (Simulation time: 0 hr 44 min 29 sec) 

Region of Interest Statistics
cpu0_DTLB TOTAL     ACCESS:    6883575  HIT:    6883559  MISS:         16
cpu0_DTLB LOAD      ACCESS:    5971757  HIT:    5971755  MISS:          2
cpu0_DTLB RFO       ACCESS:     911818  HIT:     911804  MISS:         14
cpu0_DTLB PREFETCH  ACCESS:          0  HIT:          0  MISS:          0
cpu0_DTLB WRITEBACK ACCESS:          0  HIT:          0  MISS:          0
cpu0_ITLB TOTAL     ACCESS:    5292376  HIT:    5292376  MISS:          0
cpu0_ITLB LOAD      ACCESS:    5292376  HIT:    5292376  MISS:          0
cpu0_ITLB RFO       ACCESS:          0  HIT:          0  MISS:          0
cpu0_ITLB PREFETCH  ACCESS:          0  HIT:          0  MISS:          0
cpu0_ITLB WRITEBACK ACCESS:          0  HIT:          0  MISS:          0
cpu0_L1I TOTAL     ACCESS:     213748  HIT:     213748  MISS:          0
cpu0_L1I LOAD      ACCESS:     213748  HIT:     213748  MISS:          0
cpu0_L1I RFO       ACCESS:          0  HIT:          0  MISS:          0
cpu0_L1I PREFETCH  ACCESS:          0  HIT:          0  MISS:          0
cpu0_L1I WRITEBACK ACCESS:          0  HIT:          0  MISS:          0
cpu0_STLB TOTAL     ACCESS:         16  HIT:          1  MISS:         15
cpu0_STLB LOAD      ACCESS:          2  HIT:          1  MISS:          1
cpu0_STLB RFO       ACCESS:         14  HIT:          0  MISS:         14
cpu0_STLB PREFETCH  ACCESS:          0  HIT:          0  MISS:          0
cpu0_STLB WRITEBACK ACCESS:          0  HIT:          0  MISS:          0
cpu0_L1D TOTAL     ACCESS:    7231174  HIT:    7230220  MISS:        954
cpu0_L1D LOAD      ACCESS:    5733117  HIT:    5733019  MISS:         98
cpu0_L1D RFO       ACCESS:    1498042  HIT:    1497187  MISS:        855
cpu0_L1D PREFETCH  ACCESS:          0  HIT:          0  MISS:          0
cpu0_L1D WRITEBACK ACCESS:          0  HIT:          0  MISS:          0
cpu0_L2C TOTAL     ACCESS:       1814  HIT:        886  MISS:        928
cpu0_L2C LOAD      ACCESS:         98  HIT:         14  MISS:         84
cpu0_L2C RFO       ACCESS:        855  HIT:         11  MISS:        844
cpu0_L2C PREFETCH  ACCESS:          0  HIT:          0  MISS:          0
cpu0_L2C WRITEBACK ACCESS:        860  HIT:        860  MISS:          0
LLC TOTAL     ACCESS:       1789  HIT:        861  MISS:        928
LLC LOAD      ACCESS:         84  HIT:          0  MISS:         84
LLC RFO       ACCESS:        844  HIT:          0  MISS:        844
LLC PREFETCH  ACCESS:          0  HIT:          0  MISS:          0
LLC WRITEBACK ACCESS:        861  HIT:        861  MISS:          0
Heartbeat CPU 0 instructions: 96000000 cycles: 40626764 heartbeat IPC: 1.66551 cumulative IPC: 1.68029 (Simulation time: 0 hr 45 min 21 sec) 

Region of Interest Statistics
cpu0_DTLB TOTAL     ACCESS:    7194949  HIT:    7194924  MISS:         25
cpu0_DTLB LOAD      ACCESS:    6239783  HIT:    6239780  MISS:          3
cpu0_DTLB RFO       ACCESS:     955166  HIT:     955144  MISS:         22
cpu0_DTLB PREFETCH  ACCESS:          0  HIT:          0  MISS:          0
cpu0_DTLB WRITEBACK ACCESS:          0  HIT:          0  MISS:          0
cpu0_ITLB TOTAL     ACCESS:    5528562  HIT:    5528562  MISS:          0
cpu0_ITLB LOAD      ACCESS:    5528562  HIT:    5528562  MISS:          0
cpu0_ITLB RFO       ACCESS:          0  HIT:          0  MISS:          0
cpu0_ITLB PREFETCH  ACCESS:          0  HIT:          0  MISS:          0
cpu0_ITLB WRITEBACK ACCESS:          0  HIT:          0  MISS:          0
cpu0_L1I TOTAL     ACCESS:     231689  HIT:     231689  MISS:          0
cpu0_L1I LOAD      ACCESS:     231689  HIT:     231689  MISS:          0
cpu0_L1I RFO       ACCESS:          0  HIT:          0  MISS:          0
cpu0_L1I PREFETCH  ACCESS:          0  HIT:          0  MISS:          0
cpu0_L1I WRITEBACK ACCESS:          0  HIT:          0  MISS:          0
cpu0_STLB TOTAL     ACCESS:         25  HIT:          1  MISS:         24
cpu0_STLB LOAD      ACCESS:          3  HIT:          1  MISS:          2
cpu0_STLB RFO       ACCESS:         22  HIT:          0  MISS:         22
cpu0_STLB PREFETCH  ACCESS:          0  HIT:          0  MISS:          0
cpu0_STLB WRITEBACK ACCESS:          0  HIT:          0  MISS:          0
cpu0_L1D TOTAL     ACCESS:    7561378  HIT:    7559850  MISS:       1528
cpu0_L1D LOAD      ACCESS:    5991271  HIT:    5991112  MISS:        159
cpu0_L1D RFO       ACCESS:    1570083  HIT:    1568716  MISS:       1367
cpu0_L1D PREFETCH  ACCESS:          0  HIT:          0  MISS:          0
cpu0_L1D WRITEBACK ACCESS:          0  HIT:          0  MISS:          0
cpu0_L2C TOTAL     ACCESS:       2901  HIT:       1413  MISS:       1488
cpu0_L2C LOAD      ACCESS:        159  HIT:         24  MISS:        135
cpu0_L2C RFO       ACCESS:       1367  HIT:         14  MISS:       1353
cpu0_L2C PREFETCH  ACCESS:          0  HIT:          0  MISS:          0
cpu0_L2C WRITEBACK ACCESS:       1373  HIT:       1373  MISS:          0
LLC TOTAL     ACCESS:       2867  HIT:       1379  MISS:       1488
LLC LOAD      ACCESS:        135  HIT:          0  MISS:        135
LLC RFO       ACCESS:       1353  HIT:          0  MISS:       1353
LLC PREFETCH  ACCESS:          0  HIT:          0  MISS:          0
LLC WRITEBACK ACCESS:       1379  HIT:       1379  MISS:          0
Heartbeat CPU 0 instructions: 98000002 cycles: 41813290 heartbeat IPC: 1.68559 cumulative IPC: 1.68051 (Simulation time: 0 hr 46 min 10 sec) 

Region of Interest Statistics
cpu0_DTLB TOTAL     ACCESS:    7508202  HIT:    7508177  MISS:         25
cpu0_DTLB LOAD      ACCESS:    6513016  HIT:    6513013  MISS:          3
cpu0_DTLB RFO       ACCESS:     995186  HIT:     995164  MISS:         22
cpu0_DTLB PREFETCH  ACCESS:          0  HIT:          0  MISS:          0
cpu0_DTLB WRITEBACK ACCESS:          0  HIT:          0  MISS:          0
cpu0_ITLB TOTAL     ACCESS:    5771812  HIT:    5771812  MISS:          0
cpu0_ITLB LOAD      ACCESS:    5771812  HIT:    5771812  MISS:          0
cpu0_ITLB RFO       ACCESS:          0  HIT:          0  MISS:          0
cpu0_ITLB PREFETCH  ACCESS:          0  HIT:          0  MISS:          0
cpu0_ITLB WRITEBACK ACCESS:          0  HIT:          0  MISS:          0
cpu0_L1I TOTAL     ACCESS:     239955  HIT:     239955  MISS:          0
cpu0_L1I LOAD      ACCESS:     239955  HIT:     239955  MISS:          0
cpu0_L1I RFO       ACCESS:          0  HIT:          0  MISS:          0
cpu0_L1I PREFETCH  ACCESS:          0  HIT:          0  MISS:          0
cpu0_L1I WRITEBACK ACCESS:          0  HIT:          0  MISS:          0
cpu0_STLB TOTAL     ACCESS:         25  HIT:          1  MISS:         24
cpu0_STLB LOAD      ACCESS:          3  HIT:          1  MISS:          2
cpu0_STLB RFO       ACCESS:         22  HIT:          0  MISS:         22
cpu0_STLB PREFETCH  ACCESS:          0  HIT:          0  MISS:          0
cpu0_STLB WRITEBACK ACCESS:          0  HIT:          0  MISS:          0
cpu0_L1D TOTAL     ACCESS:    7884619  HIT:    7883085  MISS:       1534
cpu0_L1D LOAD      ACCESS:    6250036  HIT:    6249877  MISS:        159
cpu0_L1D RFO       ACCESS:    1634559  HIT:    1633186  MISS:       1373
cpu0_L1D PREFETCH  ACCESS:          0  HIT:          0  MISS:          0
cpu0_L1D WRITEBACK ACCESS:          0  HIT:          0  MISS:          0
cpu0_L2C TOTAL     ACCESS:       2913  HIT:       1419  MISS:       1494
cpu0_L2C LOAD      ACCESS:        159  HIT:         24  MISS:        135
cpu0_L2C RFO       ACCESS:       1373  HIT:         14  MISS:       1359
cpu0_L2C PREFETCH  ACCESS:          0  HIT:          0  MISS:          0
cpu0_L2C WRITEBACK ACCESS:       1379  HIT:       1379  MISS:          0
LLC TOTAL     ACCESS:       2879  HIT:       1385  MISS:       1494
LLC LOAD      ACCESS:        135  HIT:          0  MISS:        135
LLC RFO       ACCESS:       1359  HIT:          0  MISS:       1359
LLC PREFETCH  ACCESS:          0  HIT:          0  MISS:          0
LLC WRITEBACK ACCESS:       1385  HIT:       1385  MISS:          0
Heartbeat CPU 0 instructions: 100000000 cycles: 43007259 heartbeat IPC: 1.67508 cumulative IPC: 1.68029 (Simulation time: 0 hr 47 min 2 sec) 

Region of Interest Statistics
cpu0_DTLB TOTAL     ACCESS:    7820361  HIT:    7820334  MISS:         27
cpu0_DTLB LOAD      ACCESS:    6783392  HIT:    6783389  MISS:          3
cpu0_DTLB RFO       ACCESS:    1036969  HIT:    1036945  MISS:         24
cpu0_DTLB PREFETCH  ACCESS:          0  HIT:          0  MISS:          0
cpu0_DTLB WRITEBACK ACCESS:          0  HIT:          0  MISS:          0
cpu0_ITLB TOTAL     ACCESS:    6012322  HIT:    6012322  MISS:          0
cpu0_ITLB LOAD      ACCESS:    6012322  HIT:    6012322  MISS:          0
cpu0_ITLB RFO       ACCESS:          0  HIT:          0  MISS:          0
cpu0_ITLB PREFETCH  ACCESS:          0  HIT:          0  MISS:          0
cpu0_ITLB WRITEBACK ACCESS:          0  HIT:          0  MISS:          0
cpu0_L1I TOTAL     ACCESS:     252192  HIT:     252192  MISS:          0
cpu0_L1I LOAD      ACCESS:     252192  HIT:     252192  MISS:          0
cpu0_L1I RFO       ACCESS:          0  HIT:          0  MISS:          0
cpu0_L1I PREFETCH  ACCESS:          0  HIT:          0  MISS:          0
cpu0_L1I WRITEBACK ACCESS:          0  HIT:          0  MISS:          0
cpu0_STLB TOTAL     ACCESS:         27  HIT:          1  MISS:         26
cpu0_STLB LOAD      ACCESS:          3  HIT:          1  MISS:          2
cpu0_STLB RFO       ACCESS:         24  HIT:          0  MISS:         24
cpu0_STLB PREFETCH  ACCESS:          0  HIT:          0  MISS:          0
cpu0_STLB WRITEBACK ACCESS:          0  HIT:          0  MISS:          0
cpu0_L1D TOTAL     ACCESS:    8210871  HIT:    8209168  MISS:       1703
cpu0_L1D LOAD      ACCESS:    6507767  HIT:    6507592  MISS:        175
cpu0_L1D RFO       ACCESS:    1703078  HIT:    1701552  MISS:       1526
cpu0_L1D PREFETCH  ACCESS:          0  HIT:          0  MISS:          0
cpu0_L1D WRITEBACK ACCESS:          0  HIT:          0  MISS:          0
cpu0_L2C TOTAL     ACCESS:       3233  HIT:       1570  MISS:       1663
cpu0_L2C LOAD      ACCESS:        175  HIT:         24  MISS:        151
cpu0_L2C RFO       ACCESS:       1526  HIT:         14  MISS:       1512
cpu0_L2C PREFETCH  ACCESS:          0  HIT:          0  MISS:          0
cpu0_L2C WRITEBACK ACCESS:       1530  HIT:       1530  MISS:          0
LLC TOTAL     ACCESS:       3217  HIT:       1554  MISS:       1663
LLC LOAD      ACCESS:        151  HIT:          0  MISS:        151
LLC RFO       ACCESS:       1512  HIT:          0  MISS:       1512
LLC PREFETCH  ACCESS:          0  HIT:          0  MISS:          0
LLC WRITEBACK ACCESS:       1554  HIT:       1554  MISS:          0
Heartbeat CPU 0 instructions: 102000004 cycles: 44203738 heartbeat IPC: 1.67157 cumulative IPC: 1.67996 (Simulation time: 0 hr 47 min 55 sec) 

Region of Interest Statistics
cpu0_DTLB TOTAL     ACCESS:    8133233  HIT:    8133195  MISS:         38
cpu0_DTLB LOAD      ACCESS:    7053779  HIT:    7053774  MISS:          5
cpu0_DTLB RFO       ACCESS:    1079454  HIT:    1079421  MISS:         33
cpu0_DTLB PREFETCH  ACCESS:          0  HIT:          0  MISS:          0
cpu0_DTLB WRITEBACK ACCESS:          0  HIT:          0  MISS:          0
cpu0_ITLB TOTAL     ACCESS:    6248891  HIT:    6248891  MISS:          0
cpu0_ITLB LOAD      ACCESS:    6248891  HIT:    6248891  MISS:          0
cpu0_ITLB RFO       ACCESS:          0  HIT:          0  MISS:          0
cpu0_ITLB PREFETCH  ACCESS:          0  HIT:          0  MISS:          0
cpu0_ITLB WRITEBACK ACCESS:          0  HIT:          0  MISS:          0
cpu0_L1I TOTAL     ACCESS:     268868  HIT:     268868  MISS:          0
cpu0_L1I LOAD      ACCESS:     268868  HIT:     268868  MISS:          0
cpu0_L1I RFO       ACCESS:          0  HIT:          0  MISS:          0
cpu0_L1I PREFETCH  ACCESS:          0  HIT:          0  MISS:          0
cpu0_L1I WRITEBACK ACCESS:          0  HIT:          0  MISS:          0
cpu0_STLB TOTAL     ACCESS:         38  HIT:          3  MISS:         35
cpu0_STLB LOAD      ACCESS:          5  HIT:          2  MISS:          3
cpu0_STLB RFO       ACCESS:         33  HIT:          1  MISS:         32
cpu0_STLB PREFETCH  ACCESS:          0  HIT:          0  MISS:          0
cpu0_STLB WRITEBACK ACCESS:          0  HIT:          0  MISS:          0
cpu0_L1D TOTAL     ACCESS:    8540752  HIT:    8538489  MISS:       2263
cpu0_L1D LOAD      ACCESS:    6767436  HIT:    6767203  MISS:        233
cpu0_L1D RFO       ACCESS:    1773281  HIT:    1771254  MISS:       2027
cpu0_L1D PREFETCH  ACCESS:          0  HIT:          0  MISS:          0
cpu0_L1D WRITEBACK ACCESS:          0  HIT:          0  MISS:          0
cpu0_L2C TOTAL     ACCESS:       4296  HIT:       2083  MISS:       2213
cpu0_L2C LOAD      ACCESS:        233  HIT:         32  MISS:        201
cpu0_L2C RFO       ACCESS:       2027  HIT:         15  MISS:       2012
cpu0_L2C PREFETCH  ACCESS:          0  HIT:          0  MISS:          0
cpu0_L2C WRITEBACK ACCESS:       2033  HIT:       2033  MISS:          0
LLC TOTAL     ACCESS:       4187  HIT:       1974  MISS:       2213
LLC LOAD      ACCESS:        201  HIT:          0  MISS:        201
LLC RFO       ACCESS:       2012  HIT:          0  MISS:       2012
LLC PREFETCH  ACCESS:          0  HIT:          0  MISS:          0
LLC WRITEBACK ACCESS:       1974  HIT:       1974  MISS:          0
Heartbeat CPU 0 instructions: 104000002 cycles: 45395412 heartbeat IPC: 1.67831 cumulative IPC: 1.6799 (Simulation time: 0 hr 48 min 47 sec) 

Region of Interest Statistics
cpu0_DTLB TOTAL     ACCESS:    8445577  HIT:    8445539  MISS:         38
cpu0_DTLB LOAD      ACCESS:    7324911  HIT:    7324906  MISS:          5
cpu0_DTLB RFO       ACCESS:    1120666  HIT:    1120633  MISS:         33
cpu0_DTLB PREFETCH  ACCESS:          0  HIT:          0  MISS:          0
cpu0_DTLB WRITEBACK ACCESS:          0  HIT:          0  MISS:          0
cpu0_ITLB TOTAL     ACCESS:    6490822  HIT:    6490822  MISS:          0
cpu0_ITLB LOAD      ACCESS:    6490822  HIT:    6490822  MISS:          0
cpu0_ITLB RFO       ACCESS:          0  HIT:          0  MISS:          0
cpu0_ITLB PREFETCH  ACCESS:          0  HIT:          0  MISS:          0
cpu0_ITLB WRITEBACK ACCESS:          0  HIT:          0  MISS:          0
cpu0_L1I TOTAL     ACCESS:     278206  HIT:     278206  MISS:          0
cpu0_L1I LOAD      ACCESS:     278206  HIT:     278206  MISS:          0
cpu0_L1I RFO       ACCESS:          0  HIT:          0  MISS:          0
cpu0_L1I PREFETCH  ACCESS:          0  HIT:          0  MISS:          0
cpu0_L1I WRITEBACK ACCESS:          0  HIT:          0  MISS:          0
cpu0_STLB TOTAL     ACCESS:         38  HIT:          3  MISS:         35
cpu0_STLB LOAD      ACCESS:          5  HIT:          2  MISS:          3
cpu0_STLB RFO       ACCESS:         33  HIT:          1  MISS:         32
cpu0_STLB PREFETCH  ACCESS:          0  HIT:          0  MISS:          0
cpu0_STLB WRITEBACK ACCESS:          0  HIT:          0  MISS:          0
cpu0_L1D TOTAL     ACCESS:    8866668  HIT:    8864393  MISS:       2275
cpu0_L1D LOAD      ACCESS:    7026115  HIT:    7025881  MISS:        234
cpu0_L1D RFO       ACCESS:    1840518  HIT:    1838480  MISS:       2038
cpu0_L1D PREFETCH  ACCESS:          0  HIT:          0  MISS:          0
cpu0_L1D WRITEBACK ACCESS:          0  HIT:          0  MISS:          0
cpu0_L2C TOTAL     ACCESS:       4320  HIT:       2095  MISS:       2225
cpu0_L2C LOAD      ACCESS:        234  HIT:         32  MISS:        202
cpu0_L2C RFO       ACCESS:       2038  HIT:         15  MISS:       2023
cpu0_L2C PREFETCH  ACCESS:          0  HIT:          0  MISS:          0
cpu0_L2C WRITEBACK ACCESS:       2045  HIT:       2045  MISS:          0
LLC TOTAL     ACCESS:       4209  HIT:       1984  MISS:       2225
LLC LOAD      ACCESS:        202  HIT:          0  MISS:        202
LLC RFO       ACCESS:       2023  HIT:          0  MISS:       2023
LLC PREFETCH  ACCESS:          0  HIT:          0  MISS:          0
LLC WRITEBACK ACCESS:       1984  HIT:       1984  MISS:          0
Heartbeat CPU 0 instructions: 106000001 cycles: 46576553 heartbeat IPC: 1.69328 cumulative IPC: 1.68037 (Simulation time: 0 hr 49 min 37 sec) 

Region of Interest Statistics
cpu0_DTLB TOTAL     ACCESS:    8757762  HIT:    8757724  MISS:         38
cpu0_DTLB LOAD      ACCESS:    7596951  HIT:    7596946  MISS:          5
cpu0_DTLB RFO       ACCESS:    1160811  HIT:    1160778  MISS:         33
cpu0_DTLB PREFETCH  ACCESS:          0  HIT:          0  MISS:          0
cpu0_DTLB WRITEBACK ACCESS:          0  HIT:          0  MISS:          0
cpu0_ITLB TOTAL     ACCESS:    6733296  HIT:    6733296  MISS:          0
cpu0_ITLB LOAD      ACCESS:    6733296  HIT:    6733296  MISS:          0
cpu0_ITLB RFO       ACCESS:          0  HIT:          0  MISS:          0
cpu0_ITLB PREFETCH  ACCESS:          0  HIT:          0  MISS:          0
cpu0_ITLB WRITEBACK ACCESS:          0  HIT:          0  MISS:          0
cpu0_L1I TOTAL     ACCESS:     286783  HIT:     286783  MISS:          0
cpu0_L1I LOAD      ACCESS:     286783  HIT:     286783  MISS:          0
cpu0_L1I RFO       ACCESS:          0  HIT:          0  MISS:          0
cpu0_L1I PREFETCH  ACCESS:          0  HIT:          0  MISS:          0
cpu0_L1I WRITEBACK ACCESS:          0  HIT:          0  MISS:          0
cpu0_STLB TOTAL     ACCESS:         38  HIT:          3  MISS:         35
cpu0_STLB LOAD      ACCESS:          5  HIT:          2  MISS:          3
cpu0_STLB RFO       ACCESS:         33  HIT:          1  MISS:         32
cpu0_STLB PREFETCH  ACCESS:          0  HIT:          0  MISS:          0
cpu0_STLB WRITEBACK ACCESS:          0  HIT:          0  MISS:          0
cpu0_L1D TOTAL     ACCESS:    9191175  HIT:    9188894  MISS:       2281
cpu0_L1D LOAD      ACCESS:    7285543  HIT:    7285309  MISS:        234
cpu0_L1D RFO       ACCESS:    1905597  HIT:    1903553  MISS:       2044
cpu0_L1D PREFETCH  ACCESS:          0  HIT:          0  MISS:          0
cpu0_L1D WRITEBACK ACCESS:          0  HIT:          0  MISS:          0
cpu0_L2C TOTAL     ACCESS:       4332  HIT:       2101  MISS:       2231
cpu0_L2C LOAD      ACCESS:        234  HIT:         32  MISS:        202
cpu0_L2C RFO       ACCESS:       2044  HIT:         15  MISS:       2029
cpu0_L2C PREFETCH  ACCESS:          0  HIT:          0  MISS:          0
cpu0_L2C WRITEBACK ACCESS:       2051  HIT:       2051  MISS:          0
LLC TOTAL     ACCESS:       4221  HIT:       1990  MISS:       2231
LLC LOAD      ACCESS:        202  HIT:          0  MISS:        202
LLC RFO       ACCESS:       2029  HIT:          0  MISS:       2029
LLC PREFETCH  ACCESS:          0  HIT:          0  MISS:          0
LLC WRITEBACK ACCESS:       1990  HIT:       1990  MISS:          0
Heartbeat CPU 0 instructions: 108000004 cycles: 47771471 heartbeat IPC: 1.67376 cumulative IPC: 1.68014 (Simulation time: 0 hr 50 min 28 sec) 

Region of Interest Statistics
cpu0_DTLB TOTAL     ACCESS:    9070907  HIT:    9070869  MISS:         38
cpu0_DTLB LOAD      ACCESS:    7868712  HIT:    7868707  MISS:          5
cpu0_DTLB RFO       ACCESS:    1202195  HIT:    1202162  MISS:         33
cpu0_DTLB PREFETCH  ACCESS:          0  HIT:          0  MISS:          0
cpu0_DTLB WRITEBACK ACCESS:          0  HIT:          0  MISS:          0
cpu0_ITLB TOTAL     ACCESS:    6975118  HIT:    6975118  MISS:          0
cpu0_ITLB LOAD      ACCESS:    6975118  HIT:    6975118  MISS:          0
cpu0_ITLB RFO       ACCESS:          0  HIT:          0  MISS:          0
cpu0_ITLB PREFETCH  ACCESS:          0  HIT:          0  MISS:          0
cpu0_ITLB WRITEBACK ACCESS:          0  HIT:          0  MISS:          0
cpu0_L1I TOTAL     ACCESS:     296539  HIT:     296539  MISS:          0
cpu0_L1I LOAD      ACCESS:     296539  HIT:     296539  MISS:          0
cpu0_L1I RFO       ACCESS:          0  HIT:          0  MISS:          0
cpu0_L1I PREFETCH  ACCESS:          0  HIT:          0  MISS:          0
cpu0_L1I WRITEBACK ACCESS:          0  HIT:          0  MISS:          0
cpu0_STLB TOTAL     ACCESS:         38  HIT:          3  MISS:         35
cpu0_STLB LOAD      ACCESS:          5  HIT:          2  MISS:          3
cpu0_STLB RFO       ACCESS:         33  HIT:          1  MISS:         32
cpu0_STLB PREFETCH  ACCESS:          0  HIT:          0  MISS:          0
cpu0_STLB WRITEBACK ACCESS:          0  HIT:          0  MISS:          0
cpu0_L1D TOTAL     ACCESS:    9517695  HIT:    9515397  MISS:       2298
cpu0_L1D LOAD      ACCESS:    7544431  HIT:    7544195  MISS:        236
cpu0_L1D RFO       ACCESS:    1973229  HIT:    1971170  MISS:       2059
cpu0_L1D PREFETCH  ACCESS:          0  HIT:          0  MISS:          0
cpu0_L1D WRITEBACK ACCESS:          0  HIT:          0  MISS:          0
cpu0_L2C TOTAL     ACCESS:       4364  HIT:       2116  MISS:       2248
cpu0_L2C LOAD      ACCESS:        236  HIT:         32  MISS:        204
cpu0_L2C RFO       ACCESS:       2059  HIT:         15  MISS:       2044
[...]
cpu0_ITLB LOAD      ACCESS:  175707105  HIT:  175707105  MISS:          0
cpu0_ITLB RFO       ACCESS:          0  HIT:          0  MISS:          0
cpu0_ITLB PREFETCH  ACCESS:          0  HIT:          0  MISS:          0
cpu0_ITLB WRITEBACK ACCESS:          0  HIT:          0  MISS:          0
cpu0_L1I TOTAL     ACCESS:   15467581  HIT:   15467581  MISS:          0
cpu0_L1I LOAD      ACCESS:   15467581  HIT:   15467581  MISS:          0
cpu0_L1I RFO       ACCESS:          0  HIT:          0  MISS:          0
cpu0_L1I PREFETCH  ACCESS:          0  HIT:          0  MISS:          0
cpu0_L1I WRITEBACK ACCESS:          0  HIT:          0  MISS:          0
cpu0_STLB TOTAL     ACCESS:       6483  HIT:        223  MISS:       6260
cpu0_STLB LOAD      ACCESS:        724  HIT:        141  MISS:        583
cpu0_STLB RFO       ACCESS:       5759  HIT:         82  MISS:       5677
cpu0_STLB PREFETCH  ACCESS:          0  HIT:          0  MISS:          0
cpu0_STLB WRITEBACK ACCESS:          0  HIT:          0  MISS:          0
cpu0_L1D TOTAL     ACCESS:  252289040  HIT:  251884456  MISS:     404584
cpu0_L1D LOAD      ACCESS:  193791463  HIT:  193751662  MISS:      39801
cpu0_L1D RFO       ACCESS:   58491320  HIT:   58126759  MISS:     364561
cpu0_L1D PREFETCH  ACCESS:          0  HIT:          0  MISS:          0
cpu0_L1D WRITEBACK ACCESS:          0  HIT:          0  MISS:          0
cpu0_L2C TOTAL     ACCESS:     768667  HIT:     368188  MISS:     400479
cpu0_L2C LOAD      ACCESS:      39801  HIT:       3210  MISS:      36591
cpu0_L2C RFO       ACCESS:     364561  HIT:       1075  MISS:     363486
cpu0_L2C PREFETCH  ACCESS:          0  HIT:          0  MISS:          0
cpu0_L2C WRITEBACK ACCESS:     364083  HIT:     363703  MISS:        380
LLC TOTAL     ACCESS:     763323  HIT:     363012  MISS:     400311
LLC LOAD      ACCESS:      36591  HIT:         83  MISS:      36508
LLC RFO       ACCESS:     363486  HIT:          3  MISS:     363483
LLC PREFETCH  ACCESS:          0  HIT:          0  MISS:          0
LLC WRITEBACK ACCESS:     363224  HIT:     362919  MISS:        305
Finished CPU 0 instructions: 1500000000 cycles: 917802453 cumulative IPC: 1.63434 (Simulation time: 10 hr 53 min 59 sec) 

ChampSim completed all CPUs

Region of Interest Statistics

CPU 0 cumulative IPC: 1.63434 instructions: 1500000000 cycles: 917802453
cpu0_DTLB TOTAL     ACCESS:  234426257  HIT:  234419774  MISS:       6483
cpu0_DTLB LOAD      ACCESS:  199803299  HIT:  199802575  MISS:        724
cpu0_DTLB RFO       ACCESS:   34622958  HIT:   34617199  MISS:       5759
cpu0_DTLB PREFETCH  ACCESS:          0  HIT:          0  MISS:          0
cpu0_DTLB WRITEBACK ACCESS:          0  HIT:          0  MISS:          0
cpu0_DTLB TRANSLATION ACCESS:          0  HIT:          0  MISS:          0
cpu0_DTLB PREFETCH  REQUESTED:          0  ISSUED:          0  USEFUL:          0  USELESS:          0
cpu0_DTLB AVERAGE MISS LATENCY: 210.585 cycles
cpu0_ITLB TOTAL     ACCESS:  175707105  HIT:  175707105  MISS:          0
cpu0_ITLB LOAD      ACCESS:  175707105  HIT:  175707105  MISS:          0
cpu0_ITLB RFO       ACCESS:          0  HIT:          0  MISS:          0
cpu0_ITLB PREFETCH  ACCESS:          0  HIT:          0  MISS:          0
cpu0_ITLB WRITEBACK ACCESS:          0  HIT:          0  MISS:          0
cpu0_ITLB TRANSLATION ACCESS:          0  HIT:          0  MISS:          0
cpu0_ITLB PREFETCH  REQUESTED:          0  ISSUED:          0  USEFUL:          0  USELESS:          0
cpu0_ITLB AVERAGE MISS LATENCY: -nan cycles
cpu0_L1I TOTAL     ACCESS:   15467581  HIT:   15467581  MISS:          0
cpu0_L1I LOAD      ACCESS:   15467581  HIT:   15467581  MISS:          0
cpu0_L1I RFO       ACCESS:          0  HIT:          0  MISS:          0
cpu0_L1I PREFETCH  ACCESS:          0  HIT:          0  MISS:          0
cpu0_L1I WRITEBACK ACCESS:          0  HIT:          0  MISS:          0
cpu0_L1I TRANSLATION ACCESS:          0  HIT:          0  MISS:          0
cpu0_L1I PREFETCH  REQUESTED:          0  ISSUED:          0  USEFUL:          0  USELESS:          0
cpu0_L1I AVERAGE MISS LATENCY: -nan cycles
cpu0_STLB TOTAL     ACCESS:       6483  HIT:        223  MISS:       6260
cpu0_STLB LOAD      ACCESS:        724  HIT:        141  MISS:        583
cpu0_STLB RFO       ACCESS:       5759  HIT:         82  MISS:       5677
cpu0_STLB PREFETCH  ACCESS:          0  HIT:          0  MISS:          0
cpu0_STLB WRITEBACK ACCESS:          0  HIT:          0  MISS:          0
cpu0_STLB TRANSLATION ACCESS:          0  HIT:          0  MISS:          0
cpu0_STLB PREFETCH  REQUESTED:          0  ISSUED:          0  USEFUL:          0  USELESS:          0
cpu0_STLB AVERAGE MISS LATENCY: 208.766 cycles
cpu0_L1D TOTAL     ACCESS:  252289040  HIT:  251884456  MISS:     404584
cpu0_L1D LOAD      ACCESS:  193791463  HIT:  193751662  MISS:      39801
cpu0_L1D RFO       ACCESS:   58491320  HIT:   58126759  MISS:     364561
cpu0_L1D PREFETCH  ACCESS:          0  HIT:          0  MISS:          0
cpu0_L1D WRITEBACK ACCESS:          0  HIT:          0  MISS:          0
cpu0_L1D TRANSLATION ACCESS:       6257  HIT:       6035  MISS:        222
cpu0_L1D PREFETCH  REQUESTED:          0  ISSUED:          0  USEFUL:          0  USELESS:          0
cpu0_L1D AVERAGE MISS LATENCY: 310.562 cycles
cpu0_L2C TOTAL     ACCESS:     768667  HIT:     368188  MISS:     400479
cpu0_L2C LOAD      ACCESS:      39801  HIT:       3210  MISS:      36591
cpu0_L2C RFO       ACCESS:     364561  HIT:       1075  MISS:     363486
cpu0_L2C PREFETCH  ACCESS:          0  HIT:          0  MISS:          0
cpu0_L2C WRITEBACK ACCESS:     364083  HIT:     363703  MISS:        380
cpu0_L2C TRANSLATION ACCESS:        222  HIT:        200  MISS:         22
cpu0_L2C PREFETCH  REQUESTED:          0  ISSUED:          0  USEFUL:          0  USELESS:          0
cpu0_L2C AVERAGE MISS LATENCY: 302.63 cycles
LLC TOTAL     ACCESS:     763323  HIT:     363012  MISS:     400311
LLC LOAD      ACCESS:      36591  HIT:         83  MISS:      36508
LLC RFO       ACCESS:     363486  HIT:          3  MISS:     363483
LLC PREFETCH  ACCESS:          0  HIT:          0  MISS:          0
LLC WRITEBACK ACCESS:     363224  HIT:     362919  MISS:        305
LLC TRANSLATION ACCESS:         22  HIT:          7  MISS:         15
LLC PREFETCH  REQUESTED:          0  ISSUED:          0  USEFUL:          0  USELESS:          0
LLC AVERAGE MISS LATENCY: 281.768 cycles
~~~~~~~~~~Reuse Distance Profiler output~~~~~~~~~~
0	42786752	19158304
1	41522032	36584976
2	41034800	36126832
3	23102320	21186144
4	16860400	15353296
5	9581648	8137104
6	7447808	6245376
7	8872144	7422496
8	7880688	6500112
9	6443360	5017648
10	5157520	4236720
11	4772192	3335040
12	3734912	2552160
13	2940704	1860096
14	2487248	1721568
15	1831232	1422352
16	1407520	1146800
17	1293328	982544
18	1573056	1262304
19	1039504	925344
20	938960	831312
21	1158016	955088
22	813376	699632
23	807360	724704
24	746048	627104
25	966672	747232
26	711712	557408
27	648640	498384
28	682944	532224
29	560048	457584
30	379664	260944
31	532784	388192
32	404192	293504
33	461152	338208
34	346912	305680
35	217296	177920
36	191552	128608
37	300224	185264
38	199024	108512
39	181648	146160
40	284976	225760
41	262960	215136
42	197936	138656
43	209984	145008
44	155872	123616
45	182432	133968
46	193392	157152
47	171360	137968
48	197296	146320
49	158736	124560
50	93712	78800
51	151696	117920
52	143392	110768
53	126416	105920
54	154032	114480
55	129008	78608
56	157952	124944
57	77056	38736
58	255296	218640
59	80048	62256
60	75344	44432
61	84768	47728
62	79984	58640
63	63888	39792
64	141744	113040
66	167280	112080
68	210960	127696
70	163088	118336
72	339312	252272
74	186144	150512
76	222288	166592
78	210944	162112
80	160576	91520
82	206656	161504
84	148592	94400
86	184640	154496
88	168688	128704
90	179552	86192
92	176512	95968
94	157392	93008
96	175136	96432
98	150272	106624
100	152032	98896
102	126176	84544
104	125408	96224
106	87904	73392
108	63632	51408
110	110864	71904
112	92880	52640
114	57648	32336
116	78560	66288
118	69072	58880
120	155872	124832
122	71712	48064
124	40400	34160
126	39264	31488
128	155872	103616
132	119168	53552
136	233360	166368
140	326736	269728
144	105216	60304
148	66048	37456
152	84240	39120
156	85040	45984
160	88224	28400
164	155584	113376
168	170560	115600
172	221216	152304
176	127856	86192
180	50896	27264
184	55104	32752
188	34448	15824
192	66400	33120
196	80544	55808
200	188576	169280
204	64192	48080
208	83200	30384
212	57120	11920
216	81136	61344
220	221280	197136
224	52928	36272
228	54752	22048
232	58928	31856
236	74928	49008
240	66864	48624
244	78608	57568
248	117008	64112
252	64784	46496
256	204384	52432
264	119056	87072
272	371712	58448
280	230816	72384
288	185664	38464
296	209600	24672
304	228832	70192
312	93216	11632
320	423360	351392
328	150096	66368
336	228496	26880
344	91632	41824
352	107952	55216
360	291696	238192
368	260784	231760
376	88080	77424
384	61184	21872
392	51584	12528
400	35648	13664
408	69744	46624
416	22896	9296
424	42368	25888
432	28624	10848
440	57520	27088
448	53792	31584
456	75216	42944
464	77008	66368
472	52544	38304
480	52864	41008
488	78672	43408
496	23920	11824
504	52176	24896
512	55232	13776
528	58080	41984
544	59184	36880
560	46800	33776
576	124272	102992
592	53520	35968
608	124672	70112
624	72416	33568
640	42448	14688
656	68528	45632
672	132192	15440
688	37248	24304
704	34048	23184
720	85216	50240
736	99664	67392
752	119968	74400
768	53168	34080
784	57648	4240
800	20304	784
816	28288	3376
832	63408	30832
848	77248	15072
864	18016	272
880	100016	51056
896	50528	13648
912	59104	52560
928	56016	41728
944	23424	10896
960	53856	50368
976	32272	28608
992	4480	1200
1008	44096	37024
1024	35488	27952
1056	24736	17936
1088	25280	14752
1120	13648	2480
1152	13184	2032
1184	44896	14224
1216	19712	8944
1248	19376	3984
1280	13712	4800
1312	19904	13488
1344	25248	5792
1376	25968	11520
1408	11008	2208
1440	20368	2896
1472	16848	2928
1504	8368	1952
1536	12048	2160
1568	7408	448
1600	8128	3072
1632	8272	1200
1664	10944	3744
1696	18176	6128
1728	17328	4656
1760	23216	9584
1792	13168	3904
1824	13920	6608
1856	6096	2608
1888	13136	8624
1920	4320	2432
1952	4144	2256
1984	5536	3808
2016	5088	3328
2048	22800	20480
2112	14064	6112
2176	21808	14512
2240	26064	10288
2304	26464	11792
2368	33888	23808
2432	29648	16624
2496	31728	13664
2560	20992	8864
2624	13472	4368
2688	17488	10976
2752	13888	2016
2816	7008	1792
2880	7184	1760
2944	5280	592
3008	4336	528
3072	4832	176
3136	3216	96
3200	592	64
3264	992	144
3328	2640	80
3392	9472	8784
3456	11824	10896
3520	15760	7712
3584	10288	9968
3648	7488	7040
3712	768	96
3776	2288	2128
3840	8496	7280
3904	4784	144
3968	15920	4368
4032	40384	20864
4096	37760	10624
4224	2928	480
4352	5824	144
4480	2576	240
4608	2848	96
4736	10032	544
4864	6704	3120
4992	9136	7344
5120	8736	1728
5248	7184	544
5376	9440	1344
5504	7216	560
5632	3328	1280
5760	2976	1680
5888	2224	304
6016	2304	1424
6144	400	16
6272	320	16
6400	288	0
6528	1568	32
6656	1984	16
6784	1184	16
6912	3248	16
7040	624	32
7168	1856	128
7296	1856	48
7424	6400	288
7552	20480	10048
7680	60464	43216
7808	7984	4016
7936	9008	1232
8064	10720	3152
8192	25712	14848
8448	5264	2416
8704	12064	4784
8960	5008	480
9216	2400	1072
9472	2288	2032
9728	192	32
9984	160	0
10240	864	688
10496	496	16
10752	5824	5280
11008	22128	19776
11264	5808	4016
11520	8128	6176
11776	30208	28544
12032	20000	15488
12288	21088	13360
12544	9568	3840
12800	6464	3520
13056	9520	3232
13312	5952	976
13568	10240	336
13824	14480	1440
14080	9440	352
14336	5488	544
14592	4720	464
14848	6464	928
15104	6224	1504
15360	7136	2544
15616	3776	640
15872	8624	2816
16128	13104	4176
16384	6640	2512
16896	11600	3376
17408	12448	3280
17920	7216	2080
18432	9088	368
18944	17424	2320
19456	36464	8688
19968	34960	9632
20480	36496	15280
20992	36144	16208
21504	40480	13584
22016	35344	17584
22528	47136	26624
23040	26256	9888
23552	23104	12304
24064	19008	11952
24576	8064	5712
25088	2848	768
25600	3744	1744
26112	2448	1680
26624	2816	1296
27136	2352	1632
27648	3712	2528
28160	1792	336
28672	2112	736
29184	2032	880
29696	4128	2816
30208	2976	496
30720	4352	1120
31232	2528	720
31744	4096	1728
32256	1872	432
32768	2016	288
33792	592	144
34816	3328	64
35840	4176	16
36864	2160	288
37888	2496	224
38912	2608	464
39936	928	192
40960	352	288
41984	288	128
43008	1040	176
44032	544	64
45056	256	32
46080	240	16
47104	464	0
48128	1744	176
49152	1312	0
50176	976	16
51200	432	0
52224	912	16
53248	272	0
54272	16	0
55296	128	16
56320	64	0
57344	32	0
58368	48	0
59392	128	32
60416	176	48
61440	160	32
62464	192	0
63488	80	0
64512	64	32
65536	128	32
67584	48	0
69632	64	0
71680	0	0
73728	0	0
75776	64	16
77824	0	0
79872	48	48
81920	32	0
83968	16	0
86016	32	0
88064	4208	4144
90112	1008	944
92160	2816	1552
94208	3040	2352
96256	2384	1328
98304	160	0
100352	336	0
102400	80	0
104448	48	32
106496	128	48
108544	64	64
110592	2288	48
112640	1840	1376
114688	3072	2832
116736	1120	528
118784	29296	19824
120832	8336	5872
122880	5168	3392
124928	9472	5776
126976	15728	11440
129024	7840	5424
131072	4464	2176
135168	208	112
139264	256	112
143360	112	64
147456	64	0
151552	80	64
155648	656	368
159744	1824	1152
163840	48	16
167936	32	16
172032	32	32
176128	288	16
180224	96	96
184320	144	48
188416	32	0
192512	64	16
196608	32	16
200704	16	16
204800	128	16
208896	0	0
212992	32	32
217088	48	16
221184	16	0
225280	0	0
229376	48	0
233472	16	0
237568	384	80
241664	608	336
245760	128	16
249856	240	80
253952	640	352
258048	128	16
262144	0	0
270336	0	0
278528	112	48
286720	0	0
294912	0	0
303104	0	0
311296	16	0
319488	112	64
327680	0	0
335872	32	16
344064	48	0
352256	80	32
360448	0	0
368640	16	16
376832	80	48
385024	112	16
393216	160	32
401408	112	0
409600	368	208
417792	208	32
425984	16	0
434176	96	0
442368	48	0
450560	0	0
458752	0	0
466944	0	0
475136	16	16
483328	0	0
491520	32	16
499712	64	64
507904	160	32
516096	32	32
524288	32	16
540672	16	16
557056	0	0
573440	0	0
589824	48	48
606208	0	0
622592	32	0
638976	0	0
655360	0	0
671744	0	0
688128	0	0
704512	0	0
720896	0	0
737280	0	0
753664	0	0
770048	0	0
786432	16	16
802816	32	32
819200	192	192
835584	0	0
851968	0	0
868352	192	192
884736	0	0
901120	0	0
917504	0	0
933888	0	0
950272	0	0
966656	0	0
983040	32	32
999424	160	160
1015808	0	0
1032192	0	0
1048576	0	0
1081344	32	32
1114112	64	64
1146880	128	128
1179648	16	16
1212416	0	0
1245184	0	0
1277952	0	0
1310720	0	0
1343488	16	16
1376256	32	32
1409024	0	0
1441792	0	0
1474560	0	0
1507328	32	32
1540096	0	0
1572864	0	0
1605632	16	16
1638400	0	0
1671168	112	0
1703936	96	16
1736704	64	0
1769472	128	0
1802240	48	48
1835008	16	16
1867776	32	32
1900544	0	0
1933312	0	0
1966080	0	0
1998848	16	0
2031616	48	32
2064384	0	0
2097152	0	0
2162688	16	0
2228224	0	0
2293760	0	0
2359296	0	0
2424832	0	0
2490368	0	0
2555904	0	0
2621440	0	0
2686976	0	0
2752512	0	0
2818048	0	0
2883584	0	0
2949120	0	0
3014656	0	0
3080192	0	0
3145728	0	0
3211264	0	0
3276800	0	0
3342336	0	0
3407872	0	0
3473408	0	0
3538944	0	0
3604480	0	0
3670016	0	0
3735552	0	0
3801088	0	0
3866624	0	0
3932160	0	0
3997696	0	0
4063232	0	0
4128768	0	0
4194304	0	0
4325376	0	0
4456448	0	0
4587520	0	0
4718592	0	0
4849664	0	0
4980736	0	0
5111808	0	0
5242880	0	0
5373952	0	0
5505024	16	16
5636096	0	0
5767168	0	0
5898240	0	0
6029312	48	48
6160384	16	16
6291456	0	0
6422528	16	16
6553600	0	0
6684672	0	0
6815744	0	0
6946816	0	0
7077888	0	0
7208960	0	0
7340032	48	48
7471104	16	16
7602176	0	0
7733248	0	0
7864320	0	0
7995392	0	0
8126464	0	0
8257536	0	0
8388608	0	0
8650752	0	0
8912896	0	0
9175040	0	0
9437184	0	0
9699328	0	0
9961472	0	0
10223616	0	0
10485760	0	0
10747904	0	0
11010048	0	0
11272192	0	0
11534336	0	0
11796480	0	0
12058624	0	0
12320768	0	0
12582912	0	0
12845056	0	0
13107200	0	0
13369344	0	0
13631488	0	0
13893632	0	0
14155776	0	0
14417920	0	0
14680064	0	0
14942208	0	0
15204352	0	0
15466496	0	0
15728640	0	0
15990784	0	0
16252928	0	0
16515072	0	0
16777216	0	0
17301504	0	0
17825792	0	0
18350080	0	0
18874368	0	0
19398656	0	0
19922944	0	0
20447232	0	0
20971520	0	0
21495808	0	0
22020096	0	0
22544384	0	0
23068672	0	0
23592960	0	0
24117248	0	0
24641536	0	0
25165824	0	0
25690112	0	0
26214400	0	0
26738688	0	0
27262976	0	0
27787264	0	0
28311552	0	0
28835840	0	0
29360128	0	0
29884416	0	0
30408704	0	0
30932992	0	0
31457280	0	0
31981568	0	0
32505856	0	0
33030144	0	0
33554432	0	0
34603008	0	0
35651584	0	0
36700160	0	0
37748736	0	0
38797312	0	0
39845888	0	0
40894464	0	0
41943040	0	0
42991616	0	0
44040192	0	0
45088768	0	0
46137344	0	0
47185920	16	16
48234496	0	0
49283072	0	0
50331648	0	0
51380224	0	0
52428800	0	0
53477376	0	0
54525952	0	0
55574528	0	0
56623104	0	0
57671680	0	0
58720256	0	0
59768832	0	0
60817408	0	0
61865984	0	0
62914560	0	0
63963136	0	0
65011712	0	0
66060288	0	0
67108864	0	0
69206016	0	0
71303168	0	0
73400320	0	0
75497472	0	0
77594624	0	0
79691776	0	0
81788928	0	0
83886080	0	0
85983232	0	0
88080384	0	0
90177536	0	0
92274688	0	0
94371840	0	0
96468992	0	0
98566144	0	0
100663296	0	0
102760448	0	0
104857600	0	0
106954752	0	0
109051904	0	0
111149056	0	0
113246208	0	0
115343360	0	0
117440512	0	0
119537664	0	0
121634816	0	0
123731968	0	0
125829120	0	0
127926272	0	0
130023424	0	0
132120576	0	0
134217728	0	0
138412032	0	0
142606336	0	0
146800640	0	0
150994944	0	0
155189248	0	0
159383552	0	0
163577856	0	0
167772160	0	0
171966464	0	0
176160768	0	0
180355072	0	0
184549376	0	0
188743680	0	0
192937984	0	0
197132288	0	0
201326592	0	0
205520896	0	0
209715200	0	0
213909504	0	0
218103808	0	0
222298112	0	0
226492416	0	0
230686720	0	0
234881024	0	0
239075328	0	0
243269632	0	0
247463936	0	0
251658240	0	0
255852544	0	0
260046848	0	0
264241152	0	0
268435456	0	0
276824064	0	0
285212672	0	0
293601280	0	0
301989888	0	0
310378496	0	0
318767104	0	0
327155712	0	0
335544320	0	0
343932928	0	0
352321536	0	0
360710144	0	0
369098752	0	0
377487360	0	0
385875968	0	0
394264576	0	0
402653184	0	0
411041792	0	0
419430400	0	0
427819008	0	0
436207616	0	0
444596224	0	0
452984832	0	0
461373440	0	0
469762048	0	0
478150656	0	0
486539264	0	0
494927872	0	0
503316480	0	0
511705088	0	0
520093696	0	0
528482304	0	0
536870912	0	0
553648128	0	0
570425344	0	0
587202560	0	0
603979776	0	0
620756992	0	0
637534208	0	0
654311424	0	0
671088640	0	0
687865856	0	0
704643072	0	0
721420288	0	0
738197504	0	0
754974720	0	0
771751936	0	0
788529152	0	0
805306368	0	0
822083584	0	0
838860800	0	0
855638016	0	0
872415232	0	0
889192448	0	0
905969664	0	0
922746880	0	0
939524096	0	0
956301312	0	0
973078528	0	0
989855744	0	0
1006632960	0	0
1023410176	0	0
1040187392	0	0
1056964608	0	0
1073741824	0	0
1107296256	0	0
1140850688	0	0
1174405120	0	0
1207959552	0	0
1241513984	0	0
1275068416	0	0
1308622848	0	0
1342177280	0	0
1375731712	0	0
1409286144	0	0
1442840576	0	0
1476395008	0	0
1509949440	0	0
1543503872	0	0
1577058304	0	0
1610612736	0	0
1644167168	0	0
1677721600	0	0
1711276032	0	0
1744830464	0	0
1778384896	0	0
1811939328	0	0
1845493760	0	0
1879048192	0	0
1912602624	0	0
1946157056	0	0
1979711488	0	0
2013265920	0	0
2046820352	0	0
2080374784	0	0
2113929216	0	0
2147483648	0	0
2214592512	0	0
2281701376	0	0
2348810240	0	0
2415919104	0	0
2483027968	0	0
2550136832	0	0
2617245696	0	0
2684354560	0	0
2751463424	0	0
2818572288	0	0
2885681152	0	0
2952790016	0	0
3019898880	0	0
3087007744	0	0
3154116608	0	0
3221225472	0	0
3288334336	0	0
3355443200	0	0
3422552064	0	0
3489660928	0	0
3556769792	0	0
3623878656	0	0
3690987520	0	0
3758096384	0	0
3825205248	0	0
3892314112	0	0
3959422976	0	0
4026531840	0	0
4093640704	0	0
4160749568	0	0
4227858432	0	0
~~~~~~~~~~Reuse Distance Profiler output end~~~~~~~~~~

Sampler size:29624

DRAM Statistics
 CHANNEL 0
 RQ ROW_BUFFER_HIT:        986  ROW_BUFFER_MISS:     399020
 DBUS AVG_CONGESTED_CYCLE:    3.92478
 WQ ROW_BUFFER_HIT:      35511  ROW_BUFFER_MISS:     327940  FULL:          0


CPU 0 Branch Prediction Accuracy: 80.8989% MPKI: 27.7866 Average ROB Occupancy at Mispredict: 47.0676
Branch type MPKI
BRANCH_DIRECT_JUMP: 6.66667e-07
BRANCH_INDIRECT: 0
BRANCH_CONDITIONAL: 27.7866
BRANCH_DIRECT_CALL: 0
BRANCH_INDIRECT_CALL: 0
BRANCH_RETURN: 0

