
*** ChampSim Multicore Out-of-Order Simulator ***

Warmup Instructions: 50000000
Simulation Instructions: 1500000000
Number of CPUs: 1
Off-chip DRAM Size: 4 GiB Channels: 1 Width: 64-bit Data Rate: 3200 MT/s

VirtualMemory physical capacity: 8588881920 num_ppages: 2096895
VirtualMemory page size: 4096 log2_page_size: 12

CPU 0 runs /s/traces/champsim_traces/605.mcf_s-994B.champsimtrace.xz
CPU 0 Bimodal branch predictor
Basic BTB sets: 1024 ways: 8 indirect buffer size: 4096 RAS size: 64
Initializing LRU.
Initializing LRU.
Initializing LRU.
Initializing LRU.
Initializing rdLRU.
Initializing LRU.
Initializing LRU.
Heartbeat CPU 0 instructions: 2000002 cycles: 584150 heartbeat IPC: 3.42378 cumulative IPC: 3.42378 (Simulation time: 0 hr 1 min 29 sec) 
Heartbeat CPU 0 instructions: 4000002 cycles: 1169342 heartbeat IPC: 3.41768 cumulative IPC: 3.42073 (Simulation time: 0 hr 3 min 1 sec) 
Heartbeat CPU 0 instructions: 6000001 cycles: 1751461 heartbeat IPC: 3.43572 cumulative IPC: 3.42571 (Simulation time: 0 hr 4 min 29 sec) 
Heartbeat CPU 0 instructions: 8000002 cycles: 2330947 heartbeat IPC: 3.45134 cumulative IPC: 3.43208 (Simulation time: 0 hr 5 min 49 sec) 
Heartbeat CPU 0 instructions: 10000002 cycles: 2902213 heartbeat IPC: 3.501 cumulative IPC: 3.44565 (Simulation time: 0 hr 7 min 13 sec) 
Heartbeat CPU 0 instructions: 12000001 cycles: 3503432 heartbeat IPC: 3.32657 cumulative IPC: 3.42521 (Simulation time: 0 hr 8 min 44 sec) 
Heartbeat CPU 0 instructions: 14000000 cycles: 4100446 heartbeat IPC: 3.35 cumulative IPC: 3.41426 (Simulation time: 0 hr 10 min 17 sec) 
Heartbeat CPU 0 instructions: 16000001 cycles: 4672025 heartbeat IPC: 3.49908 cumulative IPC: 3.42464 (Simulation time: 0 hr 11 min 44 sec) 
Heartbeat CPU 0 instructions: 18000003 cycles: 5251778 heartbeat IPC: 3.44975 cumulative IPC: 3.42741 (Simulation time: 0 hr 13 min 17 sec) 
Heartbeat CPU 0 instructions: 20000003 cycles: 5844077 heartbeat IPC: 3.37667 cumulative IPC: 3.42227 (Simulation time: 0 hr 14 min 54 sec) 
Heartbeat CPU 0 instructions: 22000004 cycles: 6415407 heartbeat IPC: 3.50061 cumulative IPC: 3.42925 (Simulation time: 0 hr 16 min 27 sec) 
Heartbeat CPU 0 instructions: 24000003 cycles: 6981463 heartbeat IPC: 3.53322 cumulative IPC: 3.43768 (Simulation time: 0 hr 17 min 57 sec) 
Heartbeat CPU 0 instructions: 26000000 cycles: 7611425 heartbeat IPC: 3.17479 cumulative IPC: 3.41592 (Simulation time: 0 hr 19 min 41 sec) 
Heartbeat CPU 0 instructions: 28000002 cycles: 8199441 heartbeat IPC: 3.40127 cumulative IPC: 3.41487 (Simulation time: 0 hr 21 min 17 sec) 
Heartbeat CPU 0 instructions: 30000001 cycles: 8782986 heartbeat IPC: 3.42733 cumulative IPC: 3.41569 (Simulation time: 0 hr 22 min 50 sec) 
Heartbeat CPU 0 instructions: 32000000 cycles: 9348906 heartbeat IPC: 3.53407 cumulative IPC: 3.42286 (Simulation time: 0 hr 24 min 19 sec) 
Heartbeat CPU 0 instructions: 34000001 cycles: 9920873 heartbeat IPC: 3.49671 cumulative IPC: 3.42712 (Simulation time: 0 hr 25 min 49 sec) 
Heartbeat CPU 0 instructions: 36000000 cycles: 10513184 heartbeat IPC: 3.3766 cumulative IPC: 3.42427 (Simulation time: 0 hr 27 min 22 sec) 
Heartbeat CPU 0 instructions: 38000001 cycles: 11097986 heartbeat IPC: 3.41996 cumulative IPC: 3.42404 (Simulation time: 0 hr 28 min 51 sec) 
Heartbeat CPU 0 instructions: 40000000 cycles: 11679058 heartbeat IPC: 3.44191 cumulative IPC: 3.42493 (Simulation time: 0 hr 30 min 20 sec) 
Heartbeat CPU 0 instructions: 42000000 cycles: 12247323 heartbeat IPC: 3.51948 cumulative IPC: 3.42932 (Simulation time: 0 hr 31 min 45 sec) 
Heartbeat CPU 0 instructions: 44000000 cycles: 12850001 heartbeat IPC: 3.31852 cumulative IPC: 3.42412 (Simulation time: 0 hr 33 min 20 sec) 
Heartbeat CPU 0 instructions: 46000002 cycles: 13498315 heartbeat IPC: 3.08493 cumulative IPC: 3.40783 (Simulation time: 0 hr 35 min 4 sec) 
Heartbeat CPU 0 instructions: 48000000 cycles: 14150862 heartbeat IPC: 3.06491 cumulative IPC: 3.39202 (Simulation time: 0 hr 36 min 34 sec) 
Heartbeat CPU 0 instructions: 50000002 cycles: 14810539 heartbeat IPC: 3.03179 cumulative IPC: 3.37597 (Simulation time: 0 hr 37 min 54 sec) 

Warmup complete CPU 0 instructions: 50000002 cycles: 14810539 (Simulation time: 0 hr 37 min 54 sec) 

Heartbeat CPU 0 instructions: 52000003 cycles: 29724783 heartbeat IPC: 0.1341 cumulative IPC: 0.1341 (Simulation time: 0 hr 40 min 47 sec) 

Region of Interest Statistics
cpu0_DTLB TOTAL     ACCESS:     660041  HIT:     604791  MISS:      55250
cpu0_DTLB LOAD      ACCESS:     523956  HIT:     468706  MISS:      55250
cpu0_DTLB RFO       ACCESS:     136085  HIT:     136085  MISS:          0
cpu0_DTLB PREFETCH  ACCESS:          0  HIT:          0  MISS:          0
cpu0_DTLB WRITEBACK ACCESS:          0  HIT:          0  MISS:          0
cpu0_ITLB TOTAL     ACCESS:     353243  HIT:     353243  MISS:          0
cpu0_ITLB LOAD      ACCESS:     353243  HIT:     353243  MISS:          0
cpu0_ITLB RFO       ACCESS:          0  HIT:          0  MISS:          0
cpu0_ITLB PREFETCH  ACCESS:          0  HIT:          0  MISS:          0
cpu0_ITLB WRITEBACK ACCESS:          0  HIT:          0  MISS:          0
cpu0_L1I TOTAL     ACCESS:         17  HIT:         17  MISS:          0
cpu0_L1I LOAD      ACCESS:         17  HIT:         17  MISS:          0
cpu0_L1I RFO       ACCESS:          0  HIT:          0  MISS:          0
cpu0_L1I PREFETCH  ACCESS:          0  HIT:          0  MISS:          0
cpu0_L1I WRITEBACK ACCESS:          0  HIT:          0  MISS:          0
cpu0_STLB TOTAL     ACCESS:      55250  HIT:      12705  MISS:      42545
cpu0_STLB LOAD      ACCESS:      55250  HIT:      12705  MISS:      42545
cpu0_STLB RFO       ACCESS:          0  HIT:          0  MISS:          0
cpu0_STLB PREFETCH  ACCESS:          0  HIT:          0  MISS:          0
cpu0_STLB WRITEBACK ACCESS:          0  HIT:          0  MISS:          0
cpu0_L1D TOTAL     ACCESS:     848134  HIT:     724013  MISS:     124121
cpu0_L1D LOAD      ACCESS:     630534  HIT:     508270  MISS:     122264
cpu0_L1D RFO       ACCESS:     175240  HIT:     175226  MISS:         14
cpu0_L1D PREFETCH  ACCESS:          0  HIT:          0  MISS:          0
cpu0_L1D WRITEBACK ACCESS:          0  HIT:          0  MISS:          0
cpu0_L2C TOTAL     ACCESS:     133315  HIT:      15061  MISS:     118254
cpu0_L2C LOAD      ACCESS:     122264  HIT:       4407  MISS:     117857
cpu0_L2C RFO       ACCESS:         14  HIT:          0  MISS:         14
cpu0_L2C PREFETCH  ACCESS:          0  HIT:          0  MISS:          0
cpu0_L2C WRITEBACK ACCESS:       9194  HIT:       9186  MISS:          8
LLC TOTAL     ACCESS:     127309  HIT:      20401  MISS:     106908
LLC LOAD      ACCESS:     117857  HIT:      11071  MISS:     106786
LLC RFO       ACCESS:         14  HIT:          0  MISS:         14
LLC PREFETCH  ACCESS:          0  HIT:          0  MISS:          0
LLC WRITEBACK ACCESS:       9063  HIT:       9059  MISS:          4
Heartbeat CPU 0 instructions: 54000002 cycles: 32183803 heartbeat IPC: 0.813332 cumulative IPC: 0.230239 (Simulation time: 0 hr 41 min 29 sec) 

Region of Interest Statistics
cpu0_DTLB TOTAL     ACCESS:    1202646  HIT:    1123581  MISS:      79065
cpu0_DTLB LOAD      ACCESS:     949229  HIT:     870194  MISS:      79035
cpu0_DTLB RFO       ACCESS:     253417  HIT:     253387  MISS:         30
cpu0_DTLB PREFETCH  ACCESS:          0  HIT:          0  MISS:          0
cpu0_DTLB WRITEBACK ACCESS:          0  HIT:          0  MISS:          0
cpu0_ITLB TOTAL     ACCESS:     672318  HIT:     672318  MISS:          0
cpu0_ITLB LOAD      ACCESS:     672318  HIT:     672318  MISS:          0
cpu0_ITLB RFO       ACCESS:          0  HIT:          0  MISS:          0
cpu0_ITLB PREFETCH  ACCESS:          0  HIT:          0  MISS:          0
cpu0_ITLB WRITEBACK ACCESS:          0  HIT:          0  MISS:          0
cpu0_L1I TOTAL     ACCESS:        430  HIT:        430  MISS:          0
cpu0_L1I LOAD      ACCESS:        430  HIT:        430  MISS:          0
cpu0_L1I RFO       ACCESS:          0  HIT:          0  MISS:          0
cpu0_L1I PREFETCH  ACCESS:          0  HIT:          0  MISS:          0
cpu0_L1I WRITEBACK ACCESS:          0  HIT:          0  MISS:          0
cpu0_STLB TOTAL     ACCESS:      79065  HIT:      28946  MISS:      50119
cpu0_STLB LOAD      ACCESS:      79035  HIT:      28920  MISS:      50115
cpu0_STLB RFO       ACCESS:         30  HIT:         26  MISS:          4
cpu0_STLB PREFETCH  ACCESS:          0  HIT:          0  MISS:          0
cpu0_STLB WRITEBACK ACCESS:          0  HIT:          0  MISS:          0
cpu0_L1D TOTAL     ACCESS:    1586938  HIT:    1398088  MISS:     188850
cpu0_L1D LOAD      ACCESS:    1156181  HIT:     970013  MISS:     186168
cpu0_L1D RFO       ACCESS:     380942  HIT:     380254  MISS:        688
cpu0_L1D PREFETCH  ACCESS:          0  HIT:          0  MISS:          0
cpu0_L1D WRITEBACK ACCESS:          0  HIT:          0  MISS:          0
cpu0_L2C TOTAL     ACCESS:     202389  HIT:      56900  MISS:     145489
cpu0_L2C LOAD      ACCESS:     186168  HIT:      41263  MISS:     144905
cpu0_L2C RFO       ACCESS:        688  HIT:        548  MISS:        140
cpu0_L2C PREFETCH  ACCESS:          0  HIT:          0  MISS:          0
cpu0_L2C WRITEBACK ACCESS:      13539  HIT:      13522  MISS:         17
LLC TOTAL     ACCESS:     156290  HIT:      44558  MISS:     111732
LLC LOAD      ACCESS:     144905  HIT:      33400  MISS:     111505
LLC RFO       ACCESS:        140  HIT:         32  MISS:        108
LLC PREFETCH  ACCESS:          0  HIT:          0  MISS:          0
LLC WRITEBACK ACCESS:      10818  HIT:      10810  MISS:          8
Heartbeat CPU 0 instructions: 56000001 cycles: 34102348 heartbeat IPC: 1.04246 cumulative IPC: 0.311013 (Simulation time: 0 hr 42 min 19 sec) 

Region of Interest Statistics
cpu0_DTLB TOTAL     ACCESS:    1730201  HIT:    1632520  MISS:      97681
cpu0_DTLB LOAD      ACCESS:    1359797  HIT:    1262178  MISS:      97619
cpu0_DTLB RFO       ACCESS:     370404  HIT:     370342  MISS:         62
cpu0_DTLB PREFETCH  ACCESS:          0  HIT:          0  MISS:          0
cpu0_DTLB WRITEBACK ACCESS:          0  HIT:          0  MISS:          0
cpu0_ITLB TOTAL     ACCESS:     986881  HIT:     986881  MISS:          0
cpu0_ITLB LOAD      ACCESS:     986881  HIT:     986881  MISS:          0
cpu0_ITLB RFO       ACCESS:          0  HIT:          0  MISS:          0
cpu0_ITLB PREFETCH  ACCESS:          0  HIT:          0  MISS:          0
cpu0_ITLB WRITEBACK ACCESS:          0  HIT:          0  MISS:          0
cpu0_L1I TOTAL     ACCESS:        939  HIT:        939  MISS:          0
cpu0_L1I LOAD      ACCESS:        939  HIT:        939  MISS:          0
cpu0_L1I RFO       ACCESS:          0  HIT:          0  MISS:          0
cpu0_L1I PREFETCH  ACCESS:          0  HIT:          0  MISS:          0
cpu0_L1I WRITEBACK ACCESS:          0  HIT:          0  MISS:          0
cpu0_STLB TOTAL     ACCESS:      97681  HIT:      44140  MISS:      53541
cpu0_STLB LOAD      ACCESS:      97619  HIT:      44083  MISS:      53536
cpu0_STLB RFO       ACCESS:         62  HIT:         57  MISS:          5
cpu0_STLB PREFETCH  ACCESS:          0  HIT:          0  MISS:          0
cpu0_STLB WRITEBACK ACCESS:          0  HIT:          0  MISS:          0
cpu0_L1D TOTAL     ACCESS:    2310625  HIT:    2075747  MISS:     234878
cpu0_L1D LOAD      ACCESS:    1663161  HIT:    1431724  MISS:     231437
cpu0_L1D RFO       ACCESS:     594312  HIT:     592942  MISS:       1370
cpu0_L1D PREFETCH  ACCESS:          0  HIT:          0  MISS:          0
cpu0_L1D WRITEBACK ACCESS:          0  HIT:          0  MISS:          0
cpu0_L2C TOTAL     ACCESS:     251828  HIT:      93339  MISS:     158489
cpu0_L2C LOAD      ACCESS:     231437  HIT:      73635  MISS:     157802
cpu0_L2C RFO       ACCESS:       1370  HIT:       1159  MISS:        211
cpu0_L2C PREFETCH  ACCESS:          0  HIT:          0  MISS:          0
cpu0_L2C WRITEBACK ACCESS:      16950  HIT:      16929  MISS:         21
LLC TOTAL     ACCESS:     170059  HIT:      58079  MISS:     111980
LLC LOAD      ACCESS:     157802  HIT:      46052  MISS:     111750
LLC RFO       ACCESS:        211  HIT:        103  MISS:        108
LLC PREFETCH  ACCESS:          0  HIT:          0  MISS:          0
LLC WRITEBACK ACCESS:      11591  HIT:      11583  MISS:          8
Heartbeat CPU 0 instructions: 58000004 cycles: 37033127 heartbeat IPC: 0.682413 cumulative IPC: 0.359994 (Simulation time: 0 hr 43 min 23 sec) 

Region of Interest Statistics
cpu0_DTLB TOTAL     ACCESS:    2274810  HIT:    2152636  MISS:     122174
cpu0_DTLB LOAD      ACCESS:    1787985  HIT:    1665897  MISS:     122088
cpu0_DTLB RFO       ACCESS:     486825  HIT:     486739  MISS:         86
cpu0_DTLB PREFETCH  ACCESS:          0  HIT:          0  MISS:          0
cpu0_DTLB WRITEBACK ACCESS:          0  HIT:          0  MISS:          0
cpu0_ITLB TOTAL     ACCESS:    1307040  HIT:    1307040  MISS:          0
cpu0_ITLB LOAD      ACCESS:    1307040  HIT:    1307040  MISS:          0
cpu0_ITLB RFO       ACCESS:          0  HIT:          0  MISS:          0
cpu0_ITLB PREFETCH  ACCESS:          0  HIT:          0  MISS:          0
cpu0_ITLB WRITEBACK ACCESS:          0  HIT:          0  MISS:          0
cpu0_L1I TOTAL     ACCESS:       1537  HIT:       1537  MISS:          0
cpu0_L1I LOAD      ACCESS:       1537  HIT:       1537  MISS:          0
cpu0_L1I RFO       ACCESS:          0  HIT:          0  MISS:          0
cpu0_L1I PREFETCH  ACCESS:          0  HIT:          0  MISS:          0
cpu0_L1I WRITEBACK ACCESS:          0  HIT:          0  MISS:          0
cpu0_STLB TOTAL     ACCESS:     122174  HIT:      56732  MISS:      65442
cpu0_STLB LOAD      ACCESS:     122088  HIT:      56652  MISS:      65436
cpu0_STLB RFO       ACCESS:         86  HIT:         80  MISS:          6
cpu0_STLB PREFETCH  ACCESS:          0  HIT:          0  MISS:          0
cpu0_STLB WRITEBACK ACCESS:          0  HIT:          0  MISS:          0
cpu0_L1D TOTAL     ACCESS:    3044936  HIT:    2742577  MISS:     302359
cpu0_L1D LOAD      ACCESS:    2187203  HIT:    1889181  MISS:     298022
cpu0_L1D RFO       ACCESS:     792813  HIT:     790965  MISS:       1848
cpu0_L1D PREFETCH  ACCESS:          0  HIT:          0  MISS:          0
cpu0_L1D WRITEBACK ACCESS:          0  HIT:          0  MISS:          0
cpu0_L2C TOTAL     ACCESS:     323867  HIT:     126421  MISS:     197446
cpu0_L2C LOAD      ACCESS:     298021  HIT:     101511  MISS:     196510
cpu0_L2C RFO       ACCESS:       1848  HIT:       1530  MISS:        318
cpu0_L2C PREFETCH  ACCESS:          0  HIT:          0  MISS:          0
cpu0_L2C WRITEBACK ACCESS:      21509  HIT:      21478  MISS:         31
LLC TOTAL     ACCESS:     211631  HIT:      88218  MISS:     123413
LLC LOAD      ACCESS:     196510  HIT:      73385  MISS:     123125
LLC RFO       ACCESS:        318  HIT:        177  MISS:        141
LLC PREFETCH  ACCESS:          0  HIT:          0  MISS:          0
LLC WRITEBACK ACCESS:      14216  HIT:      14208  MISS:          8
Heartbeat CPU 0 instructions: 60000003 cycles: 39000282 heartbeat IPC: 1.0167 cumulative IPC: 0.413398 (Simulation time: 0 hr 44 min 14 sec) 

Region of Interest Statistics
cpu0_DTLB TOTAL     ACCESS:    2802483  HIT:    2656647  MISS:     145836
cpu0_DTLB LOAD      ACCESS:    2199348  HIT:    2053640  MISS:     145708
cpu0_DTLB RFO       ACCESS:     603135  HIT:     603007  MISS:        128
cpu0_DTLB PREFETCH  ACCESS:          0  HIT:          0  MISS:          0
cpu0_DTLB WRITEBACK ACCESS:          0  HIT:          0  MISS:          0
cpu0_ITLB TOTAL     ACCESS:    1621743  HIT:    1621743  MISS:          0
cpu0_ITLB LOAD      ACCESS:    1621743  HIT:    1621743  MISS:          0
cpu0_ITLB RFO       ACCESS:          0  HIT:          0  MISS:          0
cpu0_ITLB PREFETCH  ACCESS:          0  HIT:          0  MISS:          0
cpu0_ITLB WRITEBACK ACCESS:          0  HIT:          0  MISS:          0
cpu0_L1I TOTAL     ACCESS:       2063  HIT:       2063  MISS:          0
cpu0_L1I LOAD      ACCESS:       2063  HIT:       2063  MISS:          0
cpu0_L1I RFO       ACCESS:          0  HIT:          0  MISS:          0
cpu0_L1I PREFETCH  ACCESS:          0  HIT:          0  MISS:          0
cpu0_L1I WRITEBACK ACCESS:          0  HIT:          0  MISS:          0
cpu0_STLB TOTAL     ACCESS:     145836  HIT:      74716  MISS:      71120
cpu0_STLB LOAD      ACCESS:     145708  HIT:      74597  MISS:      71111
cpu0_STLB RFO       ACCESS:        128  HIT:        119  MISS:          9
cpu0_STLB PREFETCH  ACCESS:          0  HIT:          0  MISS:          0
cpu0_STLB WRITEBACK ACCESS:          0  HIT:          0  MISS:          0
cpu0_L1D TOTAL     ACCESS:    3770079  HIT:    3421385  MISS:     348694
cpu0_L1D LOAD      ACCESS:    2694053  HIT:    2350515  MISS:     343538
cpu0_L1D RFO       ACCESS:    1005562  HIT:    1003005  MISS:       2557
cpu0_L1D PREFETCH  ACCESS:          0  HIT:          0  MISS:          0
cpu0_L1D WRITEBACK ACCESS:          0  HIT:          0  MISS:          0
cpu0_L2C TOTAL     ACCESS:     373645  HIT:     165071  MISS:     208574
cpu0_L2C LOAD      ACCESS:     343537  HIT:     136059  MISS:     207478
cpu0_L2C RFO       ACCESS:       2557  HIT:       2122  MISS:        435
cpu0_L2C PREFETCH  ACCESS:          0  HIT:          0  MISS:          0
cpu0_L2C WRITEBACK ACCESS:      24952  HIT:      24918  MISS:         34
LLC TOTAL     ACCESS:     223562  HIT:      99860  MISS:     123702
LLC LOAD      ACCESS:     207478  HIT:      84081  MISS:     123397
LLC RFO       ACCESS:        435  HIT:        279  MISS:        156
LLC PREFETCH  ACCESS:          0  HIT:          0  MISS:          0
LLC WRITEBACK ACCESS:      15022  HIT:      15014  MISS:          8
Heartbeat CPU 0 instructions: 62000002 cycles: 45768457 heartbeat IPC: 0.2955 cumulative IPC: 0.387623 (Simulation time: 0 hr 46 min 4 sec) 

Region of Interest Statistics
cpu0_DTLB TOTAL     ACCESS:    3363510  HIT:    3179968  MISS:     183542
cpu0_DTLB LOAD      ACCESS:    2638008  HIT:    2454622  MISS:     183386
cpu0_DTLB RFO       ACCESS:     725502  HIT:     725346  MISS:        156
cpu0_DTLB PREFETCH  ACCESS:          0  HIT:          0  MISS:          0
cpu0_DTLB WRITEBACK ACCESS:          0  HIT:          0  MISS:          0
cpu0_ITLB TOTAL     ACCESS:    1949181  HIT:    1949181  MISS:          0
cpu0_ITLB LOAD      ACCESS:    1949181  HIT:    1949181  MISS:          0
cpu0_ITLB RFO       ACCESS:          0  HIT:          0  MISS:          0
cpu0_ITLB PREFETCH  ACCESS:          0  HIT:          0  MISS:          0
cpu0_ITLB WRITEBACK ACCESS:          0  HIT:          0  MISS:          0
cpu0_L1I TOTAL     ACCESS:       2507  HIT:       2507  MISS:          0
cpu0_L1I LOAD      ACCESS:       2507  HIT:       2507  MISS:          0
cpu0_L1I RFO       ACCESS:          0  HIT:          0  MISS:          0
cpu0_L1I PREFETCH  ACCESS:          0  HIT:          0  MISS:          0
cpu0_L1I WRITEBACK ACCESS:          0  HIT:          0  MISS:          0
cpu0_STLB TOTAL     ACCESS:     183542  HIT:      91674  MISS:      91868
cpu0_STLB LOAD      ACCESS:     183386  HIT:      91527  MISS:      91859
cpu0_STLB RFO       ACCESS:        156  HIT:        147  MISS:          9
cpu0_STLB PREFETCH  ACCESS:          0  HIT:          0  MISS:          0
cpu0_STLB WRITEBACK ACCESS:          0  HIT:          0  MISS:          0
cpu0_L1D TOTAL     ACCESS:    4538478  HIT:    4112324  MISS:     426154
cpu0_L1D LOAD      ACCESS:    3240278  HIT:    2820674  MISS:     419604
cpu0_L1D RFO       ACCESS:    1207130  HIT:    1204146  MISS:       2984
cpu0_L1D PREFETCH  ACCESS:          0  HIT:          0  MISS:          0
cpu0_L1D WRITEBACK ACCESS:          0  HIT:          0  MISS:          0
cpu0_L2C TOTAL     ACCESS:     456253  HIT:     188849  MISS:     267404
cpu0_L2C LOAD      ACCESS:     419603  HIT:     153516  MISS:     266087
cpu0_L2C RFO       ACCESS:       2984  HIT:       2544  MISS:        440
cpu0_L2C PREFETCH  ACCESS:          0  HIT:          0  MISS:          0
cpu0_L2C WRITEBACK ACCESS:      30100  HIT:      30066  MISS:         34
LLC TOTAL     ACCESS:     286058  HIT:     104887  MISS:     181171
LLC LOAD      ACCESS:     266087  HIT:      85267  MISS:     180820
LLC RFO       ACCESS:        440  HIT:        281  MISS:        159
LLC PREFETCH  ACCESS:          0  HIT:          0  MISS:          0
LLC WRITEBACK ACCESS:      18688  HIT:      18680  MISS:          8
Heartbeat CPU 0 instructions: 64000003 cycles: 56187119 heartbeat IPC: 0.191963 cumulative IPC: 0.338356 (Simulation time: 0 hr 48 min 44 sec) 

Region of Interest Statistics
cpu0_DTLB TOTAL     ACCESS:    3986517  HIT:    3740677  MISS:     245840
cpu0_DTLB LOAD      ACCESS:    3137393  HIT:    2891716  MISS:     245677
cpu0_DTLB RFO       ACCESS:     849124  HIT:     848961  MISS:        163
cpu0_DTLB PREFETCH  ACCESS:          0  HIT:          0  MISS:          0
cpu0_DTLB WRITEBACK ACCESS:          0  HIT:          0  MISS:          0
cpu0_ITLB TOTAL     ACCESS:    2297854  HIT:    2297854  MISS:          0
cpu0_ITLB LOAD      ACCESS:    2297854  HIT:    2297854  MISS:          0
cpu0_ITLB RFO       ACCESS:          0  HIT:          0  MISS:          0
cpu0_ITLB PREFETCH  ACCESS:          0  HIT:          0  MISS:          0
cpu0_ITLB WRITEBACK ACCESS:          0  HIT:          0  MISS:          0
cpu0_L1I TOTAL     ACCESS:       2564  HIT:       2564  MISS:          0
cpu0_L1I LOAD      ACCESS:       2564  HIT:       2564  MISS:          0
cpu0_L1I RFO       ACCESS:          0  HIT:          0  MISS:          0
cpu0_L1I PREFETCH  ACCESS:          0  HIT:          0  MISS:          0
cpu0_L1I WRITEBACK ACCESS:          0  HIT:          0  MISS:          0
cpu0_STLB TOTAL     ACCESS:     245840  HIT:     105113  MISS:     140727
cpu0_STLB LOAD      ACCESS:     245677  HIT:     104963  MISS:     140714
cpu0_STLB RFO       ACCESS:        163  HIT:        150  MISS:         13
cpu0_STLB PREFETCH  ACCESS:          0  HIT:          0  MISS:          0
cpu0_STLB WRITEBACK ACCESS:          0  HIT:          0  MISS:          0
cpu0_L1D TOTAL     ACCESS:    5371797  HIT:    4819447  MISS:     552350
cpu0_L1D LOAD      ACCESS:    3854595  HIT:    3310727  MISS:     543868
cpu0_L1D RFO       ACCESS:    1377609  HIT:    1374475  MISS:       3134
cpu0_L1D PREFETCH  ACCESS:          0  HIT:          0  MISS:          0
cpu0_L1D WRITEBACK ACCESS:          0  HIT:          0  MISS:          0
cpu0_L2C TOTAL     ACCESS:     590456  HIT:     215277  MISS:     375179
cpu0_L2C LOAD      ACCESS:     543867  HIT:     170453  MISS:     373414
cpu0_L2C RFO       ACCESS:       3134  HIT:       2606  MISS:        528
cpu0_L2C PREFETCH  ACCESS:          0  HIT:          0  MISS:          0
cpu0_L2C WRITEBACK ACCESS:      38107  HIT:      38055  MISS:         52
LLC TOTAL     ACCESS:     400625  HIT:     138298  MISS:     262327
LLC LOAD      ACCESS:     373414  HIT:     111632  MISS:     261782
LLC RFO       ACCESS:        528  HIT:        282  MISS:        246
LLC PREFETCH  ACCESS:          0  HIT:          0  MISS:          0
LLC WRITEBACK ACCESS:      25498  HIT:      25482  MISS:         16
Heartbeat CPU 0 instructions: 66000000 cycles: 58509288 heartbeat IPC: 0.861262 cumulative IPC: 0.366143 (Simulation time: 0 hr 49 min 42 sec) 

Region of Interest Statistics
cpu0_DTLB TOTAL     ACCESS:    4517135  HIT:    4238664  MISS:     278471
cpu0_DTLB LOAD      ACCESS:    3549257  HIT:    3270998  MISS:     278259
cpu0_DTLB RFO       ACCESS:     967878  HIT:     967666  MISS:        212
cpu0_DTLB PREFETCH  ACCESS:          0  HIT:          0  MISS:          0
cpu0_DTLB WRITEBACK ACCESS:          0  HIT:          0  MISS:          0
cpu0_ITLB TOTAL     ACCESS:    2615550  HIT:    2615550  MISS:          0
cpu0_ITLB LOAD      ACCESS:    2615550  HIT:    2615550  MISS:          0
cpu0_ITLB RFO       ACCESS:          0  HIT:          0  MISS:          0
cpu0_ITLB PREFETCH  ACCESS:          0  HIT:          0  MISS:          0
cpu0_ITLB WRITEBACK ACCESS:          0  HIT:          0  MISS:          0
cpu0_L1I TOTAL     ACCESS:       2997  HIT:       2997  MISS:          0
cpu0_L1I LOAD      ACCESS:       2997  HIT:       2997  MISS:          0
cpu0_L1I RFO       ACCESS:          0  HIT:          0  MISS:          0
cpu0_L1I PREFETCH  ACCESS:          0  HIT:          0  MISS:          0
cpu0_L1I WRITEBACK ACCESS:          0  HIT:          0  MISS:          0
cpu0_STLB TOTAL     ACCESS:     278471  HIT:     127222  MISS:     151249
cpu0_STLB LOAD      ACCESS:     278259  HIT:     127025  MISS:     151234
cpu0_STLB RFO       ACCESS:        212  HIT:        197  MISS:         15
cpu0_STLB PREFETCH  ACCESS:          0  HIT:          0  MISS:          0
cpu0_STLB WRITEBACK ACCESS:          0  HIT:          0  MISS:          0
cpu0_L1D TOTAL     ACCESS:    6110422  HIT:    5516805  MISS:     593617
cpu0_L1D LOAD      ACCESS:    4362605  HIT:    3778673  MISS:     583932
cpu0_L1D RFO       ACCESS:    1597775  HIT:    1593986  MISS:       3789
cpu0_L1D PREFETCH  ACCESS:          0  HIT:          0  MISS:          0
cpu0_L1D WRITEBACK ACCESS:          0  HIT:          0  MISS:          0
cpu0_L2C TOTAL     ACCESS:     635051  HIT:     245218  MISS:     389833
cpu0_L2C LOAD      ACCESS:     583931  HIT:     196020  MISS:     387911
cpu0_L2C RFO       ACCESS:       3789  HIT:       3175  MISS:        614
cpu0_L2C PREFETCH  ACCESS:          0  HIT:          0  MISS:          0
cpu0_L2C WRITEBACK ACCESS:      41435  HIT:      41379  MISS:         56
LLC TOTAL     ACCESS:     416376  HIT:     153666  MISS:     262710
LLC LOAD      ACCESS:     387911  HIT:     125766  MISS:     262145
LLC RFO       ACCESS:        614  HIT:        353  MISS:        261
LLC PREFETCH  ACCESS:          0  HIT:          0  MISS:          0
LLC WRITEBACK ACCESS:      26599  HIT:      26582  MISS:         17
Heartbeat CPU 0 instructions: 68000000 cycles: 60485682 heartbeat IPC: 1.01194 cumulative IPC: 0.394087 (Simulation time: 0 hr 50 min 31 sec) 

Region of Interest Statistics
cpu0_DTLB TOTAL     ACCESS:    5039112  HIT:    4726967  MISS:     312145
cpu0_DTLB LOAD      ACCESS:    3955247  HIT:    3643373  MISS:     311874
cpu0_DTLB RFO       ACCESS:    1083865  HIT:    1083594  MISS:        271
cpu0_DTLB PREFETCH  ACCESS:          0  HIT:          0  MISS:          0
cpu0_DTLB WRITEBACK ACCESS:          0  HIT:          0  MISS:          0
cpu0_ITLB TOTAL     ACCESS:    2928330  HIT:    2928330  MISS:          0
cpu0_ITLB LOAD      ACCESS:    2928330  HIT:    2928330  MISS:          0
cpu0_ITLB RFO       ACCESS:          0  HIT:          0  MISS:          0
cpu0_ITLB PREFETCH  ACCESS:          0  HIT:          0  MISS:          0
cpu0_ITLB WRITEBACK ACCESS:          0  HIT:          0  MISS:          0
cpu0_L1I TOTAL     ACCESS:       3551  HIT:       3551  MISS:          0
cpu0_L1I LOAD      ACCESS:       3551  HIT:       3551  MISS:          0
cpu0_L1I RFO       ACCESS:          0  HIT:          0  MISS:          0
cpu0_L1I PREFETCH  ACCESS:          0  HIT:          0  MISS:          0
cpu0_L1I WRITEBACK ACCESS:          0  HIT:          0  MISS:          0
cpu0_STLB TOTAL     ACCESS:     312145  HIT:     151344  MISS:     160801
cpu0_STLB LOAD      ACCESS:     311874  HIT:     151091  MISS:     160783
cpu0_STLB RFO       ACCESS:        271  HIT:        253  MISS:         18
cpu0_STLB PREFETCH  ACCESS:          0  HIT:          0  MISS:          0
cpu0_STLB WRITEBACK ACCESS:          0  HIT:          0  MISS:          0
cpu0_L1D TOTAL     ACCESS:    6841694  HIT:    6202007  MISS:     639687
cpu0_L1D LOAD      ACCESS:    4868370  HIT:    4239359  MISS:     629011
cpu0_L1D RFO       ACCESS:    1813926  HIT:    1809417  MISS:       4509
cpu0_L1D PREFETCH  ACCESS:          0  HIT:          0  MISS:          0
cpu0_L1D WRITEBACK ACCESS:          0  HIT:          0  MISS:          0
cpu0_L2C TOTAL     ACCESS:     684347  HIT:     283546  MISS:     400801
cpu0_L2C LOAD      ACCESS:     629010  HIT:     230269  MISS:     398741
cpu0_L2C RFO       ACCESS:       4509  HIT:       3822  MISS:        687
cpu0_L2C PREFETCH  ACCESS:          0  HIT:          0  MISS:          0
cpu0_L2C WRITEBACK ACCESS:      44661  HIT:      44601  MISS:         60
LLC TOTAL     ACCESS:     428037  HIT:     164842  MISS:     263195
LLC LOAD      ACCESS:     398741  HIT:     136114  MISS:     262627
LLC RFO       ACCESS:        687  HIT:        426  MISS:        261
LLC PREFETCH  ACCESS:          0  HIT:          0  MISS:          0
LLC WRITEBACK ACCESS:      27296  HIT:      27279  MISS:         17
Heartbeat CPU 0 instructions: 70000000 cycles: 64481415 heartbeat IPC: 0.500534 cumulative IPC: 0.40265 (Simulation time: 0 hr 52 min 6 sec) 

Region of Interest Statistics
cpu0_DTLB TOTAL     ACCESS:    5585889  HIT:    5228384  MISS:     357505
cpu0_DTLB LOAD      ACCESS:    4389226  HIT:    4032039  MISS:     357187
cpu0_DTLB RFO       ACCESS:    1196663  HIT:    1196345  MISS:        318
cpu0_DTLB PREFETCH  ACCESS:          0  HIT:          0  MISS:          0
cpu0_DTLB WRITEBACK ACCESS:          0  HIT:          0  MISS:          0
cpu0_ITLB TOTAL     ACCESS:    3247882  HIT:    3247882  MISS:          0
cpu0_ITLB LOAD      ACCESS:    3247882  HIT:    3247882  MISS:          0
cpu0_ITLB RFO       ACCESS:          0  HIT:          0  MISS:          0
cpu0_ITLB PREFETCH  ACCESS:          0  HIT:          0  MISS:          0
cpu0_ITLB WRITEBACK ACCESS:          0  HIT:          0  MISS:          0
cpu0_L1I TOTAL     ACCESS:       4374  HIT:       4374  MISS:          0
cpu0_L1I LOAD      ACCESS:       4374  HIT:       4374  MISS:          0
cpu0_L1I RFO       ACCESS:          0  HIT:          0  MISS:          0
cpu0_L1I PREFETCH  ACCESS:          0  HIT:          0  MISS:          0
cpu0_L1I WRITEBACK ACCESS:          0  HIT:          0  MISS:          0
cpu0_STLB TOTAL     ACCESS:     357505  HIT:     170767  MISS:     186738
cpu0_STLB LOAD      ACCESS:     357187  HIT:     170473  MISS:     186714
cpu0_STLB RFO       ACCESS:        318  HIT:        294  MISS:         24
cpu0_STLB PREFETCH  ACCESS:          0  HIT:          0  MISS:          0
cpu0_STLB WRITEBACK ACCESS:          0  HIT:          0  MISS:          0
cpu0_L1D TOTAL     ACCESS:    7592614  HIT:    6868718  MISS:     723896
cpu0_L1D LOAD      ACCESS:    5404069  HIT:    4692046  MISS:     712023
cpu0_L1D RFO       ACCESS:    2003810  HIT:    1998843  MISS:       4967
cpu0_L1D PREFETCH  ACCESS:          0  HIT:          0  MISS:          0
cpu0_L1D WRITEBACK ACCESS:          0  HIT:          0  MISS:          0
cpu0_L2C TOTAL     ACCESS:     773554  HIT:     316417  MISS:     457137
cpu0_L2C LOAD      ACCESS:     712022  HIT:     257188  MISS:     454834
cpu0_L2C RFO       ACCESS:       4967  HIT:       4190  MISS:        777
cpu0_L2C PREFETCH  ACCESS:          0  HIT:          0  MISS:          0
cpu0_L2C WRITEBACK ACCESS:      49659  HIT:      49591  MISS:         68
LLC TOTAL     ACCESS:     487627  HIT:     192152  MISS:     295475
LLC LOAD      ACCESS:     454834  HIT:     160014  MISS:     294820
LLC RFO       ACCESS:        777  HIT:        461  MISS:        316
LLC PREFETCH  ACCESS:          0  HIT:          0  MISS:          0
LLC WRITEBACK ACCESS:      30558  HIT:      30537  MISS:         21
Heartbeat CPU 0 instructions: 72000001 cycles: 67072174 heartbeat IPC: 0.771975 cumulative IPC: 0.420959 (Simulation time: 0 hr 53 min 16 sec) 

Region of Interest Statistics
cpu0_DTLB TOTAL     ACCESS:    6131410  HIT:    5734366  MISS:     397044
cpu0_DTLB LOAD      ACCESS:    4817329  HIT:    4420704  MISS:     396625
cpu0_DTLB RFO       ACCESS:    1314081  HIT:    1313662  MISS:        419
cpu0_DTLB PREFETCH  ACCESS:          0  HIT:          0  MISS:          0
cpu0_DTLB WRITEBACK ACCESS:          0  HIT:          0  MISS:          0
cpu0_ITLB TOTAL     ACCESS:    3568089  HIT:    3568089  MISS:          0
cpu0_ITLB LOAD      ACCESS:    3568089  HIT:    3568089  MISS:          0
cpu0_ITLB RFO       ACCESS:          0  HIT:          0  MISS:          0
cpu0_ITLB PREFETCH  ACCESS:          0  HIT:          0  MISS:          0
cpu0_ITLB WRITEBACK ACCESS:          0  HIT:          0  MISS:          0
cpu0_L1I TOTAL     ACCESS:       4735  HIT:       4735  MISS:          0
cpu0_L1I LOAD      ACCESS:       4735  HIT:       4735  MISS:          0
cpu0_L1I RFO       ACCESS:          0  HIT:          0  MISS:          0
cpu0_L1I PREFETCH  ACCESS:          0  HIT:          0  MISS:          0
cpu0_L1I WRITEBACK ACCESS:          0  HIT:          0  MISS:          0
cpu0_STLB TOTAL     ACCESS:     397044  HIT:     192724  MISS:     204320
cpu0_STLB LOAD      ACCESS:     396625  HIT:     192332  MISS:     204293
cpu0_STLB RFO       ACCESS:        419  HIT:        392  MISS:         27
cpu0_STLB PREFETCH  ACCESS:          0  HIT:          0  MISS:          0
cpu0_STLB WRITEBACK ACCESS:          0  HIT:          0  MISS:          0
cpu0_L1D TOTAL     ACCESS:    8343450  HIT:    7549102  MISS:     794348
cpu0_L1D LOAD      ACCESS:    5933829  HIT:    5152110  MISS:     781719
cpu0_L1D RFO       ACCESS:    2207636  HIT:    2202126  MISS:       5510
cpu0_L1D PREFETCH  ACCESS:          0  HIT:          0  MISS:          0
cpu0_L1D WRITEBACK ACCESS:          0  HIT:          0  MISS:          0
cpu0_L2C TOTAL     ACCESS:     848599  HIT:     353205  MISS:     495394
cpu0_L2C LOAD      ACCESS:     781718  HIT:     288786  MISS:     492932
cpu0_L2C RFO       ACCESS:       5510  HIT:       4635  MISS:        875
cpu0_L2C PREFETCH  ACCESS:          0  HIT:          0  MISS:          0
cpu0_L2C WRITEBACK ACCESS:      54252  HIT:      54173  MISS:         79
LLC TOTAL     ACCESS:     528231  HIT:     229263  MISS:     298968
LLC LOAD      ACCESS:     492932  HIT:     194636  MISS:     298296
LLC RFO       ACCESS:        875  HIT:        545  MISS:        330
LLC PREFETCH  ACCESS:          0  HIT:          0  MISS:          0
LLC WRITEBACK ACCESS:      32916  HIT:      32894  MISS:         22
Heartbeat CPU 0 instructions: 74000000 cycles: 69006547 heartbeat IPC: 1.03393 cumulative IPC: 0.442837 (Simulation time: 0 hr 54 min 12 sec) 

Region of Interest Statistics
cpu0_DTLB TOTAL     ACCESS:    6653826  HIT:    6228540  MISS:     425286
cpu0_DTLB LOAD      ACCESS:    5224431  HIT:    4799626  MISS:     424805
cpu0_DTLB RFO       ACCESS:    1429395  HIT:    1428914  MISS:        481
cpu0_DTLB PREFETCH  ACCESS:          0  HIT:          0  MISS:          0
cpu0_DTLB WRITEBACK ACCESS:          0  HIT:          0  MISS:          0
cpu0_ITLB TOTAL     ACCESS:    3880511  HIT:    3880511  MISS:          0
cpu0_ITLB LOAD      ACCESS:    3880511  HIT:    3880511  MISS:          0
cpu0_ITLB RFO       ACCESS:          0  HIT:          0  MISS:          0
cpu0_ITLB PREFETCH  ACCESS:          0  HIT:          0  MISS:          0
cpu0_ITLB WRITEBACK ACCESS:          0  HIT:          0  MISS:          0
cpu0_L1I TOTAL     ACCESS:       5366  HIT:       5366  MISS:          0
cpu0_L1I LOAD      ACCESS:       5366  HIT:       5366  MISS:          0
cpu0_L1I RFO       ACCESS:          0  HIT:          0  MISS:          0
cpu0_L1I PREFETCH  ACCESS:          0  HIT:          0  MISS:          0
cpu0_L1I WRITEBACK ACCESS:          0  HIT:          0  MISS:          0
cpu0_STLB TOTAL     ACCESS:     425286  HIT:     215584  MISS:     209702
cpu0_STLB LOAD      ACCESS:     424805  HIT:     215132  MISS:     209673
cpu0_STLB RFO       ACCESS:        481  HIT:        452  MISS:         29
cpu0_STLB PREFETCH  ACCESS:          0  HIT:          0  MISS:          0
cpu0_STLB WRITEBACK ACCESS:          0  HIT:          0  MISS:          0
cpu0_L1D TOTAL     ACCESS:    9071349  HIT:    8232149  MISS:     839200
cpu0_L1D LOAD      ACCESS:    6441342  HIT:    5615643  MISS:     825699
cpu0_L1D RFO       ACCESS:    2422840  HIT:    2416532  MISS:       6308
cpu0_L1D PREFETCH  ACCESS:          0  HIT:          0  MISS:          0
cpu0_L1D WRITEBACK ACCESS:          0  HIT:          0  MISS:          0
cpu0_L2C TOTAL     ACCESS:     896746  HIT:     393436  MISS:     503310
cpu0_L2C LOAD      ACCESS:     825698  HIT:     324981  MISS:     500717
cpu0_L2C RFO       ACCESS:       6308  HIT:       5329  MISS:        979
cpu0_L2C PREFETCH  ACCESS:          0  HIT:          0  MISS:          0
cpu0_L2C WRITEBACK ACCESS:      57547  HIT:      57463  MISS:         84
LLC TOTAL     ACCESS:     536660  HIT:     237460  MISS:     299200
LLC LOAD      ACCESS:     500717  HIT:     202197  MISS:     298520
LLC RFO       ACCESS:        979  HIT:        642  MISS:        337
LLC PREFETCH  ACCESS:          0  HIT:          0  MISS:          0
LLC WRITEBACK ACCESS:      33434  HIT:      33412  MISS:         22
Heartbeat CPU 0 instructions: 76000001 cycles: 74255691 heartbeat IPC: 0.381015 cumulative IPC: 0.437378 (Simulation time: 0 hr 55 min 40 sec) 

Region of Interest Statistics
cpu0_DTLB TOTAL     ACCESS:    7206342  HIT:    6747080  MISS:     459262
cpu0_DTLB LOAD      ACCESS:    5661627  HIT:    5202885  MISS:     458742
cpu0_DTLB RFO       ACCESS:    1544715  HIT:    1544195  MISS:        520
cpu0_DTLB PREFETCH  ACCESS:          0  HIT:          0  MISS:          0
cpu0_DTLB WRITEBACK ACCESS:          0  HIT:          0  MISS:          0
cpu0_ITLB TOTAL     ACCESS:    4201560  HIT:    4201560  MISS:          0
cpu0_ITLB LOAD      ACCESS:    4201560  HIT:    4201560  MISS:          0
cpu0_ITLB RFO       ACCESS:          0  HIT:          0  MISS:          0
cpu0_ITLB PREFETCH  ACCESS:          0  HIT:          0  MISS:          0
cpu0_ITLB WRITEBACK ACCESS:          0  HIT:          0  MISS:          0
cpu0_L1I TOTAL     ACCESS:       5670  HIT:       5670  MISS:          0
cpu0_L1I LOAD      ACCESS:       5670  HIT:       5670  MISS:          0
cpu0_L1I RFO       ACCESS:          0  HIT:          0  MISS:          0
cpu0_L1I PREFETCH  ACCESS:          0  HIT:          0  MISS:          0
cpu0_L1I WRITEBACK ACCESS:          0  HIT:          0  MISS:          0
cpu0_STLB TOTAL     ACCESS:     459262  HIT:     233725  MISS:     225537
cpu0_STLB LOAD      ACCESS:     458742  HIT:     233238  MISS:     225504
cpu0_STLB RFO       ACCESS:        520  HIT:        487  MISS:         33
cpu0_STLB PREFETCH  ACCESS:          0  HIT:          0  MISS:          0
cpu0_STLB WRITEBACK ACCESS:          0  HIT:          0  MISS:          0
cpu0_L1D TOTAL     ACCESS:    9827811  HIT:    8907753  MISS:     920058
cpu0_L1D LOAD      ACCESS:    6984740  HIT:    6079126  MISS:     905614
cpu0_L1D RFO       ACCESS:    2620260  HIT:    2613467  MISS:       6793
cpu0_L1D PREFETCH  ACCESS:          0  HIT:          0  MISS:          0
cpu0_L1D WRITEBACK ACCESS:          0  HIT:          0  MISS:          0
cpu0_L2C TOTAL     ACCESS:     982719  HIT:     423063  MISS:     559656
cpu0_L2C LOAD      ACCESS:     905613  HIT:     348711  MISS:     556902
cpu0_L2C RFO       ACCESS:       6793  HIT:       5784  MISS:       1009
cpu0_L2C PREFETCH  ACCESS:          0  HIT:          0  MISS:          0
cpu0_L2C WRITEBACK ACCESS:      62662  HIT:      62571  MISS:         91
LLC TOTAL     ACCESS:     596451  HIT:     254147  MISS:     342304
LLC LOAD      ACCESS:     556902  HIT:     215327  MISS:     341575
LLC RFO       ACCESS:       1009  HIT:        664  MISS:        345
LLC PREFETCH  ACCESS:          0  HIT:          0  MISS:          0
LLC WRITEBACK ACCESS:      36886  HIT:      36861  MISS:         25
Heartbeat CPU 0 instructions: 78000000 cycles: 76202204 heartbeat IPC: 1.02748 cumulative IPC: 0.456088 (Simulation time: 0 hr 56 min 42 sec) 

Region of Interest Statistics
cpu0_DTLB TOTAL     ACCESS:    7740015  HIT:    7252779  MISS:     487236
cpu0_DTLB LOAD      ACCESS:    6081279  HIT:    5594600  MISS:     486679
cpu0_DTLB RFO       ACCESS:    1658736  HIT:    1658179  MISS:        557
cpu0_DTLB PREFETCH  ACCESS:          0  HIT:          0  MISS:          0
cpu0_DTLB WRITEBACK ACCESS:          0  HIT:          0  MISS:          0
cpu0_ITLB TOTAL     ACCESS:    4516297  HIT:    4516297  MISS:          0
cpu0_ITLB LOAD      ACCESS:    4516297  HIT:    4516297  MISS:          0
cpu0_ITLB RFO       ACCESS:          0  HIT:          0  MISS:          0
cpu0_ITLB PREFETCH  ACCESS:          0  HIT:          0  MISS:          0
cpu0_ITLB WRITEBACK ACCESS:          0  HIT:          0  MISS:          0
cpu0_L1I TOTAL     ACCESS:       8189  HIT:       8189  MISS:          0
cpu0_L1I LOAD      ACCESS:       8189  HIT:       8189  MISS:          0
cpu0_L1I RFO       ACCESS:          0  HIT:          0  MISS:          0
cpu0_L1I PREFETCH  ACCESS:          0  HIT:          0  MISS:          0
cpu0_L1I WRITEBACK ACCESS:          0  HIT:          0  MISS:          0
cpu0_STLB TOTAL     ACCESS:     487236  HIT:     252377  MISS:     234859
cpu0_STLB LOAD      ACCESS:     486679  HIT:     251856  MISS:     234823
cpu0_STLB RFO       ACCESS:        557  HIT:        521  MISS:         36
cpu0_STLB PREFETCH  ACCESS:          0  HIT:          0  MISS:          0
cpu0_STLB WRITEBACK ACCESS:          0  HIT:          0  MISS:          0
cpu0_L1D TOTAL     ACCESS:   10556107  HIT:    9573488  MISS:     982619
cpu0_L1D LOAD      ACCESS:    7501527  HIT:    6534178  MISS:     967349
cpu0_L1D RFO       ACCESS:    2822913  HIT:    2815397  MISS:       7516
cpu0_L1D PREFETCH  ACCESS:          0  HIT:          0  MISS:          0
cpu0_L1D WRITEBACK ACCESS:          0  HIT:          0  MISS:          0
cpu0_L2C TOTAL     ACCESS:    1049192  HIT:     467415  MISS:     581777
cpu0_L2C LOAD      ACCESS:     967348  HIT:     388539  MISS:     578809
cpu0_L2C RFO       ACCESS:       7516  HIT:       6337  MISS:       1179
cpu0_L2C PREFETCH  ACCESS:          0  HIT:          0  MISS:          0
cpu0_L2C WRITEBACK ACCESS:      66574  HIT:      66474  MISS:        100
LLC TOTAL     ACCESS:     619828  HIT:     276863  MISS:     342965
LLC LOAD      ACCESS:     578809  HIT:     236662  MISS:     342147
LLC RFO       ACCESS:       1179  HIT:        749  MISS:        430
LLC PREFETCH  ACCESS:          0  HIT:          0  MISS:          0
LLC WRITEBACK ACCESS:      38151  HIT:      38125  MISS:         26
Heartbeat CPU 0 instructions: 80000003 cycles: 79239502 heartbeat IPC: 0.658481 cumulative IPC: 0.465629 (Simulation time: 0 hr 57 min 49 sec) 

Region of Interest Statistics
cpu0_DTLB TOTAL     ACCESS:    8293723  HIT:    7776234  MISS:     517489
cpu0_DTLB LOAD      ACCESS:    6516371  HIT:    5999470  MISS:     516901
cpu0_DTLB RFO       ACCESS:    1777352  HIT:    1776764  MISS:        588
cpu0_DTLB PREFETCH  ACCESS:          0  HIT:          0  MISS:          0
cpu0_DTLB WRITEBACK ACCESS:          0  HIT:          0  MISS:          0
cpu0_ITLB TOTAL     ACCESS:    4840217  HIT:    4840217  MISS:          0
cpu0_ITLB LOAD      ACCESS:    4840217  HIT:    4840217  MISS:          0
cpu0_ITLB RFO       ACCESS:          0  HIT:          0  MISS:          0
cpu0_ITLB PREFETCH  ACCESS:          0  HIT:          0  MISS:          0
cpu0_ITLB WRITEBACK ACCESS:          0  HIT:          0  MISS:          0
cpu0_L1I TOTAL     ACCESS:       8845  HIT:       8845  MISS:          0
cpu0_L1I LOAD      ACCESS:       8845  HIT:       8845  MISS:          0
cpu0_L1I RFO       ACCESS:          0  HIT:          0  MISS:          0
cpu0_L1I PREFETCH  ACCESS:          0  HIT:          0  MISS:          0
cpu0_L1I WRITEBACK ACCESS:          0  HIT:          0  MISS:          0
cpu0_STLB TOTAL     ACCESS:     517489  HIT:     270661  MISS:     246828
cpu0_STLB LOAD      ACCESS:     516901  HIT:     270109  MISS:     246792
cpu0_STLB RFO       ACCESS:        588  HIT:        552  MISS:         36
cpu0_STLB PREFETCH  ACCESS:          0  HIT:          0  MISS:          0
cpu0_STLB WRITEBACK ACCESS:          0  HIT:          0  MISS:          0
cpu0_L1D TOTAL     ACCESS:   11299957  HIT:   10236991  MISS:    1062966
cpu0_L1D LOAD      ACCESS:    8037704  HIT:    6990740  MISS:    1046964
cpu0_L1D RFO       ACCESS:    3018880  HIT:    3010908  MISS:       7972
cpu0_L1D PREFETCH  ACCESS:          0  HIT:          0  MISS:          0
cpu0_L1D WRITEBACK ACCESS:          0  HIT:          0  MISS:          0
cpu0_L2C TOTAL     ACCESS:    1134530  HIT:     501252  MISS:     633278
cpu0_L2C LOAD      ACCESS:    1046963  HIT:     416786  MISS:     630177
cpu0_L2C RFO       ACCESS:       7972  HIT:       6742  MISS:       1230
cpu0_L2C PREFETCH  ACCESS:          0  HIT:          0  MISS:          0
cpu0_L2C WRITEBACK ACCESS:      71565  HIT:      71453  MISS:        112
LLC TOTAL     ACCESS:     674348  HIT:     319600  MISS:     354748
LLC LOAD      ACCESS:     630177  HIT:     276271  MISS:     353906
LLC RFO       ACCESS:       1230  HIT:        791  MISS:        439
LLC PREFETCH  ACCESS:          0  HIT:          0  MISS:          0
LLC WRITEBACK ACCESS:      41182  HIT:      41155  MISS:         27
Heartbeat CPU 0 instructions: 82000003 cycles: 81114456 heartbeat IPC: 1.06669 cumulative IPC: 0.482626 (Simulation time: 0 hr 58 min 34 sec) 

Region of Interest Statistics
cpu0_DTLB TOTAL     ACCESS:    8814423  HIT:    8278003  MISS:     536420
cpu0_DTLB LOAD      ACCESS:    6920674  HIT:    6384878  MISS:     535796
cpu0_DTLB RFO       ACCESS:    1893749  HIT:    1893125  MISS:        624
cpu0_DTLB PREFETCH  ACCESS:          0  HIT:          0  MISS:          0
cpu0_DTLB WRITEBACK ACCESS:          0  HIT:          0  MISS:          0
cpu0_ITLB TOTAL     ACCESS:    5153248  HIT:    5153248  MISS:          0
cpu0_ITLB LOAD      ACCESS:    5153248  HIT:    5153248  MISS:          0
cpu0_ITLB RFO       ACCESS:          0  HIT:          0  MISS:          0
cpu0_ITLB PREFETCH  ACCESS:          0  HIT:          0  MISS:          0
cpu0_ITLB WRITEBACK ACCESS:          0  HIT:          0  MISS:          0
cpu0_L1I TOTAL     ACCESS:       9345  HIT:       9345  MISS:          0
cpu0_L1I LOAD      ACCESS:       9345  HIT:       9345  MISS:          0
cpu0_L1I RFO       ACCESS:          0  HIT:          0  MISS:          0
cpu0_L1I PREFETCH  ACCESS:          0  HIT:          0  MISS:          0
cpu0_L1I WRITEBACK ACCESS:          0  HIT:          0  MISS:          0
cpu0_STLB TOTAL     ACCESS:     536420  HIT:     288104  MISS:     248316
cpu0_STLB LOAD      ACCESS:     535796  HIT:     287518  MISS:     248278
cpu0_STLB RFO       ACCESS:        624  HIT:        586  MISS:         38
cpu0_STLB PREFETCH  ACCESS:          0  HIT:          0  MISS:          0
cpu0_STLB WRITEBACK ACCESS:          0  HIT:          0  MISS:          0
cpu0_L1D TOTAL     ACCESS:   12025539  HIT:   10918060  MISS:    1107479
cpu0_L1D LOAD      ACCESS:    8544373  HIT:    7453705  MISS:    1090668
cpu0_L1D RFO       ACCESS:    3236336  HIT:    3227596  MISS:       8740
cpu0_L1D PREFETCH  ACCESS:          0  HIT:          0  MISS:          0
cpu0_L1D WRITEBACK ACCESS:          0  HIT:          0  MISS:          0
cpu0_L2C TOTAL     ACCESS:    1182256  HIT:     542446  MISS:     639810
cpu0_L2C LOAD      ACCESS:    1090667  HIT:     454060  MISS:     636607
cpu0_L2C RFO       ACCESS:       8740  HIT:       7420  MISS:       1320
cpu0_L2C PREFETCH  ACCESS:          0  HIT:          0  MISS:          0
cpu0_L2C WRITEBACK ACCESS:      74778  HIT:      74665  MISS:        113
LLC TOTAL     ACCESS:     681357  HIT:     326592  MISS:     354765
LLC LOAD      ACCESS:     636607  HIT:     282701  MISS:     353906
LLC RFO       ACCESS:       1320  HIT:        866  MISS:        454
LLC PREFETCH  ACCESS:          0  HIT:          0  MISS:          0
LLC WRITEBACK ACCESS:      41660  HIT:      41633  MISS:         27
Heartbeat CPU 0 instructions: 84000000 cycles: 83030365 heartbeat IPC: 1.04389 cumulative IPC: 0.498389 (Simulation time: 0 hr 59 min 24 sec) 

Region of Interest Statistics
cpu0_DTLB TOTAL     ACCESS:    9338908  HIT:    8786922  MISS:     551986
cpu0_DTLB LOAD      ACCESS:    7329107  HIT:    6777776  MISS:     551331
cpu0_DTLB RFO       ACCESS:    2009801  HIT:    2009146  MISS:        655
cpu0_DTLB PREFETCH  ACCESS:          0  HIT:          0  MISS:          0
cpu0_DTLB WRITEBACK ACCESS:          0  HIT:          0  MISS:          0
cpu0_ITLB TOTAL     ACCESS:    5466599  HIT:    5466599  MISS:          0
cpu0_ITLB LOAD      ACCESS:    5466599  HIT:    5466599  MISS:          0
cpu0_ITLB RFO       ACCESS:          0  HIT:          0  MISS:          0
cpu0_ITLB PREFETCH  ACCESS:          0  HIT:          0  MISS:          0
cpu0_ITLB WRITEBACK ACCESS:          0  HIT:          0  MISS:          0
cpu0_L1I TOTAL     ACCESS:      10780  HIT:      10780  MISS:          0
cpu0_L1I LOAD      ACCESS:      10780  HIT:      10780  MISS:          0
cpu0_L1I RFO       ACCESS:          0  HIT:          0  MISS:          0
cpu0_L1I PREFETCH  ACCESS:          0  HIT:          0  MISS:          0
cpu0_L1I WRITEBACK ACCESS:          0  HIT:          0  MISS:          0
cpu0_STLB TOTAL     ACCESS:     551986  HIT:     301450  MISS:     250536
cpu0_STLB LOAD      ACCESS:     551331  HIT:     300833  MISS:     250498
cpu0_STLB RFO       ACCESS:        655  HIT:        617  MISS:         38
cpu0_STLB PREFETCH  ACCESS:          0  HIT:          0  MISS:          0
cpu0_STLB WRITEBACK ACCESS:          0  HIT:          0  MISS:          0
cpu0_L1D TOTAL     ACCESS:   12748877  HIT:   11593481  MISS:    1155396
cpu0_L1D LOAD      ACCESS:    9051957  HIT:    7914069  MISS:    1137888
cpu0_L1D RFO       ACCESS:    3449955  HIT:    3440558  MISS:       9397
cpu0_L1D PREFETCH  ACCESS:          0  HIT:          0  MISS:          0
cpu0_L1D WRITEBACK ACCESS:          0  HIT:          0  MISS:          0
cpu0_L2C TOTAL     ACCESS:    1233466  HIT:     579550  MISS:     653916
cpu0_L2C LOAD      ACCESS:    1137886  HIT:     487272  MISS:     650614
cpu0_L2C RFO       ACCESS:       9397  HIT:       8000  MISS:       1397
cpu0_L2C PREFETCH  ACCESS:          0  HIT:          0  MISS:          0
cpu0_L2C WRITEBACK ACCESS:      78072  HIT:      77953  MISS:        119
LLC TOTAL     ACCESS:     696301  HIT:     340952  MISS:     355349
LLC LOAD      ACCESS:     650614  HIT:     296125  MISS:     354489
LLC RFO       ACCESS:       1397  HIT:        943  MISS:        454
LLC PREFETCH  ACCESS:          0  HIT:          0  MISS:          0
LLC WRITEBACK ACCESS:      42504  HIT:      42477  MISS:         27
Heartbeat CPU 0 instructions: 86000004 cycles: 90609222 heartbeat IPC: 0.263893 cumulative IPC: 0.474942 (Simulation time: 1 hr 1 min 54 sec) 

Region of Interest Statistics
cpu0_DTLB TOTAL     ACCESS:    9922491  HIT:    9333523  MISS:     588968
cpu0_DTLB LOAD      ACCESS:    7796926  HIT:    7208619  MISS:     588307
cpu0_DTLB RFO       ACCESS:    2125565  HIT:    2124904  MISS:        661
cpu0_DTLB PREFETCH  ACCESS:          0  HIT:          0  MISS:          0
cpu0_DTLB WRITEBACK ACCESS:          0  HIT:          0  MISS:          0
cpu0_ITLB TOTAL     ACCESS:    5796169  HIT:    5796169  MISS:          0
cpu0_ITLB LOAD      ACCESS:    5796169  HIT:    5796169  MISS:          0
cpu0_ITLB RFO       ACCESS:          0  HIT:          0  MISS:          0
cpu0_ITLB PREFETCH  ACCESS:          0  HIT:          0  MISS:          0
cpu0_ITLB WRITEBACK ACCESS:          0  HIT:          0  MISS:          0
cpu0_L1I TOTAL     ACCESS:      15655  HIT:      15655  MISS:          0
cpu0_L1I LOAD      ACCESS:      15655  HIT:      15655  MISS:          0
cpu0_L1I RFO       ACCESS:          0  HIT:          0  MISS:          0
cpu0_L1I PREFETCH  ACCESS:          0  HIT:          0  MISS:          0
cpu0_L1I WRITEBACK ACCESS:          0  HIT:          0  MISS:          0
cpu0_STLB TOTAL     ACCESS:     588968  HIT:     310453  MISS:     278515
cpu0_STLB LOAD      ACCESS:     588307  HIT:     309830  MISS:     278477
cpu0_STLB RFO       ACCESS:        661  HIT:        623  MISS:         38
cpu0_STLB PREFETCH  ACCESS:          0  HIT:          0  MISS:          0
cpu0_STLB WRITEBACK ACCESS:          0  HIT:          0  MISS:          0
cpu0_L1D TOTAL     ACCESS:   13508744  HIT:   12239648  MISS:    1269096
cpu0_L1D LOAD      ACCESS:    9614498  HIT:    8365254  MISS:    1249244
cpu0_L1D RFO       ACCESS:    3619578  HIT:    3610021  MISS:       9557
cpu0_L1D PREFETCH  ACCESS:          0  HIT:          0  MISS:          0
cpu0_L1D WRITEBACK ACCESS:          0  HIT:          0  MISS:          0
cpu0_L2C TOTAL     ACCESS:    1353551  HIT:     597943  MISS:     755608
cpu0_L2C LOAD      ACCESS:    1249242  HIT:     497323  MISS:     751919
cpu0_L2C RFO       ACCESS:       9557  HIT:       8150  MISS:       1407
cpu0_L2C PREFETCH  ACCESS:          0  HIT:          0  MISS:          0
cpu0_L2C WRITEBACK ACCESS:      84457  HIT:      84336  MISS:        121
LLC TOTAL     ACCESS:     803798  HIT:     361476  MISS:     442322
LLC LOAD      ACCESS:     751919  HIT:     310580  MISS:     441339
LLC RFO       ACCESS:       1407  HIT:        943  MISS:        464
LLC PREFETCH  ACCESS:          0  HIT:          0  MISS:          0
LLC WRITEBACK ACCESS:      48311  HIT:      48281  MISS:         30
Heartbeat CPU 0 instructions: 88000001 cycles: 93507086 heartbeat IPC: 0.690162 cumulative IPC: 0.482867 (Simulation time: 1 hr 3 min 12 sec) 

Region of Interest Statistics
cpu0_DTLB TOTAL     ACCESS:   10474586  HIT:    9863503  MISS:     611083
cpu0_DTLB LOAD      ACCESS:    8231148  HIT:    7620753  MISS:     610395
cpu0_DTLB RFO       ACCESS:    2243438  HIT:    2242750  MISS:        688
cpu0_DTLB PREFETCH  ACCESS:          0  HIT:          0  MISS:          0
cpu0_DTLB WRITEBACK ACCESS:          0  HIT:          0  MISS:          0
cpu0_ITLB TOTAL     ACCESS:    6119552  HIT:    6119552  MISS:          0
cpu0_ITLB LOAD      ACCESS:    6119552  HIT:    6119552  MISS:          0
cpu0_ITLB RFO       ACCESS:          0  HIT:          0  MISS:          0
cpu0_ITLB PREFETCH  ACCESS:          0  HIT:          0  MISS:          0
cpu0_ITLB WRITEBACK ACCESS:          0  HIT:          0  MISS:          0
cpu0_L1I TOTAL     ACCESS:      16596  HIT:      16596  MISS:          0
cpu0_L1I LOAD      ACCESS:      16596  HIT:      16596  MISS:          0
cpu0_L1I RFO       ACCESS:          0  HIT:          0  MISS:          0
cpu0_L1I PREFETCH  ACCESS:          0  HIT:          0  MISS:          0
cpu0_L1I WRITEBACK ACCESS:          0  HIT:          0  MISS:          0
cpu0_STLB TOTAL     ACCESS:     611083  HIT:     323857  MISS:     287226
cpu0_STLB LOAD      ACCESS:     610395  HIT:     323210  MISS:     287185
cpu0_STLB RFO       ACCESS:        688  HIT:        647  MISS:         41
cpu0_STLB PREFETCH  ACCESS:          0  HIT:          0  MISS:          0
cpu0_STLB WRITEBACK ACCESS:          0  HIT:          0  MISS:          0
cpu0_L1D TOTAL     ACCESS:   14244473  HIT:   12901957  MISS:    1342516
cpu0_L1D LOAD      ACCESS:   10146588  HIT:    8824671  MISS:    1321917
cpu0_L1D RFO       ACCESS:    3814697  HIT:    3804611  MISS:      10086
cpu0_L1D PREFETCH  ACCESS:          0  HIT:          0  MISS:          0
cpu0_L1D WRITEBACK ACCESS:          0  HIT:          0  MISS:          0
cpu0_L2C TOTAL     ACCESS:    1431893  HIT:     634194  MISS:     797699
cpu0_L2C LOAD      ACCESS:    1321915  HIT:     528065  MISS:     793850
cpu0_L2C RFO       ACCESS:      10086  HIT:       8577  MISS:       1509
cpu0_L2C PREFETCH  ACCESS:          0  HIT:          0  MISS:          0
cpu0_L2C WRITEBACK ACCESS:      89379  HIT:      89240  MISS:        139
LLC TOTAL     ACCESS:     848529  HIT:     394224  MISS:     454305
LLC LOAD      ACCESS:     793850  HIT:     340644  MISS:     453206
LLC RFO       ACCESS:       1509  HIT:        944  MISS:        565
LLC PREFETCH  ACCESS:          0  HIT:          0  MISS:          0
LLC WRITEBACK ACCESS:      50969  HIT:      50934  MISS:         35
Heartbeat CPU 0 instructions: 90000003 cycles: 95310710 heartbeat IPC: 1.10888 cumulative IPC: 0.496893 (Simulation time: 1 hr 4 min 7 sec) 

Region of Interest Statistics
cpu0_DTLB TOTAL     ACCESS:   10991219  HIT:   10365032  MISS:     626187
cpu0_DTLB LOAD      ACCESS:    8633440  HIT:    8007987  MISS:     625453
cpu0_DTLB RFO       ACCESS:    2357779  HIT:    2357045  MISS:        734
cpu0_DTLB PREFETCH  ACCESS:          0  HIT:          0  MISS:          0
cpu0_DTLB WRITEBACK ACCESS:          0  HIT:          0  MISS:          0
cpu0_ITLB TOTAL     ACCESS:    6430266  HIT:    6430266  MISS:          0
cpu0_ITLB LOAD      ACCESS:    6430266  HIT:    6430266  MISS:          0
cpu0_ITLB RFO       ACCESS:          0  HIT:          0  MISS:          0
cpu0_ITLB PREFETCH  ACCESS:          0  HIT:          0  MISS:          0
cpu0_ITLB WRITEBACK ACCESS:          0  HIT:          0  MISS:          0
cpu0_L1I TOTAL     ACCESS:      18681  HIT:      18681  MISS:          0
cpu0_L1I LOAD      ACCESS:      18681  HIT:      18681  MISS:          0
cpu0_L1I RFO       ACCESS:          0  HIT:          0  MISS:          0
cpu0_L1I PREFETCH  ACCESS:          0  HIT:          0  MISS:          0
cpu0_L1I WRITEBACK ACCESS:          0  HIT:          0  MISS:          0
cpu0_STLB TOTAL     ACCESS:     626187  HIT:     336717  MISS:     289470
cpu0_STLB LOAD      ACCESS:     625453  HIT:     336024  MISS:     289429
cpu0_STLB RFO       ACCESS:        734  HIT:        693  MISS:         41
cpu0_STLB PREFETCH  ACCESS:          0  HIT:          0  MISS:          0
cpu0_STLB WRITEBACK ACCESS:          0  HIT:          0  MISS:          0
cpu0_L1D TOTAL     ACCESS:   14959513  HIT:   13576753  MISS:    1382760
cpu0_L1D LOAD      ACCESS:   10645639  HIT:    9284230  MISS:    1361409
cpu0_L1D RFO       ACCESS:    4028550  HIT:    4017766  MISS:      10784
cpu0_L1D PREFETCH  ACCESS:          0  HIT:          0  MISS:          0
cpu0_L1D WRITEBACK ACCESS:          0  HIT:          0  MISS:          0
cpu0_L2C TOTAL     ACCESS:    1475078  HIT:     667538  MISS:     807540
cpu0_L2C LOAD      ACCESS:    1361407  HIT:     557774  MISS:     803633
cpu0_L2C RFO       ACCESS:      10784  HIT:       9238  MISS:       1546
cpu0_L2C PREFETCH  ACCESS:          0  HIT:          0  MISS:          0
cpu0_L2C WRITEBACK ACCESS:      92320  HIT:      92179  MISS:        141
LLC TOTAL     ACCESS:     858958  HIT:     404501  MISS:     454457
LLC LOAD      ACCESS:     803633  HIT:     350279  MISS:     453354
LLC RFO       ACCESS:       1546  HIT:        981  MISS:        565
LLC PREFETCH  ACCESS:          0  HIT:          0  MISS:          0
LLC WRITEBACK ACCESS:      51559  HIT:      51524  MISS:         35
Heartbeat CPU 0 instructions: 92000003 cycles: 98981915 heartbeat IPC: 0.54478 cumulative IPC: 0.498982 (Simulation time: 1 hr 5 min 27 sec) 

Region of Interest Statistics
cpu0_DTLB TOTAL     ACCESS:   11531022  HIT:   10882279  MISS:     648743
cpu0_DTLB LOAD      ACCESS:    9058787  HIT:    8410797  MISS:     647990
cpu0_DTLB RFO       ACCESS:    2472235  HIT:    2471482  MISS:        753
cpu0_DTLB PREFETCH  ACCESS:          0  HIT:          0  MISS:          0
cpu0_DTLB WRITEBACK ACCESS:          0  HIT:          0  MISS:          0
cpu0_ITLB TOTAL     ACCESS:    6748738  HIT:    6748738  MISS:          0
cpu0_ITLB LOAD      ACCESS:    6748738  HIT:    6748738  MISS:          0
cpu0_ITLB RFO       ACCESS:          0  HIT:          0  MISS:          0
cpu0_ITLB PREFETCH  ACCESS:          0  HIT:          0  MISS:          0
cpu0_ITLB WRITEBACK ACCESS:          0  HIT:          0  MISS:          0
cpu0_L1I TOTAL     ACCESS:      19461  HIT:      19461  MISS:          0
cpu0_L1I LOAD      ACCESS:      19461  HIT:      19461  MISS:          0
cpu0_L1I RFO       ACCESS:          0  HIT:          0  MISS:          0
cpu0_L1I PREFETCH  ACCESS:          0  HIT:          0  MISS:          0
cpu0_L1I WRITEBACK ACCESS:          0  HIT:          0  MISS:          0
cpu0_STLB TOTAL     ACCESS:     648743  HIT:     348478  MISS:     300265
cpu0_STLB LOAD      ACCESS:     647990  HIT:     347769  MISS:     300221
cpu0_STLB RFO       ACCESS:        753  HIT:        709  MISS:         44
cpu0_STLB PREFETCH  ACCESS:          0  HIT:          0  MISS:          0
cpu0_STLB WRITEBACK ACCESS:          0  HIT:          0  MISS:          0
cpu0_L1D TOTAL     ACCESS:   15693821  HIT:   14243801  MISS:    1450020
cpu0_L1D LOAD      ACCESS:   11171306  HIT:    9743451  MISS:    1427855
cpu0_L1D RFO       ACCESS:    4226572  HIT:    4215304  MISS:      11268
cpu0_L1D PREFETCH  ACCESS:          0  HIT:          0  MISS:          0
cpu0_L1D WRITEBACK ACCESS:          0  HIT:          0  MISS:          0
cpu0_L2C TOTAL     ACCESS:    1546869  HIT:     699799  MISS:     847070
cpu0_L2C LOAD      ACCESS:    1427853  HIT:     584898  MISS:     842955
cpu0_L2C RFO       ACCESS:      11268  HIT:       9628  MISS:       1640
cpu0_L2C PREFETCH  ACCESS:          0  HIT:          0  MISS:          0
cpu0_L2C WRITEBACK ACCESS:      96851  HIT:      96700  MISS:        151
LLC TOTAL     ACCESS:     900957  HIT:     419728  MISS:     481229
LLC LOAD      ACCESS:     842955  HIT:     362920  MISS:     480035
LLC RFO       ACCESS:       1640  HIT:       1005  MISS:        635
LLC PREFETCH  ACCESS:          0  HIT:          0  MISS:          0
LLC WRITEBACK ACCESS:      54038  HIT:      54001  MISS:         37
Heartbeat CPU 0 instructions: 94000001 cycles: 101667322 heartbeat IPC: 0.744765 cumulative IPC: 0.506581 (Simulation time: 1 hr 6 min 26 sec) 

Region of Interest Statistics
cpu0_DTLB TOTAL     ACCESS:   12067875  HIT:   11392760  MISS:     675115
cpu0_DTLB LOAD      ACCESS:    9478200  HIT:    8803879  MISS:     674321
cpu0_DTLB RFO       ACCESS:    2589675  HIT:    2588881  MISS:        794
cpu0_DTLB PREFETCH  ACCESS:          0  HIT:          0  MISS:          0
cpu0_DTLB WRITEBACK ACCESS:          0  HIT:          0  MISS:          0
cpu0_ITLB TOTAL     ACCESS:    7066217  HIT:    7066217  MISS:          0
cpu0_ITLB LOAD      ACCESS:    7066217  HIT:    7066217  MISS:          0
cpu0_ITLB RFO       ACCESS:          0  HIT:          0  MISS:          0
cpu0_ITLB PREFETCH  ACCESS:          0  HIT:          0  MISS:          0
cpu0_ITLB WRITEBACK ACCESS:          0  HIT:          0  MISS:          0
cpu0_L1I TOTAL     ACCESS:      19921  HIT:      19921  MISS:          0
cpu0_L1I LOAD      ACCESS:      19921  HIT:      19921  MISS:          0
cpu0_L1I RFO       ACCESS:          0  HIT:          0  MISS:          0
cpu0_L1I PREFETCH  ACCESS:          0  HIT:          0  MISS:          0
cpu0_L1I WRITEBACK ACCESS:          0  HIT:          0  MISS:          0
cpu0_STLB TOTAL     ACCESS:     675115  HIT:     364351  MISS:     310764
cpu0_STLB LOAD      ACCESS:     674321  HIT:     363602  MISS:     310719
cpu0_STLB RFO       ACCESS:        794  HIT:        749  MISS:         45
cpu0_STLB PREFETCH  ACCESS:          0  HIT:          0  MISS:          0
cpu0_STLB WRITEBACK ACCESS:          0  HIT:          0  MISS:          0
cpu0_L1D TOTAL     ACCESS:   16434635  HIT:   14927154  MISS:    1507481
cpu0_L1D LOAD      ACCESS:   11691961  HIT:   10207408  MISS:    1484553
cpu0_L1D RFO       ACCESS:    4436353  HIT:    4424510  MISS:      11843
cpu0_L1D PREFETCH  ACCESS:          0  HIT:          0  MISS:          0
cpu0_L1D WRITEBACK ACCESS:          0  HIT:          0  MISS:          0
cpu0_L2C TOTAL     ACCESS:    1608417  HIT:     729716  MISS:     878701
cpu0_L2C LOAD      ACCESS:    1484550  HIT:     610132  MISS:     874418
cpu0_L2C RFO       ACCESS:      11843  HIT:      10113  MISS:       1730
cpu0_L2C PREFETCH  ACCESS:          0  HIT:          0  MISS:          0
cpu0_L2C WRITEBACK ACCESS:     100939  HIT:     100780  MISS:        159
LLC TOTAL     ACCESS:     934673  HIT:     446989  MISS:     487684
LLC LOAD      ACCESS:     874418  HIT:     387961  MISS:     486457
LLC RFO       ACCESS:       1730  HIT:       1066  MISS:        664
LLC PREFETCH  ACCESS:          0  HIT:          0  MISS:          0
LLC WRITEBACK ACCESS:      56131  HIT:      56093  MISS:         38
Heartbeat CPU 0 instructions: 96000000 cycles: 103767627 heartbeat IPC: 0.952242 cumulative IPC: 0.517103 (Simulation time: 1 hr 7 min 22 sec) 

Region of Interest Statistics
cpu0_DTLB TOTAL     ACCESS:   12601920  HIT:   11902343  MISS:     699577
cpu0_DTLB LOAD      ACCESS:    9894484  HIT:    9195733  MISS:     698751
cpu0_DTLB RFO       ACCESS:    2707436  HIT:    2706610  MISS:        826
cpu0_DTLB PREFETCH  ACCESS:          0  HIT:          0  MISS:          0
cpu0_DTLB WRITEBACK ACCESS:          0  HIT:          0  MISS:          0
cpu0_ITLB TOTAL     ACCESS:    7383882  HIT:    7383882  MISS:          0
cpu0_ITLB LOAD      ACCESS:    7383882  HIT:    7383882  MISS:          0
cpu0_ITLB RFO       ACCESS:          0  HIT:          0  MISS:          0
cpu0_ITLB PREFETCH  ACCESS:          0  HIT:          0  MISS:          0
cpu0_ITLB WRITEBACK ACCESS:          0  HIT:          0  MISS:          0
cpu0_L1I TOTAL     ACCESS:      20555  HIT:      20555  MISS:          0
cpu0_L1I LOAD      ACCESS:      20555  HIT:      20555  MISS:          0
cpu0_L1I RFO       ACCESS:          0  HIT:          0  MISS:          0
cpu0_L1I PREFETCH  ACCESS:          0  HIT:          0  MISS:          0
cpu0_L1I WRITEBACK ACCESS:          0  HIT:          0  MISS:          0
cpu0_STLB TOTAL     ACCESS:     699577  HIT:     380304  MISS:     319273
cpu0_STLB LOAD      ACCESS:     698751  HIT:     379524  MISS:     319227
cpu0_STLB RFO       ACCESS:        826  HIT:        780  MISS:         46
cpu0_STLB PREFETCH  ACCESS:          0  HIT:          0  MISS:          0
cpu0_STLB WRITEBACK ACCESS:          0  HIT:          0  MISS:          0
cpu0_L1D TOTAL     ACCESS:   17166702  HIT:   15604600  MISS:    1562102
cpu0_L1D LOAD      ACCESS:   12206682  HIT:   10668227  MISS:    1538455
cpu0_L1D RFO       ACCESS:    4645410  HIT:    4632978  MISS:      12432
cpu0_L1D PREFETCH  ACCESS:          0  HIT:          0  MISS:          0
cpu0_L1D WRITEBACK ACCESS:          0  HIT:          0  MISS:          0
cpu0_L2C TOTAL     ACCESS:    1666929  HIT:     767045  MISS:     899884
cpu0_L2C LOAD      ACCESS:    1538452  HIT:     643014  MISS:     895438
cpu0_L2C RFO       ACCESS:      12432  HIT:      10584  MISS:       1848
cpu0_L2C PREFETCH  ACCESS:          0  HIT:          0  MISS:          0
cpu0_L2C WRITEBACK ACCESS:     104830  HIT:     104662  MISS:        168
LLC TOTAL     ACCESS:     957285  HIT:     468929  MISS:     488356
LLC LOAD      ACCESS:     895438  HIT:     408312  MISS:     487126
LLC RFO       ACCESS:       1848  HIT:       1182  MISS:        666
LLC PREFETCH  ACCESS:          0  HIT:          0  MISS:          0
LLC WRITEBACK ACCESS:      57569  HIT:      57531  MISS:         38
Heartbeat CPU 0 instructions: 98000003 cycles: 105655369 heartbeat IPC: 1.05947 cumulative IPC: 0.528373 (Simulation time: 1 hr 8 min 9 sec) 

Region of Interest Statistics
cpu0_DTLB TOTAL     ACCESS:   13123683  HIT:   12399544  MISS:     724139
cpu0_DTLB LOAD      ACCESS:   10300128  HIT:    9576860  MISS:     723268
cpu0_DTLB RFO       ACCESS:    2823555  HIT:    2822684  MISS:        871
cpu0_DTLB PREFETCH  ACCESS:          0  HIT:          0  MISS:          0
cpu0_DTLB WRITEBACK ACCESS:          0  HIT:          0  MISS:          0
cpu0_ITLB TOTAL     ACCESS:    7697177  HIT:    7697177  MISS:          0
cpu0_ITLB LOAD      ACCESS:    7697177  HIT:    7697177  MISS:          0
cpu0_ITLB RFO       ACCESS:          0  HIT:          0  MISS:          0
cpu0_ITLB PREFETCH  ACCESS:          0  HIT:          0  MISS:          0
cpu0_ITLB WRITEBACK ACCESS:          0  HIT:          0  MISS:          0
cpu0_L1I TOTAL     ACCESS:      21064  HIT:      21064  MISS:          0
cpu0_L1I LOAD      ACCESS:      21064  HIT:      21064  MISS:          0
cpu0_L1I RFO       ACCESS:          0  HIT:          0  MISS:          0
cpu0_L1I PREFETCH  ACCESS:          0  HIT:          0  MISS:          0
cpu0_L1I WRITEBACK ACCESS:          0  HIT:          0  MISS:          0
cpu0_STLB TOTAL     ACCESS:     724139  HIT:     400927  MISS:     323212
cpu0_STLB LOAD      ACCESS:     723268  HIT:     400104  MISS:     323164
cpu0_STLB RFO       ACCESS:        871  HIT:        823  MISS:         48
cpu0_STLB PREFETCH  ACCESS:          0  HIT:          0  MISS:          0
cpu0_STLB WRITEBACK ACCESS:          0  HIT:          0  MISS:          0
cpu0_L1D TOTAL     ACCESS:   17887616  HIT:   16284355  MISS:    1603261
cpu0_L1D LOAD      ACCESS:   12706639  HIT:   11127763  MISS:    1578876
cpu0_L1D RFO       ACCESS:    4862529  HIT:    4849433  MISS:      13096
cpu0_L1D PREFETCH  ACCESS:          0  HIT:          0  MISS:          0
cpu0_L1D WRITEBACK ACCESS:          0  HIT:          0  MISS:          0
cpu0_L2C TOTAL     ACCESS:    1711161  HIT:     804721  MISS:     906440
cpu0_L2C LOAD      ACCESS:    1578873  HIT:     676967  MISS:     901906
cpu0_L2C RFO       ACCESS:      13096  HIT:      11180  MISS:       1916
cpu0_L2C PREFETCH  ACCESS:          0  HIT:          0  MISS:          0
cpu0_L2C WRITEBACK ACCESS:     107903  HIT:     107735  MISS:        168
LLC TOTAL     ACCESS:     964324  HIT:     475964  MISS:     488360
LLC LOAD      ACCESS:     901906  HIT:     414780  MISS:     487126
LLC RFO       ACCESS:       1916  HIT:       1246  MISS:        670
LLC PREFETCH  ACCESS:          0  HIT:          0  MISS:          0
LLC WRITEBACK ACCESS:      58052  HIT:      58014  MISS:         38
Heartbeat CPU 0 instructions: 100000004 cycles: 109072469 heartbeat IPC: 0.585292 cumulative IPC: 0.530437 (Simulation time: 1 hr 9 min 14 sec) 

Region of Interest Statistics
cpu0_DTLB TOTAL     ACCESS:   13658322  HIT:   12905012  MISS:     753310
cpu0_DTLB LOAD      ACCESS:   10715583  HIT:    9963175  MISS:     752408
cpu0_DTLB RFO       ACCESS:    2942739  HIT:    2941837  MISS:        902
cpu0_DTLB PREFETCH  ACCESS:          0  HIT:          0  MISS:          0
cpu0_DTLB WRITEBACK ACCESS:          0  HIT:          0  MISS:          0
cpu0_ITLB TOTAL     ACCESS:    8017053  HIT:    8017053  MISS:          0
cpu0_ITLB LOAD      ACCESS:    8017053  HIT:    8017053  MISS:          0
cpu0_ITLB RFO       ACCESS:          0  HIT:          0  MISS:          0
cpu0_ITLB PREFETCH  ACCESS:          0  HIT:          0  MISS:          0
cpu0_ITLB WRITEBACK ACCESS:          0  HIT:          0  MISS:          0
cpu0_L1I TOTAL     ACCESS:      21572  HIT:      21572  MISS:          0
cpu0_L1I LOAD      ACCESS:      21572  HIT:      21572  MISS:          0
cpu0_L1I RFO       ACCESS:          0  HIT:          0  MISS:          0
cpu0_L1I PREFETCH  ACCESS:          0  HIT:          0  MISS:          0
cpu0_L1I WRITEBACK ACCESS:          0  HIT:          0  MISS:          0
cpu0_STLB TOTAL     ACCESS:     753310  HIT:     420009  MISS:     333301
cpu0_STLB LOAD      ACCESS:     752408  HIT:     419157  MISS:     333251
cpu0_STLB RFO       ACCESS:        902  HIT:        852  MISS:         50
cpu0_STLB PREFETCH  ACCESS:          0  HIT:          0  MISS:          0
cpu0_STLB WRITEBACK ACCESS:          0  HIT:          0  MISS:          0
cpu0_L1D TOTAL     ACCESS:   18627538  HIT:   16980199  MISS:    1647339
cpu0_L1D LOAD      ACCESS:   13218539  HIT:   11596849  MISS:    1621690
cpu0_L1D RFO       ACCESS:    5080616  HIT:    5066875  MISS:      13741
cpu0_L1D PREFETCH  ACCESS:          0  HIT:          0  MISS:          0
cpu0_L1D WRITEBACK ACCESS:          0  HIT:          0  MISS:          0
cpu0_L2C TOTAL     ACCESS:    1758838  HIT:     837081  MISS:     921757
cpu0_L2C LOAD      ACCESS:    1621687  HIT:     704625  MISS:     917062
cpu0_L2C RFO       ACCESS:      13741  HIT:      11774  MISS:       1967
cpu0_L2C PREFETCH  ACCESS:          0  HIT:          0  MISS:          0
cpu0_L2C WRITEBACK ACCESS:     111502  HIT:     111329  MISS:        173
LLC TOTAL     ACCESS:     980713  HIT:     479622  MISS:     501091
LLC LOAD      ACCESS:     917062  HIT:     417243  MISS:     499819
LLC RFO       ACCESS:       1967  HIT:       1292  MISS:        675
LLC PREFETCH  ACCESS:          0  HIT:          0  MISS:          0
LLC WRITEBACK ACCESS:      59129  HIT:      59091  MISS:         38
Heartbeat CPU 0 instructions: 102000003 cycles: 125859001 heartbeat IPC: 0.119143 cumulative IPC: 0.468264 (Simulation time: 1 hr 12 min 32 sec) 

Region of Interest Statistics
cpu0_DTLB TOTAL     ACCESS:   14333879  HIT:   13521501  MISS:     812378
cpu0_DTLB LOAD      ACCESS:   11250784  HIT:   10439308  MISS:     811476
cpu0_DTLB RFO       ACCESS:    3083095  HIT:    3082193  MISS:        902
cpu0_DTLB PREFETCH  ACCESS:          0  HIT:          0  MISS:          0
cpu0_DTLB WRITEBACK ACCESS:          0  HIT:          0  MISS:          0
cpu0_ITLB TOTAL     ACCESS:    8380402  HIT:    8380402  MISS:          0
cpu0_ITLB LOAD      ACCESS:    8380402  HIT:    8380402  MISS:          0
cpu0_ITLB RFO       ACCESS:          0  HIT:          0  MISS:          0
cpu0_ITLB PREFETCH  ACCESS:          0  HIT:          0  MISS:          0
cpu0_ITLB WRITEBACK ACCESS:          0  HIT:          0  MISS:          0
cpu0_L1I TOTAL     ACCESS:      21739  HIT:      21739  MISS:          0
cpu0_L1I LOAD      ACCESS:      21739  HIT:      21739  MISS:          0
cpu0_L1I RFO       ACCESS:          0  HIT:          0  MISS:          0
cpu0_L1I PREFETCH  ACCESS:          0  HIT:          0  MISS:          0
cpu0_L1I WRITEBACK ACCESS:          0  HIT:          0  MISS:          0
cpu0_STLB TOTAL     ACCESS:     812378  HIT:     428806  MISS:     383572
cpu0_STLB LOAD      ACCESS:     811476  HIT:     427954  MISS:     383522
cpu0_STLB RFO       ACCESS:        902  HIT:        852  MISS:         50
cpu0_STLB PREFETCH  ACCESS:          0  HIT:          0  MISS:          0
cpu0_STLB WRITEBACK ACCESS:          0  HIT:          0  MISS:          0
cpu0_L1D TOTAL     ACCESS:   19493486  HIT:   17722190  MISS:    1771296
cpu0_L1D LOAD      ACCESS:   13852351  HIT:   12108485  MISS:    1743866
cpu0_L1D RFO       ACCESS:    5262672  HIT:    5248924  MISS:      13748
cpu0_L1D PREFETCH  ACCESS:          0  HIT:          0  MISS:          0
cpu0_L1D WRITEBACK ACCESS:          0  HIT:          0  MISS:          0
cpu0_L2C TOTAL     ACCESS:    1892034  HIT:     851054  MISS:    1040980
cpu0_L2C LOAD      ACCESS:    1743863  HIT:     708003  MISS:    1035860
cpu0_L2C RFO       ACCESS:      13748  HIT:      11774  MISS:       1974
cpu0_L2C PREFETCH  ACCESS:          0  HIT:          0  MISS:          0
cpu0_L2C WRITEBACK ACCESS:     120741  HIT:     120564  MISS:        177
LLC TOTAL     ACCESS:    1109125  HIT:     497609  MISS:     611516
LLC LOAD      ACCESS:    1035860  HIT:     425766  MISS:     610094
LLC RFO       ACCESS:       1974  HIT:       1292  MISS:        682
LLC PREFETCH  ACCESS:          0  HIT:          0  MISS:          0
LLC WRITEBACK ACCESS:      68322  HIT:      68277  MISS:         45
Heartbeat CPU 0 instructions: 104000004 cycles: 131044845 heartbeat IPC: 0.385665 cumulative IPC: 0.464579 (Simulation time: 1 hr 14 min 28 sec) 

Region of Interest Statistics
cpu0_DTLB TOTAL     ACCESS:   14891994  HIT:   14042169  MISS:     849825
cpu0_DTLB LOAD      ACCESS:   11699632  HIT:   10850732  MISS:     848900
cpu0_DTLB RFO       ACCESS:    3192362  HIT:    3191437  MISS:        925
cpu0_DTLB PREFETCH  ACCESS:          0  HIT:          0  MISS:          0
cpu0_DTLB WRITEBACK ACCESS:          0  HIT:          0  MISS:          0
cpu0_ITLB TOTAL     ACCESS:    8700791  HIT:    8700791  MISS:          0
cpu0_ITLB LOAD      ACCESS:    8700791  HIT:    8700791  MISS:          0
cpu0_ITLB RFO       ACCESS:          0  HIT:          0  MISS:          0
cpu0_ITLB PREFETCH  ACCESS:          0  HIT:          0  MISS:          0
cpu0_ITLB WRITEBACK ACCESS:          0  HIT:          0  MISS:          0
cpu0_L1I TOTAL     ACCESS:      23901  HIT:      23901  MISS:          0
cpu0_L1I LOAD      ACCESS:      23901  HIT:      23901  MISS:          0
cpu0_L1I RFO       ACCESS:          0  HIT:          0  MISS:          0
cpu0_L1I PREFETCH  ACCESS:          0  HIT:          0  MISS:          0
cpu0_L1I WRITEBACK ACCESS:          0  HIT:          0  MISS:          0
cpu0_STLB TOTAL     ACCESS:     849825  HIT:     441712  MISS:     408113
cpu0_STLB LOAD      ACCESS:     848900  HIT:     440841  MISS:     408059
cpu0_STLB RFO       ACCESS:        925  HIT:        871  MISS:         54
cpu0_STLB PREFETCH  ACCESS:          0  HIT:          0  MISS:          0
cpu0_STLB WRITEBACK ACCESS:          0  HIT:          0  MISS:          0
cpu0_L1D TOTAL     ACCESS:   20238738  HIT:   18365253  MISS:    1873485
cpu0_L1D LOAD      ACCESS:   14397355  HIT:   12553203  MISS:    1844152
cpu0_L1D RFO       ACCESS:    5438689  HIT:    5424564  MISS:      14125
cpu0_L1D PREFETCH  ACCESS:          0  HIT:          0  MISS:          0
cpu0_L1D WRITEBACK ACCESS:          0  HIT:          0  MISS:          0
cpu0_L2C TOTAL     ACCESS:    2000068  HIT:     885816  MISS:    1114252
cpu0_L2C LOAD      ACCESS:    1844149  HIT:     735409  MISS:    1108740
cpu0_L2C RFO       ACCESS:      14125  HIT:      12016  MISS:       2109
cpu0_L2C PREFETCH  ACCESS:          0  HIT:          0  MISS:          0
cpu0_L2C WRITEBACK ACCESS:     126586  HIT:     126398  MISS:        188
LLC TOTAL     ACCESS:    1186488  HIT:     525284  MISS:     661204
LLC LOAD      ACCESS:    1108740  HIT:     449118  MISS:     659622
LLC RFO       ACCESS:       2109  HIT:       1347  MISS:        762
LLC PREFETCH  ACCESS:          0  HIT:          0  MISS:          0
LLC WRITEBACK ACCESS:      72424  HIT:      72376  MISS:         48
Heartbeat CPU 0 instructions: 106000001 cycles: 133213890 heartbeat IPC: 0.922063 cumulative IPC: 0.47296 (Simulation time: 1 hr 15 min 30 sec) 

Region of Interest Statistics
cpu0_DTLB TOTAL     ACCESS:   15410038  HIT:   14535005  MISS:     875033
cpu0_DTLB LOAD      ACCESS:   12102812  HIT:   11228733  MISS:     874079
cpu0_DTLB RFO       ACCESS:    3307226  HIT:    3306272  MISS:        954
cpu0_DTLB PREFETCH  ACCESS:          0  HIT:          0  MISS:          0
cpu0_DTLB WRITEBACK ACCESS:          0  HIT:          0  MISS:          0
cpu0_ITLB TOTAL     ACCESS:    9011588  HIT:    9011588  MISS:          0
cpu0_ITLB LOAD      ACCESS:    9011588  HIT:    9011588  MISS:          0
cpu0_ITLB RFO       ACCESS:          0  HIT:          0  MISS:          0
cpu0_ITLB PREFETCH  ACCESS:          0  HIT:          0  MISS:          0
cpu0_ITLB WRITEBACK ACCESS:          0  HIT:          0  MISS:          0
cpu0_L1I TOTAL     ACCESS:      24643  HIT:      24643  MISS:          0
cpu0_L1I LOAD      ACCESS:      24643  HIT:      24643  MISS:          0
cpu0_L1I RFO       ACCESS:          0  HIT:          0  MISS:          0
cpu0_L1I PREFETCH  ACCESS:          0  HIT:          0  MISS:          0
cpu0_L1I WRITEBACK ACCESS:          0  HIT:          0  MISS:          0
cpu0_STLB TOTAL     ACCESS:     875033  HIT:     459847  MISS:     415186
cpu0_STLB LOAD      ACCESS:     874079  HIT:     458949  MISS:     415130
cpu0_STLB RFO       ACCESS:        954  HIT:        898  MISS:         56
cpu0_STLB PREFETCH  ACCESS:          0  HIT:          0  MISS:          0
cpu0_STLB WRITEBACK ACCESS:          0  HIT:          0  MISS:          0
cpu0_L1D TOTAL     ACCESS:   20967099  HIT:   19050444  MISS:    1916655
cpu0_L1D LOAD      ACCESS:   14902216  HIT:   13015935  MISS:    1886281
cpu0_L1D RFO       ACCESS:    5655205  HIT:    5640341  MISS:      14864
cpu0_L1D PREFETCH  ACCESS:          0  HIT:          0  MISS:          0
cpu0_L1D WRITEBACK ACCESS:          0  HIT:          0  MISS:          0
cpu0_L2C TOTAL     ACCESS:    2046377  HIT:     919493  MISS:    1126884
cpu0_L2C LOAD      ACCESS:    1886278  HIT:     765048  MISS:    1121230
cpu0_L2C RFO       ACCESS:      14864  HIT:      12707  MISS:       2157
cpu0_L2C PREFETCH  ACCESS:          0  HIT:          0  MISS:          0
[...]
cpu0_STLB PREFETCH  ACCESS:          0  HIT:          0  MISS:          0
cpu0_STLB WRITEBACK ACCESS:          0  HIT:          0  MISS:          0
cpu0_STLB TRANSLATION ACCESS:          0  HIT:          0  MISS:          0
cpu0_STLB PREFETCH  REQUESTED:          0  ISSUED:          0  USEFUL:          0  USELESS:          0
cpu0_STLB AVERAGE MISS LATENCY: 14.082 cycles
cpu0_L1D TOTAL     ACCESS:  570052758  HIT:  513287992  MISS:   56764766
cpu0_L1D LOAD      ACCESS:  411235094  HIT:  355326725  MISS:   55908369
cpu0_L1D RFO       ACCESS:  148897530  HIT:  148582915  MISS:     314615
cpu0_L1D PREFETCH  ACCESS:          0  HIT:          0  MISS:          0
cpu0_L1D WRITEBACK ACCESS:          0  HIT:          0  MISS:          0
cpu0_L1D TRANSLATION ACCESS:    9920134  HIT:    9378352  MISS:     541782
cpu0_L1D PREFETCH  REQUESTED:          0  ISSUED:          0  USEFUL:          0  USELESS:          0
cpu0_L1D AVERAGE MISS LATENCY: 150.17 cycles
cpu0_L2C TOTAL     ACCESS:   60932778  HIT:   20959254  MISS:   39973524
cpu0_L2C LOAD      ACCESS:   55908297  HIT:   16065868  MISS:   39842429
cpu0_L2C RFO       ACCESS:     314615  HIT:     268941  MISS:      45674
cpu0_L2C PREFETCH  ACCESS:          0  HIT:          0  MISS:          0
cpu0_L2C WRITEBACK ACCESS:    4168084  HIT:    4164248  MISS:       3836
cpu0_L2C TRANSLATION ACCESS:     541782  HIT:     460197  MISS:      81585
cpu0_L2C PREFETCH  REQUESTED:          0  ISSUED:          0  USEFUL:          0  USELESS:          0
cpu0_L2C AVERAGE MISS LATENCY: 197.309 cycles
LLC TOTAL     ACCESS:   42929372  HIT:   12552882  MISS:   30376490
LLC LOAD      ACCESS:   39842424  HIT:    9505776  MISS:   30336648
LLC RFO       ACCESS:      45674  HIT:      32054  MISS:      13620
LLC PREFETCH  ACCESS:          0  HIT:          0  MISS:          0
LLC WRITEBACK ACCESS:    2959689  HIT:    2958728  MISS:        961
LLC TRANSLATION ACCESS:      81585  HIT:      56324  MISS:      25261
LLC PREFETCH  REQUESTED:          0  ISSUED:          0  USEFUL:          0  USELESS:          0
LLC AVERAGE MISS LATENCY: 232.014 cycles
~~~~~~~~~~Reuse Distance Profiler output~~~~~~~~~~
0	29599488	12671376
1	48495248	32237536
2	47375024	32677216
3	54287024	36394352
4	37355440	23992576
5	26702880	18576096
6	20887008	15582432
7	22279392	16222752
8	22162480	14021472
9	16551504	11516608
10	15949520	11066800
11	13113680	9964384
12	11509776	7748960
13	11275568	7854448
14	9531152	6686176
15	8854864	6296640
16	8629168	6210960
17	7735056	5595472
18	6791824	5132128
19	6229104	4581040
20	5291872	4133440
21	4734448	3634384
22	4475872	3446800
23	3832912	3076320
24	3427824	2820192
25	3008992	2466864
26	2730208	2242208
27	2657120	2237408
28	2407024	1999584
29	2017904	1676128
30	1865136	1570176
31	1619712	1372864
32	1490912	1268928
33	1285648	1079584
34	1216224	1023872
35	1103360	950496
36	1017136	894656
37	930432	799664
38	853296	700624
39	751952	627312
40	722144	603488
41	607440	540896
42	567616	507280
43	537232	481200
44	540896	488672
45	568672	489712
46	462080	413024
47	430720	380688
48	390224	346192
49	360032	324496
50	347024	306752
51	325120	286064
52	303952	273664
53	274480	251648
54	272336	249280
55	255888	231488
56	232272	207360
57	221344	204544
58	206896	194048
59	199120	187104
60	203344	192416
61	183136	171888
62	177952	166192
63	178608	167568
64	337536	317904
66	302144	287056
68	273776	259792
70	271024	256208
72	251632	237792
74	222832	209648
76	204752	191712
78	195520	181312
80	184992	171712
82	172208	159744
84	168608	156560
86	164992	152000
88	155888	145392
90	147952	138544
92	139520	129408
94	136672	127552
96	142288	132928
98	131376	122560
100	126400	116672
102	126832	116432
104	129088	117168
106	128752	116784
108	119328	106080
110	115216	101632
112	113184	100064
114	111152	99856
116	111696	101072
118	105904	96864
120	107584	98944
122	107632	99040
124	107440	99888
126	110064	101984
128	217184	199584
132	221744	202256
136	220320	198272
140	218624	192288
144	218320	190064
148	211024	181744
152	211616	184496
156	212320	185168
160	207776	181664
164	209760	182160
168	198000	172816
172	201552	176240
176	198000	170560
180	197072	171152
184	190224	164576
188	190336	165664
192	187104	161904
196	186496	160848
200	181776	156752
204	180112	156720
208	174736	151824
212	177184	154704
216	172368	150912
220	171552	149600
224	171520	149520
228	168560	147456
232	161984	140640
236	159856	138496
240	156288	136896
244	158240	138816
248	150640	132208
252	149856	131696
256	292560	257216
264	286896	251328
272	274848	243600
280	266544	234384
288	258576	226176
296	253952	222288
304	244544	213792
312	242592	212864
320	234752	205952
328	231984	201152
336	222080	191952
344	211792	185264
352	209264	182992
360	199808	175584
368	194688	172576
376	194208	171120
384	187216	165088
392	184032	162256
400	180416	159680
408	171408	151024
416	169920	150064
424	163504	145488
432	158848	141216
440	157552	140592
448	154112	137984
456	151312	135168
464	147072	131440
472	143184	127936
480	141568	126560
488	140352	125424
496	138192	124480
504	134352	120768
512	263520	238112
528	253568	229216
544	242720	219152
560	238432	212800
576	233328	207296
592	227280	201584
608	221424	195472
624	215456	189120
640	205200	180112
656	200112	175328
672	194448	170832
688	190960	166752
704	182800	158240
720	181744	158976
736	174272	150656
752	169888	148736
768	168160	146096
784	161744	141072
800	157088	137440
816	154096	135024
832	148656	130096
848	144384	126256
864	141072	123216
880	137600	120160
896	135696	118912
912	133552	117280
928	129920	113600
944	126128	111264
960	125472	110576
976	121136	107616
992	119280	105824
1008	120048	105216
1024	230896	204096
1056	228240	202720
1088	221472	195696
1120	211888	187728
1152	206016	182048
1184	201200	178032
1216	196672	174608
1248	191296	168544
1280	183952	163488
1312	180336	160544
1344	176384	156032
1376	170032	151216
1408	168064	150272
1440	165856	148544
1472	162384	145248
1504	157696	140736
1536	157360	140816
1568	151520	136656
1600	148064	132560
1632	144304	130048
1664	140864	126528
1696	140192	126416
1728	138272	124528
1760	135712	122624
1792	137744	124736
1824	133056	121360
1856	128224	114928
1888	125840	114384
1920	124912	113952
1952	122304	110976
1984	122384	110688
2016	116736	105104
2048	230912	208528
2112	225728	205744
2176	215904	196480
2240	209456	191120
2304	199264	181760
2368	192992	175952
2432	190560	174464
2496	185056	169408
2560	176896	162512
2624	173008	158432
2688	172144	158528
2752	165856	152256
2816	164832	152304
2880	158368	146768
2944	154400	142480
3008	151136	140080
3072	146976	135408
3136	142752	132144
3200	140528	129984
3264	141232	130368
3328	136048	126256
3392	132096	122592
3456	130720	121648
3520	127152	118160
3584	120800	112128
3648	122640	114016
3712	120608	112608
3776	118448	110032
3840	116144	107904
3904	118192	110576
3968	111168	103552
4032	110576	103072
4096	216064	202048
4224	211152	197648
4352	206512	193376
4480	198384	186080
4608	189552	177344
4736	189904	178512
4864	187600	176256
4992	183376	173040
5120	174848	164736
5248	170272	160592
5376	168304	158944
5504	161184	151936
5632	156208	147680
5760	151584	143472
5888	147584	139344
6016	144336	136512
6144	145536	138272
6272	138736	131728
6400	137984	131024
6528	135392	128736
6656	131136	124784
6784	131424	125248
6912	126320	120208
7040	119888	113600
7168	119408	113456
7296	119472	113936
7424	119200	113776
7552	117392	111888
7680	114816	109456
7808	109328	104704
7936	105616	100528
8064	108240	103136
8192	216272	207968
8448	204992	196960
8704	199584	191936
8960	197248	189056
9216	189696	182544
9472	181824	174512
9728	177600	170432
9984	174736	168288
10240	168912	163264
10496	161040	155136
10752	158176	152592
11008	160048	154624
11264	147232	141408
11520	145584	140144
11776	143920	138816
12032	138224	133696
12288	137296	132352
12544	134832	130720
12800	137456	133392
13056	135792	131696
13312	128368	124240
13568	125728	121792
13824	124848	120976
14080	124896	121040
14336	117488	114064
14592	114064	110624
14848	114176	111136
15104	113936	110432
15360	110080	107120
15616	110208	106704
15872	107744	104880
16128	102960	100192
16384	209104	203488
16896	203536	198336
17408	195840	190400
17920	189504	185040
18432	187232	182528
18944	186144	181904
19456	173728	169376
19968	169024	165120
20480	165552	161952
20992	161616	158032
21504	154000	150528
22016	148784	145296
22528	153120	150112
23040	146064	143056
23552	147344	144032
24064	142816	140144
24576	141792	138832
25088	134928	132192
25600	133216	130384
26112	130752	128192
26624	129168	126848
27136	125616	123408
27648	125696	123552
28160	120800	118592
28672	121280	118960
29184	120032	118144
29696	114304	112448
30208	111888	109728
30720	111856	110064
31232	112096	110528
31744	112032	110160
32256	108240	106448
32768	215200	211792
33792	213824	210592
34816	200032	196784
35840	194864	191888
36864	194336	191536
37888	174448	171760
38912	177856	175600
39936	168544	166064
40960	170976	168720
41984	170272	168208
43008	157280	155216
44032	164928	162864
45056	159344	157472
46080	149376	147440
47104	135680	134096
48128	130496	128912
49152	131728	130336
50176	128592	127104
51200	135056	133568
52224	124768	123632
53248	127072	125840
54272	120032	118864
55296	120656	119328
56320	119856	118816
57344	115600	114496
58368	105136	104032
59392	112864	111488
60416	115328	114096
61440	105120	103872
62464	113616	112624
63488	102720	101504
64512	102976	101840
65536	200128	198496
67584	195440	193616
69632	199632	197632
71680	177792	175952
73728	179056	177424
75776	180080	178624
77824	160032	158768
79872	162016	160720
81920	159728	158320
83968	155424	154208
86016	158512	157456
88064	146960	145888
90112	146544	145472
92160	167376	166272
94208	145104	144112
96256	138800	137712
98304	134160	133328
100352	130640	129888
102400	121952	121008
104448	135728	135040
106496	144560	143648
108544	127568	126704
110592	126128	125440
112640	119296	118448
114688	113536	112880
116736	121152	120240
118784	110880	110272
120832	114448	113744
122880	111456	110736
124928	100064	99392
126976	91808	91344
129024	89504	88960
131072	203184	202080
135168	187824	186816
139264	174064	173072
143360	170528	169552
147456	164624	163472
151552	171200	170352
155648	170256	169472
159744	170560	169648
163840	188384	187600
167936	183344	182624
172032	180688	179824
176128	175936	175152
180224	153648	152992
184320	145536	145024
188416	155136	154784
192512	142944	142432
196608	126512	126096
200704	122224	121888
204800	116080	115552
208896	132272	131792
212992	127024	126480
217088	130400	130048
221184	117856	117472
225280	115856	115392
229376	123824	123392
233472	117120	116784
237568	110128	109664
241664	111280	111040
245760	107664	107296
249856	122576	122240
253952	113872	113616
258048	95184	94864
262144	189920	189312
270336	175360	174880
278528	150736	150192
286720	168064	167536
294912	164352	163888
303104	188352	187840
311296	155936	155632
319488	136000	135664
327680	142368	141984
335872	177984	177696
344064	128288	128032
352256	122528	122064
360448	171488	171264
368640	172576	172384
376832	132576	132224
385024	141360	140944
393216	133984	133680
401408	135024	134688
409600	160896	160576
417792	126064	125744
425984	128496	128272
434176	118304	117984
442368	120736	120480
450560	112496	112320
458752	94016	93792
466944	95008	94736
475136	114272	114080
483328	101024	100720
491520	107872	107616
499712	95120	94816
507904	85680	85472
516096	89728	89600
524288	184240	183888
540672	198032	197728
557056	211504	211200
573440	166016	165744
589824	148912	148624
606208	159792	159568
622592	176912	176640
638976	120032	119824
655360	130864	130656
671744	138992	138816
688128	130048	129856
704512	129568	129344
720896	123168	122944
737280	123136	122912
753664	140784	140576
770048	160464	160336
786432	134624	134544
802816	160464	160384
819200	124048	123936
835584	125904	125648
851968	169584	169360
868352	152272	152176
884736	133360	133312
901120	118880	118704
917504	114528	114384
933888	100128	100048
950272	112896	112864
966656	110624	110496
983040	101920	101856
999424	73072	72992
1015808	75888	75744
1032192	75840	75760
1048576	164752	164512
1081344	156144	156032
1114112	153728	153504
1146880	161120	161008
1179648	149056	148864
1212416	174544	174432
1245184	150560	150384
1277952	117808	117712
1310720	134288	134144
1343488	122992	122816
1376256	115056	114896
1409024	113040	112944
1441792	132800	132752
1474560	157552	157504
1507328	136064	135952
1540096	88064	88016
1572864	122080	122016
1605632	109952	109856
1638400	95776	95616
1671168	96048	95952
1703936	87616	87488
1736704	85168	85104
1769472	111136	111104
1802240	116320	116224
1835008	118736	118688
1867776	168080	168064
1900544	129776	129680
1933312	109760	109744
1966080	160864	160832
1998848	134032	133968
2031616	149680	149568
2064384	112544	112512
2097152	164432	164384
2162688	164752	164688
2228224	146672	146608
2293760	168208	168096
2359296	137952	137936
2424832	133072	132992
2490368	133888	133808
2555904	77696	77664
2621440	75360	75280
2686976	71824	71712
2752512	71216	71152
2818048	99712	99680
2883584	83392	83312
2949120	86304	86224
3014656	106048	106000
3080192	116448	116432
3145728	152672	152576
3211264	138416	138368
3276800	143104	143072
3342336	88032	88000
3407872	71024	70976
3473408	103792	103760
3538944	107920	107808
3604480	63504	63424
3670016	88640	88624
3735552	86560	86448
3801088	119152	119072
3866624	51920	51904
3932160	75616	75536
3997696	107056	107040
4063232	64624	64560
4128768	61120	61056
4194304	133936	133920
4325376	126032	125952
4456448	99792	99760
4587520	106464	106368
4718592	93936	93904
4849664	102624	102560
4980736	253856	253792
5111808	200320	200320
5242880	87840	87792
5373952	106544	106496
5505024	35520	35520
5636096	52064	52016
5767168	39904	39888
5898240	75168	75168
6029312	61312	61296
6160384	57936	57888
6291456	60336	60336
6422528	35120	35120
6553600	44800	44736
6684672	62240	62240
6815744	37424	37392
6946816	58224	58192
7077888	51184	51136
7208960	81200	81184
7340032	70928	70880
7471104	88096	88048
7602176	28368	28336
7733248	28688	28656
7864320	44992	44944
7995392	77040	77008
8126464	43744	43728
8257536	48592	48576
8388608	51664	51632
8650752	66800	66704
8912896	72544	72448
9175040	137808	137760
9437184	88624	88528
9699328	150256	150224
9961472	355984	355984
10223616	130896	130896
10485760	82336	82336
10747904	80736	80736
11010048	83552	83552
11272192	128448	128448
11534336	56736	56736
11796480	45712	45712
12058624	55552	55520
12320768	148576	148576
12582912	192128	192112
12845056	121520	121520
13107200	77568	77520
13369344	103152	103152
13631488	112352	112352
13893632	94656	94656
14155776	69488	69488
14417920	74144	74144
14680064	97760	97744
14942208	123312	123296
15204352	114896	114880
15466496	114592	114560
15728640	93904	93904
15990784	127296	127216
16252928	136240	136240
16515072	95952	95952
16777216	101680	101680
17301504	45232	45232
17825792	81584	81584
18350080	109840	109824
18874368	158528	158528
19398656	148576	148576
19922944	131056	131024
20447232	188080	188080
20971520	88752	88736
21495808	82000	81984
22020096	204544	204544
22544384	112832	112832
23068672	99344	99344
23592960	59952	59952
24117248	41488	41488
24641536	51856	51824
25165824	67152	67152
25690112	80912	80912
26214400	69568	69568
26738688	74736	74736
27262976	50208	50208
27787264	50656	50656
28311552	58752	58752
28835840	61248	61248
29360128	57712	57712
29884416	56848	56848
30408704	70480	70480
30932992	52048	52048
31457280	61632	61632
31981568	70624	70624
32505856	54672	54672
33030144	21216	21216
33554432	29728	29728
34603008	37904	37904
35651584	61024	61024
36700160	75680	75680
37748736	82048	82048
38797312	193184	193184
39845888	136496	136496
40894464	118016	118000
41943040	8416	8416
42991616	24064	24064
44040192	31024	31024
45088768	60960	60960
46137344	233904	233904
47185920	42016	42016
48234496	154176	154176
49283072	211616	211616
50331648	43200	43200
51380224	38912	38912
52428800	39552	39552
53477376	115856	115856
54525952	2064	2064
55574528	3872	3856
56623104	3200	3200
57671680	1744	1744
58720256	2928	2928
59768832	2368	2368
60817408	2160	2160
61865984	2000	2000
62914560	1952	1952
63963136	2608	2608
65011712	2144	2128
66060288	2416	2320
67108864	4576	4576
69206016	3952	3904
71303168	3584	3584
73400320	4688	4656
75497472	3168	3168
77594624	3840	3840
79691776	5008	4992
81788928	4368	4368
83886080	5056	5056
85983232	4496	4496
88080384	4128	4128
90177536	5568	5568
92274688	4736	4736
94371840	3696	3696
96468992	35424	35408
98566144	50720	50720
100663296	50624	50624
102760448	52640	52640
104857600	370096	370096
106954752	107264	107264
109051904	13600	13600
111149056	15152	15152
113246208	17424	17424
115343360	3120	3120
117440512	2864	2864
119537664	2896	2896
121634816	2912	2912
123731968	3136	3136
125829120	3200	3200
127926272	3632	3632
130023424	3328	3328
132120576	2912	2912
134217728	7088	7088
138412032	6064	6064
142606336	7024	7024
146800640	6352	6352
150994944	9984	9984
155189248	7296	7296
159383552	7920	7920
163577856	8880	8880
167772160	9728	9728
171966464	7088	7088
176160768	9216	9216
180355072	8496	8496
184549376	9472	9472
188743680	8032	8032
192937984	9248	9248
197132288	7088	7088
201326592	5856	5856
205520896	4928	4928
209715200	5936	5936
213909504	4096	4096
218103808	4096	4096
222298112	16416	16416
226492416	17968	17968
230686720	16224	16224
234881024	67712	67712
239075328	164384	164384
243269632	247040	247040
247463936	12528	12528
251658240	1776	1776
255852544	1776	1776
260046848	1600	1600
264241152	2688	2688
268435456	8960	8960
276824064	9056	9056
285212672	7488	7488
293601280	7856	7856
301989888	2848	2848
310378496	2048	2048
318767104	9616	9616
327155712	14336	14336
335544320	162576	162560
343932928	206416	206416
352321536	70592	70592
360710144	439088	439088
369098752	422048	422048
377487360	1600	1600
385875968	1280	1280
394264576	576	576
402653184	704	704
411041792	1024	1024
419430400	944	944
427819008	544	544
436207616	992	992
444596224	912	912
452984832	800	800
461373440	1040	1040
469762048	544	544
478150656	656	656
486539264	576	576
494927872	288	288
503316480	240	240
511705088	288	288
520093696	304	304
528482304	288	288
536870912	608	608
553648128	592	592
570425344	80	80
587202560	0	0
603979776	0	0
620756992	0	0
637534208	0	0
654311424	0	0
671088640	0	0
687865856	0	0
704643072	0	0
721420288	0	0
738197504	0	0
754974720	0	0
771751936	0	0
788529152	0	0
805306368	0	0
822083584	0	0
838860800	0	0
855638016	0	0
872415232	0	0
889192448	0	0
905969664	0	0
922746880	0	0
939524096	0	0
956301312	0	0
973078528	0	0
989855744	0	0
1006632960	0	0
1023410176	0	0
1040187392	0	0
1056964608	0	0
1073741824	0	0
1107296256	0	0
1140850688	0	0
1174405120	0	0
1207959552	0	0
1241513984	0	0
1275068416	0	0
1308622848	0	0
1342177280	0	0
1375731712	0	0
1409286144	0	0
1442840576	0	0
1476395008	0	0
1509949440	0	0
1543503872	0	0
1577058304	0	0
1610612736	0	0
1644167168	0	0
1677721600	0	0
1711276032	0	0
1744830464	0	0
1778384896	0	0
1811939328	0	0
1845493760	0	0
1879048192	0	0
1912602624	0	0
1946157056	0	0
1979711488	0	0
2013265920	0	0
2046820352	0	0
2080374784	0	0
2113929216	0	0
2147483648	0	0
2214592512	0	0
2281701376	0	0
2348810240	0	0
2415919104	0	0
2483027968	0	0
2550136832	0	0
2617245696	0	0
2684354560	0	0
2751463424	0	0
2818572288	0	0
2885681152	0	0
2952790016	0	0
3019898880	0	0
3087007744	0	0
3154116608	0	0
3221225472	0	0
3288334336	0	0
3355443200	0	0
3422552064	0	0
3489660928	0	0
3556769792	0	0
3623878656	0	0
3690987520	0	0
3758096384	0	0
3825205248	0	0
3892314112	0	0
3959422976	0	0
4026531840	0	0
4093640704	0	0
4160749568	0	0
4227858432	0	0
~~~~~~~~~~Reuse Distance Profiler output end~~~~~~~~~~

Sampler size:395653

DRAM Statistics
 CHANNEL 0
 RQ ROW_BUFFER_HIT:     334301  ROW_BUFFER_MISS:   30040199
 DBUS AVG_CONGESTED_CYCLE:    3.88231
 WQ ROW_BUFFER_HIT:     323405  ROW_BUFFER_MISS:    2027322  FULL:          0


CPU 0 Branch Prediction Accuracy: 92.3111% MPKI: 19.7921 Average ROB Occupancy at Mispredict: 33.8785
Branch type MPKI
BRANCH_DIRECT_JUMP: 0
BRANCH_INDIRECT: 0
BRANCH_CONDITIONAL: 19.7916
BRANCH_DIRECT_CALL: 0
BRANCH_INDIRECT_CALL: 0.000420667
BRANCH_RETURN: 2e-06

