
*** ChampSim Multicore Out-of-Order Simulator ***

Warmup Instructions: 50000000
Simulation Instructions: 1500000000
Number of CPUs: 1
Off-chip DRAM Size: 4 GiB Channels: 1 Width: 64-bit Data Rate: 3200 MT/s

VirtualMemory physical capacity: 8588881920 num_ppages: 2096895
VirtualMemory page size: 4096 log2_page_size: 12

CPU 0 runs /s/traces/champsim_traces/607.cactuBSSN_s-3477B.champsimtrace.xz
CPU 0 Bimodal branch predictor
Basic BTB sets: 1024 ways: 8 indirect buffer size: 4096 RAS size: 64
Initializing LRU.
Initializing LRU.
Initializing LRU.
Initializing LRU.
Initializing rdLRU.
Initializing LRU.
Initializing LRU.
Heartbeat CPU 0 instructions: 2000000 cycles: 748534 heartbeat IPC: 2.67189 cumulative IPC: 2.67189 (Simulation time: 0 hr 1 min 52 sec) 
Heartbeat CPU 0 instructions: 4000003 cycles: 1497035 heartbeat IPC: 2.67201 cumulative IPC: 2.67195 (Simulation time: 0 hr 3 min 24 sec) 
Heartbeat CPU 0 instructions: 6000000 cycles: 2244965 heartbeat IPC: 2.67404 cumulative IPC: 2.67265 (Simulation time: 0 hr 5 min 5 sec) 
Heartbeat CPU 0 instructions: 8000002 cycles: 2993678 heartbeat IPC: 2.67125 cumulative IPC: 2.6723 (Simulation time: 0 hr 6 min 47 sec) 
Heartbeat CPU 0 instructions: 10000003 cycles: 3741583 heartbeat IPC: 2.67414 cumulative IPC: 2.67267 (Simulation time: 0 hr 8 min 24 sec) 
Heartbeat CPU 0 instructions: 12000000 cycles: 4490221 heartbeat IPC: 2.67151 cumulative IPC: 2.67247 (Simulation time: 0 hr 10 min 9 sec) 
Heartbeat CPU 0 instructions: 14000002 cycles: 5236995 heartbeat IPC: 2.67819 cumulative IPC: 2.67329 (Simulation time: 0 hr 11 min 48 sec) 
Heartbeat CPU 0 instructions: 16000002 cycles: 5985229 heartbeat IPC: 2.67296 cumulative IPC: 2.67325 (Simulation time: 0 hr 13 min 14 sec) 
Heartbeat CPU 0 instructions: 18000002 cycles: 6733500 heartbeat IPC: 2.67283 cumulative IPC: 2.6732 (Simulation time: 0 hr 14 min 11 sec) 
Heartbeat CPU 0 instructions: 20000002 cycles: 7481865 heartbeat IPC: 2.67249 cumulative IPC: 2.67313 (Simulation time: 0 hr 15 min 46 sec) 
Heartbeat CPU 0 instructions: 22000002 cycles: 8229995 heartbeat IPC: 2.67333 cumulative IPC: 2.67315 (Simulation time: 0 hr 17 min 6 sec) 
Heartbeat CPU 0 instructions: 24000000 cycles: 8978554 heartbeat IPC: 2.6718 cumulative IPC: 2.67304 (Simulation time: 0 hr 18 min 36 sec) 
Heartbeat CPU 0 instructions: 26000003 cycles: 9726678 heartbeat IPC: 2.67336 cumulative IPC: 2.67306 (Simulation time: 0 hr 20 min 13 sec) 
Heartbeat CPU 0 instructions: 28000000 cycles: 10475457 heartbeat IPC: 2.67101 cumulative IPC: 2.67291 (Simulation time: 0 hr 21 min 47 sec) 
Heartbeat CPU 0 instructions: 30000003 cycles: 11223559 heartbeat IPC: 2.67344 cumulative IPC: 2.67295 (Simulation time: 0 hr 23 min 10 sec) 
Heartbeat CPU 0 instructions: 32000003 cycles: 11972221 heartbeat IPC: 2.67143 cumulative IPC: 2.67285 (Simulation time: 0 hr 24 min 31 sec) 
Heartbeat CPU 0 instructions: 34000001 cycles: 12720159 heartbeat IPC: 2.67402 cumulative IPC: 2.67292 (Simulation time: 0 hr 26 min 9 sec) 
Heartbeat CPU 0 instructions: 36000003 cycles: 13468655 heartbeat IPC: 2.67203 cumulative IPC: 2.67287 (Simulation time: 0 hr 27 min 23 sec) 
Heartbeat CPU 0 instructions: 38000003 cycles: 14216643 heartbeat IPC: 2.67384 cumulative IPC: 2.67292 (Simulation time: 0 hr 28 min 54 sec) 
Heartbeat CPU 0 instructions: 40000004 cycles: 14965167 heartbeat IPC: 2.67193 cumulative IPC: 2.67287 (Simulation time: 0 hr 30 min 11 sec) 
Heartbeat CPU 0 instructions: 42000001 cycles: 15713275 heartbeat IPC: 2.67341 cumulative IPC: 2.6729 (Simulation time: 0 hr 31 min 42 sec) 
Heartbeat CPU 0 instructions: 44000004 cycles: 16461711 heartbeat IPC: 2.67224 cumulative IPC: 2.67287 (Simulation time: 0 hr 32 min 50 sec) 
Heartbeat CPU 0 instructions: 46000001 cycles: 17209841 heartbeat IPC: 2.67333 cumulative IPC: 2.67289 (Simulation time: 0 hr 34 min 19 sec) 
Heartbeat CPU 0 instructions: 48000001 cycles: 17958284 heartbeat IPC: 2.67221 cumulative IPC: 2.67286 (Simulation time: 0 hr 35 min 50 sec) 
Heartbeat CPU 0 instructions: 50000000 cycles: 18706520 heartbeat IPC: 2.67295 cumulative IPC: 2.67286 (Simulation time: 0 hr 37 min 39 sec) 

Warmup complete CPU 0 instructions: 50000005 cycles: 18706523 (Simulation time: 0 hr 37 min 39 sec) 

Heartbeat CPU 0 instructions: 52000001 cycles: 19978290 heartbeat IPC: 1.57261 cumulative IPC: 1.57261 (Simulation time: 0 hr 39 min 34 sec) 

Region of Interest Statistics
cpu0_DTLB TOTAL     ACCESS:     531300  HIT:     456253  MISS:      75047
cpu0_DTLB LOAD      ACCESS:     456320  HIT:     390299  MISS:      66021
cpu0_DTLB RFO       ACCESS:      74980  HIT:      65954  MISS:       9026
cpu0_DTLB PREFETCH  ACCESS:          0  HIT:          0  MISS:          0
cpu0_DTLB WRITEBACK ACCESS:          0  HIT:          0  MISS:          0
cpu0_ITLB TOTAL     ACCESS:      38923  HIT:      38923  MISS:          0
cpu0_ITLB LOAD      ACCESS:      38923  HIT:      38923  MISS:          0
cpu0_ITLB RFO       ACCESS:          0  HIT:          0  MISS:          0
cpu0_ITLB PREFETCH  ACCESS:          0  HIT:          0  MISS:          0
cpu0_ITLB WRITEBACK ACCESS:          0  HIT:          0  MISS:          0
cpu0_L1I TOTAL     ACCESS:     195857  HIT:     166702  MISS:      29155
cpu0_L1I LOAD      ACCESS:     195857  HIT:     166702  MISS:      29155
cpu0_L1I RFO       ACCESS:          0  HIT:          0  MISS:          0
cpu0_L1I PREFETCH  ACCESS:          0  HIT:          0  MISS:          0
cpu0_L1I WRITEBACK ACCESS:          0  HIT:          0  MISS:          0
cpu0_STLB TOTAL     ACCESS:      75047  HIT:      74981  MISS:         66
cpu0_STLB LOAD      ACCESS:      66021  HIT:      65956  MISS:         65
cpu0_STLB RFO       ACCESS:       9026  HIT:       9025  MISS:          1
cpu0_STLB PREFETCH  ACCESS:          0  HIT:          0  MISS:          0
cpu0_STLB WRITEBACK ACCESS:          0  HIT:          0  MISS:          0
cpu0_L1D TOTAL     ACCESS:     750705  HIT:     605376  MISS:     145329
cpu0_L1D LOAD      ACCESS:     593380  HIT:     460242  MISS:     133138
cpu0_L1D RFO       ACCESS:     157259  HIT:     145134  MISS:      12125
cpu0_L1D PREFETCH  ACCESS:          0  HIT:          0  MISS:          0
cpu0_L1D WRITEBACK ACCESS:          0  HIT:          0  MISS:          0
cpu0_L2C TOTAL     ACCESS:     187394  HIT:     177207  MISS:      10187
cpu0_L2C LOAD      ACCESS:     162272  HIT:     153297  MISS:       8975
cpu0_L2C RFO       ACCESS:      12113  HIT:      10921  MISS:       1192
cpu0_L2C PREFETCH  ACCESS:          0  HIT:          0  MISS:          0
cpu0_L2C WRITEBACK ACCESS:      12943  HIT:      12937  MISS:          6
LLC TOTAL     ACCESS:      11182  HIT:       5934  MISS:       5248
LLC LOAD      ACCESS:       8975  HIT:       4903  MISS:       4072
LLC RFO       ACCESS:       1186  HIT:         13  MISS:       1173
LLC PREFETCH  ACCESS:          0  HIT:          0  MISS:          0
LLC WRITEBACK ACCESS:       1007  HIT:       1007  MISS:          0
Heartbeat CPU 0 instructions: 54000003 cycles: 21240720 heartbeat IPC: 1.58425 cumulative IPC: 1.57841 (Simulation time: 0 hr 41 min 35 sec) 

Region of Interest Statistics
cpu0_DTLB TOTAL     ACCESS:    1062888  HIT:     912697  MISS:     150191
cpu0_DTLB LOAD      ACCESS:     912953  HIT:     780938  MISS:     132015
cpu0_DTLB RFO       ACCESS:     149935  HIT:     131759  MISS:      18176
cpu0_DTLB PREFETCH  ACCESS:          0  HIT:          0  MISS:          0
cpu0_DTLB WRITEBACK ACCESS:          0  HIT:          0  MISS:          0
cpu0_ITLB TOTAL     ACCESS:      77727  HIT:      77727  MISS:          0
cpu0_ITLB LOAD      ACCESS:      77727  HIT:      77727  MISS:          0
cpu0_ITLB RFO       ACCESS:          0  HIT:          0  MISS:          0
cpu0_ITLB PREFETCH  ACCESS:          0  HIT:          0  MISS:          0
cpu0_ITLB WRITEBACK ACCESS:          0  HIT:          0  MISS:          0
cpu0_L1I TOTAL     ACCESS:     391597  HIT:     333998  MISS:      57599
cpu0_L1I LOAD      ACCESS:     391597  HIT:     333998  MISS:      57599
cpu0_L1I RFO       ACCESS:          0  HIT:          0  MISS:          0
cpu0_L1I PREFETCH  ACCESS:          0  HIT:          0  MISS:          0
cpu0_L1I WRITEBACK ACCESS:          0  HIT:          0  MISS:          0
cpu0_STLB TOTAL     ACCESS:     150191  HIT:     150044  MISS:        147
cpu0_STLB LOAD      ACCESS:     132015  HIT:     131894  MISS:        121
cpu0_STLB RFO       ACCESS:      18176  HIT:      18150  MISS:         26
cpu0_STLB PREFETCH  ACCESS:          0  HIT:          0  MISS:          0
cpu0_STLB WRITEBACK ACCESS:          0  HIT:          0  MISS:          0
cpu0_L1D TOTAL     ACCESS:    1501184  HIT:    1210420  MISS:     290764
cpu0_L1D LOAD      ACCESS:    1186632  HIT:     920434  MISS:     266198
cpu0_L1D RFO       ACCESS:     314405  HIT:     289986  MISS:      24419
cpu0_L1D PREFETCH  ACCESS:          0  HIT:          0  MISS:          0
cpu0_L1D WRITEBACK ACCESS:          0  HIT:          0  MISS:          0
cpu0_L2C TOTAL     ACCESS:     374383  HIT:     352675  MISS:      21708
cpu0_L2C LOAD      ACCESS:     323769  HIT:     304476  MISS:      19293
cpu0_L2C RFO       ACCESS:      24393  HIT:      22049  MISS:       2344
cpu0_L2C PREFETCH  ACCESS:          0  HIT:          0  MISS:          0
cpu0_L2C WRITEBACK ACCESS:      26074  HIT:      26062  MISS:         12
LLC TOTAL     ACCESS:      23851  HIT:      13476  MISS:      10375
LLC LOAD      ACCESS:      19293  HIT:      11249  MISS:       8044
LLC RFO       ACCESS:       2338  HIT:         13  MISS:       2325
LLC PREFETCH  ACCESS:          0  HIT:          0  MISS:          0
LLC WRITEBACK ACCESS:       2161  HIT:       2161  MISS:          0
Heartbeat CPU 0 instructions: 56000002 cycles: 22520195 heartbeat IPC: 1.56314 cumulative IPC: 1.57329 (Simulation time: 0 hr 43 min 26 sec) 

Region of Interest Statistics
cpu0_DTLB TOTAL     ACCESS:    1592888  HIT:    1367228  MISS:     225660
cpu0_DTLB LOAD      ACCESS:    1367758  HIT:    1169330  MISS:     198428
cpu0_DTLB RFO       ACCESS:     225130  HIT:     197898  MISS:      27232
cpu0_DTLB PREFETCH  ACCESS:          0  HIT:          0  MISS:          0
cpu0_DTLB WRITEBACK ACCESS:          0  HIT:          0  MISS:          0
cpu0_ITLB TOTAL     ACCESS:     116551  HIT:     116551  MISS:          0
cpu0_ITLB LOAD      ACCESS:     116551  HIT:     116551  MISS:          0
cpu0_ITLB RFO       ACCESS:          0  HIT:          0  MISS:          0
cpu0_ITLB PREFETCH  ACCESS:          0  HIT:          0  MISS:          0
cpu0_ITLB WRITEBACK ACCESS:          0  HIT:          0  MISS:          0
cpu0_L1I TOTAL     ACCESS:     587472  HIT:     500976  MISS:      86496
cpu0_L1I LOAD      ACCESS:     587472  HIT:     500976  MISS:      86496
cpu0_L1I RFO       ACCESS:          0  HIT:          0  MISS:          0
cpu0_L1I PREFETCH  ACCESS:          0  HIT:          0  MISS:          0
cpu0_L1I WRITEBACK ACCESS:          0  HIT:          0  MISS:          0
cpu0_STLB TOTAL     ACCESS:     225660  HIT:     225421  MISS:        239
cpu0_STLB LOAD      ACCESS:     198428  HIT:     198240  MISS:        188
cpu0_STLB RFO       ACCESS:      27232  HIT:      27181  MISS:         51
cpu0_STLB PREFETCH  ACCESS:          0  HIT:          0  MISS:          0
cpu0_STLB WRITEBACK ACCESS:          0  HIT:          0  MISS:          0
cpu0_L1D TOTAL     ACCESS:    2251385  HIT:    1814790  MISS:     436595
cpu0_L1D LOAD      ACCESS:    1779566  HIT:    1379838  MISS:     399728
cpu0_L1D RFO       ACCESS:     471580  HIT:     434952  MISS:      36628
cpu0_L1D PREFETCH  ACCESS:          0  HIT:          0  MISS:          0
cpu0_L1D WRITEBACK ACCESS:          0  HIT:          0  MISS:          0
cpu0_L2C TOTAL     ACCESS:     562132  HIT:     529334  MISS:      32798
cpu0_L2C LOAD      ACCESS:     486179  HIT:     457180  MISS:      28999
cpu0_L2C RFO       ACCESS:      36591  HIT:      32923  MISS:       3668
cpu0_L2C PREFETCH  ACCESS:          0  HIT:          0  MISS:          0
cpu0_L2C WRITEBACK ACCESS:      39123  HIT:      39106  MISS:         17
LLC TOTAL     ACCESS:      36254  HIT:      20543  MISS:      15711
LLC LOAD      ACCESS:      28999  HIT:      16819  MISS:      12180
LLC RFO       ACCESS:       3593  HIT:         69  MISS:       3524
LLC PREFETCH  ACCESS:          0  HIT:          0  MISS:          0
LLC WRITEBACK ACCESS:       3548  HIT:       3548  MISS:          0
Heartbeat CPU 0 instructions: 58000002 cycles: 23793675 heartbeat IPC: 1.5705 cumulative IPC: 1.57259 (Simulation time: 0 hr 45 min 23 sec) 

Region of Interest Statistics
cpu0_DTLB TOTAL     ACCESS:    2124306  HIT:    1823258  MISS:     301048
cpu0_DTLB LOAD      ACCESS:    1824166  HIT:    1559489  MISS:     264677
cpu0_DTLB RFO       ACCESS:     300140  HIT:     263769  MISS:      36371
cpu0_DTLB PREFETCH  ACCESS:          0  HIT:          0  MISS:          0
cpu0_DTLB WRITEBACK ACCESS:          0  HIT:          0  MISS:          0
cpu0_ITLB TOTAL     ACCESS:     155457  HIT:     155457  MISS:          0
cpu0_ITLB LOAD      ACCESS:     155457  HIT:     155457  MISS:          0
cpu0_ITLB RFO       ACCESS:          0  HIT:          0  MISS:          0
cpu0_ITLB PREFETCH  ACCESS:          0  HIT:          0  MISS:          0
cpu0_ITLB WRITEBACK ACCESS:          0  HIT:          0  MISS:          0
cpu0_L1I TOTAL     ACCESS:     783387  HIT:     667658  MISS:     115729
cpu0_L1I LOAD      ACCESS:     783387  HIT:     667658  MISS:     115729
cpu0_L1I RFO       ACCESS:          0  HIT:          0  MISS:          0
cpu0_L1I PREFETCH  ACCESS:          0  HIT:          0  MISS:          0
cpu0_L1I WRITEBACK ACCESS:          0  HIT:          0  MISS:          0
cpu0_STLB TOTAL     ACCESS:     301048  HIT:     300713  MISS:        335
cpu0_STLB LOAD      ACCESS:     264677  HIT:     264418  MISS:        259
cpu0_STLB RFO       ACCESS:      36371  HIT:      36295  MISS:         76
cpu0_STLB PREFETCH  ACCESS:          0  HIT:          0  MISS:          0
cpu0_STLB WRITEBACK ACCESS:          0  HIT:          0  MISS:          0
cpu0_L1D TOTAL     ACCESS:    3002495  HIT:    2420239  MISS:     582256
cpu0_L1D LOAD      ACCESS:    2373430  HIT:    1840285  MISS:     533145
cpu0_L1D RFO       ACCESS:     628730  HIT:     579954  MISS:      48776
cpu0_L1D PREFETCH  ACCESS:          0  HIT:          0  MISS:          0
cpu0_L1D WRITEBACK ACCESS:          0  HIT:          0  MISS:          0
cpu0_L2C TOTAL     ACCESS:     749994  HIT:     706782  MISS:      43212
cpu0_L2C LOAD      ACCESS:     648808  HIT:     610801  MISS:      38007
cpu0_L2C RFO       ACCESS:      48728  HIT:      43717  MISS:       5011
cpu0_L2C PREFETCH  ACCESS:          0  HIT:          0  MISS:          0
cpu0_L2C WRITEBACK ACCESS:      52123  HIT:      52098  MISS:         25
LLC TOTAL     ACCESS:      47899  HIT:      26994  MISS:      20905
LLC LOAD      ACCESS:      38007  HIT:      21787  MISS:      16220
LLC RFO       ACCESS:       4840  HIT:        165  MISS:       4675
LLC PREFETCH  ACCESS:          0  HIT:          0  MISS:          0
LLC WRITEBACK ACCESS:       4883  HIT:       4880  MISS:          3
Heartbeat CPU 0 instructions: 60000004 cycles: 25068324 heartbeat IPC: 1.56906 cumulative IPC: 1.57188 (Simulation time: 0 hr 47 min 17 sec) 

Region of Interest Statistics
cpu0_DTLB TOTAL     ACCESS:    2655245  HIT:    2278935  MISS:     376310
cpu0_DTLB LOAD      ACCESS:    2279959  HIT:    1949164  MISS:     330795
cpu0_DTLB RFO       ACCESS:     375286  HIT:     329771  MISS:      45515
cpu0_DTLB PREFETCH  ACCESS:          0  HIT:          0  MISS:          0
cpu0_DTLB WRITEBACK ACCESS:          0  HIT:          0  MISS:          0
cpu0_ITLB TOTAL     ACCESS:     194408  HIT:     194408  MISS:          0
cpu0_ITLB LOAD      ACCESS:     194408  HIT:     194408  MISS:          0
cpu0_ITLB RFO       ACCESS:          0  HIT:          0  MISS:          0
cpu0_ITLB PREFETCH  ACCESS:          0  HIT:          0  MISS:          0
cpu0_ITLB WRITEBACK ACCESS:          0  HIT:          0  MISS:          0
cpu0_L1I TOTAL     ACCESS:     979334  HIT:     834678  MISS:     144656
cpu0_L1I LOAD      ACCESS:     979334  HIT:     834678  MISS:     144656
cpu0_L1I RFO       ACCESS:          0  HIT:          0  MISS:          0
cpu0_L1I PREFETCH  ACCESS:          0  HIT:          0  MISS:          0
cpu0_L1I WRITEBACK ACCESS:          0  HIT:          0  MISS:          0
cpu0_STLB TOTAL     ACCESS:     376310  HIT:     375926  MISS:        384
cpu0_STLB LOAD      ACCESS:     330795  HIT:     330487  MISS:        308
cpu0_STLB RFO       ACCESS:      45515  HIT:      45439  MISS:         76
cpu0_STLB PREFETCH  ACCESS:          0  HIT:          0  MISS:          0
cpu0_STLB WRITEBACK ACCESS:          0  HIT:          0  MISS:          0
cpu0_L1D TOTAL     ACCESS:    3752812  HIT:    3025521  MISS:     727291
cpu0_L1D LOAD      ACCESS:    2966460  HIT:    2300478  MISS:     665982
cpu0_L1D RFO       ACCESS:     785968  HIT:     725043  MISS:      60925
cpu0_L1D PREFETCH  ACCESS:          0  HIT:          0  MISS:          0
cpu0_L1D WRITEBACK ACCESS:          0  HIT:          0  MISS:          0
cpu0_L2C TOTAL     ACCESS:     936936  HIT:     882766  MISS:      54170
cpu0_L2C LOAD      ACCESS:     810554  HIT:     762915  MISS:      47639
cpu0_L2C RFO       ACCESS:      60863  HIT:      54543  MISS:       6320
cpu0_L2C PREFETCH  ACCESS:          0  HIT:          0  MISS:          0
cpu0_L2C WRITEBACK ACCESS:      65135  HIT:      65104  MISS:         31
LLC TOTAL     ACCESS:      60154  HIT:      34055  MISS:      26099
LLC LOAD      ACCESS:      47639  HIT:      27406  MISS:      20233
LLC RFO       ACCESS:       6066  HIT:        216  MISS:       5850
LLC PREFETCH  ACCESS:          0  HIT:          0  MISS:          0
LLC WRITEBACK ACCESS:       6269  HIT:       6263  MISS:          6
Heartbeat CPU 0 instructions: 62000004 cycles: 26336621 heartbeat IPC: 1.57692 cumulative IPC: 1.57272 (Simulation time: 0 hr 49 min 17 sec) 

Region of Interest Statistics
cpu0_DTLB TOTAL     ACCESS:    3186475  HIT:    2734615  MISS:     451860
cpu0_DTLB LOAD      ACCESS:    2736192  HIT:    2338900  MISS:     397292
cpu0_DTLB RFO       ACCESS:     450283  HIT:     395715  MISS:      54568
cpu0_DTLB PREFETCH  ACCESS:          0  HIT:          0  MISS:          0
cpu0_DTLB WRITEBACK ACCESS:          0  HIT:          0  MISS:          0
cpu0_ITLB TOTAL     ACCESS:     233273  HIT:     233273  MISS:          0
cpu0_ITLB LOAD      ACCESS:     233273  HIT:     233273  MISS:          0
cpu0_ITLB RFO       ACCESS:          0  HIT:          0  MISS:          0
cpu0_ITLB PREFETCH  ACCESS:          0  HIT:          0  MISS:          0
cpu0_ITLB WRITEBACK ACCESS:          0  HIT:          0  MISS:          0
cpu0_L1I TOTAL     ACCESS:    1175267  HIT:    1001904  MISS:     173363
cpu0_L1I LOAD      ACCESS:    1175267  HIT:    1001904  MISS:     173363
cpu0_L1I RFO       ACCESS:          0  HIT:          0  MISS:          0
cpu0_L1I PREFETCH  ACCESS:          0  HIT:          0  MISS:          0
cpu0_L1I WRITEBACK ACCESS:          0  HIT:          0  MISS:          0
cpu0_STLB TOTAL     ACCESS:     451860  HIT:     451380  MISS:        480
cpu0_STLB LOAD      ACCESS:     397292  HIT:     396913  MISS:        379
cpu0_STLB RFO       ACCESS:      54568  HIT:      54467  MISS:        101
cpu0_STLB PREFETCH  ACCESS:          0  HIT:          0  MISS:          0
cpu0_STLB WRITEBACK ACCESS:          0  HIT:          0  MISS:          0
cpu0_L1D TOTAL     ACCESS:    4502729  HIT:    3629811  MISS:     872918
cpu0_L1D LOAD      ACCESS:    3559162  HIT:    2759869  MISS:     799293
cpu0_L1D RFO       ACCESS:     943087  HIT:     869942  MISS:      73145
cpu0_L1D PREFETCH  ACCESS:          0  HIT:          0  MISS:          0
cpu0_L1D WRITEBACK ACCESS:          0  HIT:          0  MISS:          0
cpu0_L2C TOTAL     ACCESS:    1124303  HIT:    1059743  MISS:      64560
cpu0_L2C LOAD      ACCESS:     972561  HIT:     915762  MISS:      56799
cpu0_L2C RFO       ACCESS:      73071  HIT:      65572  MISS:       7499
cpu0_L2C PREFETCH  ACCESS:          0  HIT:          0  MISS:          0
cpu0_L2C WRITEBACK ACCESS:      78191  HIT:      78156  MISS:         35
LLC TOTAL     ACCESS:      71722  HIT:      40400  MISS:      31322
LLC LOAD      ACCESS:      56799  HIT:      32521  MISS:      24278
LLC RFO       ACCESS:       7244  HIT:        219  MISS:       7025
LLC PREFETCH  ACCESS:          0  HIT:          0  MISS:          0
LLC WRITEBACK ACCESS:       7452  HIT:       7443  MISS:          9
Heartbeat CPU 0 instructions: 64000001 cycles: 27607924 heartbeat IPC: 1.57319 cumulative IPC: 1.57279 (Simulation time: 0 hr 51 min 5 sec) 

Region of Interest Statistics
cpu0_DTLB TOTAL     ACCESS:    3716345  HIT:    3189187  MISS:     527158
cpu0_DTLB LOAD      ACCESS:    3190801  HIT:    2727258  MISS:     463543
cpu0_DTLB RFO       ACCESS:     525544  HIT:     461929  MISS:      63615
cpu0_DTLB PREFETCH  ACCESS:          0  HIT:          0  MISS:          0
cpu0_DTLB WRITEBACK ACCESS:          0  HIT:          0  MISS:          0
cpu0_ITLB TOTAL     ACCESS:     272170  HIT:     272170  MISS:          0
cpu0_ITLB LOAD      ACCESS:     272170  HIT:     272170  MISS:          0
cpu0_ITLB RFO       ACCESS:          0  HIT:          0  MISS:          0
cpu0_ITLB PREFETCH  ACCESS:          0  HIT:          0  MISS:          0
cpu0_ITLB WRITEBACK ACCESS:          0  HIT:          0  MISS:          0
cpu0_L1I TOTAL     ACCESS:    1371119  HIT:    1168871  MISS:     202248
cpu0_L1I LOAD      ACCESS:    1371119  HIT:    1168871  MISS:     202248
cpu0_L1I RFO       ACCESS:          0  HIT:          0  MISS:          0
cpu0_L1I PREFETCH  ACCESS:          0  HIT:          0  MISS:          0
cpu0_L1I WRITEBACK ACCESS:          0  HIT:          0  MISS:          0
cpu0_STLB TOTAL     ACCESS:     527158  HIT:     526590  MISS:        568
cpu0_STLB LOAD      ACCESS:     463543  HIT:     463101  MISS:        442
cpu0_STLB RFO       ACCESS:      63615  HIT:      63489  MISS:        126
cpu0_STLB PREFETCH  ACCESS:          0  HIT:          0  MISS:          0
cpu0_STLB WRITEBACK ACCESS:          0  HIT:          0  MISS:          0
cpu0_L1D TOTAL     ACCESS:    5252750  HIT:    4234261  MISS:    1018489
cpu0_L1D LOAD      ACCESS:    4151867  HIT:    3219309  MISS:     932558
cpu0_L1D RFO       ACCESS:    1100315  HIT:    1014952  MISS:      85363
cpu0_L1D PREFETCH  ACCESS:          0  HIT:          0  MISS:          0
cpu0_L1D WRITEBACK ACCESS:          0  HIT:          0  MISS:          0
cpu0_L2C TOTAL     ACCESS:    1311825  HIT:    1236184  MISS:      75641
cpu0_L2C LOAD      ACCESS:    1134685  HIT:    1068060  MISS:      66625
cpu0_L2C RFO       ACCESS:      85280  HIT:      76585  MISS:       8695
cpu0_L2C PREFETCH  ACCESS:          0  HIT:          0  MISS:          0
cpu0_L2C WRITEBACK ACCESS:      91292  HIT:      91257  MISS:         35
LLC TOTAL     ACCESS:      83925  HIT:      47396  MISS:      36529
LLC LOAD      ACCESS:      66624  HIT:      38290  MISS:      28334
LLC RFO       ACCESS:       8416  HIT:        241  MISS:       8175
LLC PREFETCH  ACCESS:          0  HIT:          0  MISS:          0
LLC WRITEBACK ACCESS:       8599  HIT:       8589  MISS:         10
Heartbeat CPU 0 instructions: 66000004 cycles: 28880457 heartbeat IPC: 1.57167 cumulative IPC: 1.57265 (Simulation time: 0 hr 53 min 7 sec) 

Region of Interest Statistics
cpu0_DTLB TOTAL     ACCESS:    4248008  HIT:    3645451  MISS:     602557
cpu0_DTLB LOAD      ACCESS:    3647338  HIT:    3117491  MISS:     529847
cpu0_DTLB RFO       ACCESS:     600670  HIT:     527960  MISS:      72710
cpu0_DTLB PREFETCH  ACCESS:          0  HIT:          0  MISS:          0
cpu0_DTLB WRITEBACK ACCESS:          0  HIT:          0  MISS:          0
cpu0_ITLB TOTAL     ACCESS:     310996  HIT:     310996  MISS:          0
cpu0_ITLB LOAD      ACCESS:     310996  HIT:     310996  MISS:          0
cpu0_ITLB RFO       ACCESS:          0  HIT:          0  MISS:          0
cpu0_ITLB PREFETCH  ACCESS:          0  HIT:          0  MISS:          0
cpu0_ITLB WRITEBACK ACCESS:          0  HIT:          0  MISS:          0
cpu0_L1I TOTAL     ACCESS:    1566871  HIT:    1335812  MISS:     231059
cpu0_L1I LOAD      ACCESS:    1566871  HIT:    1335812  MISS:     231059
cpu0_L1I RFO       ACCESS:          0  HIT:          0  MISS:          0
cpu0_L1I PREFETCH  ACCESS:          0  HIT:          0  MISS:          0
cpu0_L1I WRITEBACK ACCESS:          0  HIT:          0  MISS:          0
cpu0_STLB TOTAL     ACCESS:     602557  HIT:     601925  MISS:        632
cpu0_STLB LOAD      ACCESS:     529847  HIT:     529341  MISS:        506
cpu0_STLB RFO       ACCESS:      72710  HIT:      72584  MISS:        126
cpu0_STLB PREFETCH  ACCESS:          0  HIT:          0  MISS:          0
cpu0_STLB WRITEBACK ACCESS:          0  HIT:          0  MISS:          0
cpu0_L1D TOTAL     ACCESS:    6004240  HIT:    4839770  MISS:    1164470
cpu0_L1D LOAD      ACCESS:    4746086  HIT:    3679698  MISS:    1066388
cpu0_L1D RFO       ACCESS:    1257522  HIT:    1160072  MISS:      97450
cpu0_L1D PREFETCH  ACCESS:          0  HIT:          0  MISS:          0
cpu0_L1D WRITEBACK ACCESS:          0  HIT:          0  MISS:          0
cpu0_L2C TOTAL     ACCESS:    1499542  HIT:    1413056  MISS:      86486
cpu0_L2C LOAD      ACCESS:    1297296  HIT:    1221117  MISS:      76179
cpu0_L2C RFO       ACCESS:      97355  HIT:      87393  MISS:       9962
cpu0_L2C PREFETCH  ACCESS:          0  HIT:          0  MISS:          0
cpu0_L2C WRITEBACK ACCESS:     104259  HIT:     104223  MISS:         36
LLC TOTAL     ACCESS:      95929  HIT:      54230  MISS:      41699
LLC LOAD      ACCESS:      76178  HIT:      43850  MISS:      32328
LLC RFO       ACCESS:       9635  HIT:        285  MISS:       9350
LLC PREFETCH  ACCESS:          0  HIT:          0  MISS:          0
LLC WRITEBACK ACCESS:       9807  HIT:       9796  MISS:         11
Heartbeat CPU 0 instructions: 68000004 cycles: 30160631 heartbeat IPC: 1.56229 cumulative IPC: 1.57149 (Simulation time: 0 hr 54 min 54 sec) 

Region of Interest Statistics
cpu0_DTLB TOTAL     ACCESS:    4779938  HIT:    4101939  MISS:     677999
cpu0_DTLB LOAD      ACCESS:    4103417  HIT:    3507219  MISS:     596198
cpu0_DTLB RFO       ACCESS:     676521  HIT:     594720  MISS:      81801
cpu0_DTLB PREFETCH  ACCESS:          0  HIT:          0  MISS:          0
cpu0_DTLB WRITEBACK ACCESS:          0  HIT:          0  MISS:          0
cpu0_ITLB TOTAL     ACCESS:     349858  HIT:     349858  MISS:          0
cpu0_ITLB LOAD      ACCESS:     349858  HIT:     349858  MISS:          0
cpu0_ITLB RFO       ACCESS:          0  HIT:          0  MISS:          0
cpu0_ITLB PREFETCH  ACCESS:          0  HIT:          0  MISS:          0
cpu0_ITLB WRITEBACK ACCESS:          0  HIT:          0  MISS:          0
cpu0_L1I TOTAL     ACCESS:    1762635  HIT:    1503369  MISS:     259266
cpu0_L1I LOAD      ACCESS:    1762635  HIT:    1503369  MISS:     259266
cpu0_L1I RFO       ACCESS:          0  HIT:          0  MISS:          0
cpu0_L1I PREFETCH  ACCESS:          0  HIT:          0  MISS:          0
cpu0_L1I WRITEBACK ACCESS:          0  HIT:          0  MISS:          0
cpu0_STLB TOTAL     ACCESS:     677999  HIT:     677282  MISS:        717
cpu0_STLB LOAD      ACCESS:     596198  HIT:     595632  MISS:        566
cpu0_STLB RFO       ACCESS:      81801  HIT:      81650  MISS:        151
cpu0_STLB PREFETCH  ACCESS:          0  HIT:          0  MISS:          0
cpu0_STLB WRITEBACK ACCESS:          0  HIT:          0  MISS:          0
cpu0_L1D TOTAL     ACCESS:    6754660  HIT:    5444917  MISS:    1309743
cpu0_L1D LOAD      ACCESS:    5339115  HIT:    4139743  MISS:    1199372
cpu0_L1D RFO       ACCESS:    1414828  HIT:    1305174  MISS:     109654
cpu0_L1D PREFETCH  ACCESS:          0  HIT:          0  MISS:          0
cpu0_L1D WRITEBACK ACCESS:          0  HIT:          0  MISS:          0
cpu0_L2C TOTAL     ACCESS:    1686004  HIT:    1586850  MISS:      99154
cpu0_L2C LOAD      ACCESS:    1458469  HIT:    1371929  MISS:      86540
cpu0_L2C RFO       ACCESS:     109550  HIT:      97337  MISS:      12213
cpu0_L2C PREFETCH  ACCESS:          0  HIT:          0  MISS:          0
cpu0_L2C WRITEBACK ACCESS:     117268  HIT:     117232  MISS:         36
LLC TOTAL     ACCESS:     109928  HIT:      62903  MISS:      47025
LLC LOAD      ACCESS:      86539  HIT:      50085  MISS:      36454
LLC RFO       ACCESS:      10894  HIT:        344  MISS:      10550
LLC PREFETCH  ACCESS:          0  HIT:          0  MISS:          0
LLC WRITEBACK ACCESS:      12130  HIT:      12119  MISS:         11
Heartbeat CPU 0 instructions: 70000000 cycles: 31426618 heartbeat IPC: 1.57979 cumulative IPC: 1.57231 (Simulation time: 0 hr 56 min 49 sec) 

Region of Interest Statistics
cpu0_DTLB TOTAL     ACCESS:    5311416  HIT:    4558046  MISS:     753370
cpu0_DTLB LOAD      ACCESS:    4559216  HIT:    3896702  MISS:     662514
cpu0_DTLB RFO       ACCESS:     752200  HIT:     661344  MISS:      90856
cpu0_DTLB PREFETCH  ACCESS:          0  HIT:          0  MISS:          0
cpu0_DTLB WRITEBACK ACCESS:          0  HIT:          0  MISS:          0
cpu0_ITLB TOTAL     ACCESS:     388690  HIT:     388690  MISS:          0
cpu0_ITLB LOAD      ACCESS:     388690  HIT:     388690  MISS:          0
cpu0_ITLB RFO       ACCESS:          0  HIT:          0  MISS:          0
cpu0_ITLB PREFETCH  ACCESS:          0  HIT:          0  MISS:          0
cpu0_ITLB WRITEBACK ACCESS:          0  HIT:          0  MISS:          0
cpu0_L1I TOTAL     ACCESS:    1958375  HIT:    1670559  MISS:     287816
cpu0_L1I LOAD      ACCESS:    1958375  HIT:    1670559  MISS:     287816
cpu0_L1I RFO       ACCESS:          0  HIT:          0  MISS:          0
cpu0_L1I PREFETCH  ACCESS:          0  HIT:          0  MISS:          0
cpu0_L1I WRITEBACK ACCESS:          0  HIT:          0  MISS:          0
cpu0_STLB TOTAL     ACCESS:     753370  HIT:     752561  MISS:        809
cpu0_STLB LOAD      ACCESS:     662514  HIT:     661881  MISS:        633
cpu0_STLB RFO       ACCESS:      90856  HIT:      90680  MISS:        176
cpu0_STLB PREFETCH  ACCESS:          0  HIT:          0  MISS:          0
cpu0_STLB WRITEBACK ACCESS:          0  HIT:          0  MISS:          0
cpu0_L1D TOTAL     ACCESS:    7505516  HIT:    6050003  MISS:    1455513
cpu0_L1D LOAD      ACCESS:    5932737  HIT:    4599932  MISS:    1332805
cpu0_L1D RFO       ACCESS:    1571970  HIT:    1450071  MISS:     121899
cpu0_L1D PREFETCH  ACCESS:          0  HIT:          0  MISS:          0
cpu0_L1D WRITEBACK ACCESS:          0  HIT:          0  MISS:          0
cpu0_L2C TOTAL     ACCESS:    1873446  HIT:    1762317  MISS:     111129
cpu0_L2C LOAD      ACCESS:    1620432  HIT:    1523797  MISS:      96635
cpu0_L2C RFO       ACCESS:     121784  HIT:     107753  MISS:      14031
cpu0_L2C PREFETCH  ACCESS:          0  HIT:          0  MISS:          0
cpu0_L2C WRITEBACK ACCESS:     130421  HIT:     130381  MISS:         40
LLC TOTAL     ACCESS:     123221  HIT:      71061  MISS:      52160
LLC LOAD      ACCESS:      96634  HIT:      56196  MISS:      40438
LLC RFO       ACCESS:      12097  HIT:        397  MISS:      11700
LLC PREFETCH  ACCESS:          0  HIT:          0  MISS:          0
LLC WRITEBACK ACCESS:      14067  HIT:      14055  MISS:         12
Heartbeat CPU 0 instructions: 72000004 cycles: 32701644 heartbeat IPC: 1.5686 cumulative IPC: 1.57198 (Simulation time: 0 hr 58 min 39 sec) 

Region of Interest Statistics
cpu0_DTLB TOTAL     ACCESS:    5841694  HIT:    5012541  MISS:     829153
cpu0_DTLB LOAD      ACCESS:    5014372  HIT:    4285102  MISS:     729270
cpu0_DTLB RFO       ACCESS:     827322  HIT:     727439  MISS:      99883
cpu0_DTLB PREFETCH  ACCESS:          0  HIT:          0  MISS:          0
cpu0_DTLB WRITEBACK ACCESS:          0  HIT:          0  MISS:          0
cpu0_ITLB TOTAL     ACCESS:     427617  HIT:     427617  MISS:          0
cpu0_ITLB LOAD      ACCESS:     427617  HIT:     427617  MISS:          0
cpu0_ITLB RFO       ACCESS:          0  HIT:          0  MISS:          0
cpu0_ITLB PREFETCH  ACCESS:          0  HIT:          0  MISS:          0
cpu0_ITLB WRITEBACK ACCESS:          0  HIT:          0  MISS:          0
cpu0_L1I TOTAL     ACCESS:    2154326  HIT:    1837471  MISS:     316855
cpu0_L1I LOAD      ACCESS:    2154326  HIT:    1837471  MISS:     316855
cpu0_L1I RFO       ACCESS:          0  HIT:          0  MISS:          0
cpu0_L1I PREFETCH  ACCESS:          0  HIT:          0  MISS:          0
cpu0_L1I WRITEBACK ACCESS:          0  HIT:          0  MISS:          0
cpu0_STLB TOTAL     ACCESS:     829153  HIT:     828252  MISS:        901
cpu0_STLB LOAD      ACCESS:     729270  HIT:     728570  MISS:        700
cpu0_STLB RFO       ACCESS:      99883  HIT:      99682  MISS:        201
cpu0_STLB PREFETCH  ACCESS:          0  HIT:          0  MISS:          0
cpu0_STLB WRITEBACK ACCESS:          0  HIT:          0  MISS:          0
cpu0_L1D TOTAL     ACCESS:    8255805  HIT:    6654882  MISS:    1600923
cpu0_L1D LOAD      ACCESS:    6525744  HIT:    5059839  MISS:    1465905
cpu0_L1D RFO       ACCESS:    1729160  HIT:    1595043  MISS:     134117
cpu0_L1D PREFETCH  ACCESS:          0  HIT:          0  MISS:          0
cpu0_L1D WRITEBACK ACCESS:          0  HIT:          0  MISS:          0
cpu0_L2C TOTAL     ACCESS:    2060928  HIT:    1938639  MISS:     122289
cpu0_L2C LOAD      ACCESS:    1782545  HIT:    1676203  MISS:     106342
cpu0_L2C RFO       ACCESS:     133988  HIT:     118582  MISS:      15406
cpu0_L2C PREFETCH  ACCESS:          0  HIT:          0  MISS:          0
cpu0_L2C WRITEBACK ACCESS:     143494  HIT:     143439  MISS:         55
LLC TOTAL     ACCESS:     135530  HIT:      78138  MISS:      57392
LLC LOAD      ACCESS:     106341  HIT:      61855  MISS:      44486
LLC RFO       ACCESS:      13326  HIT:        451  MISS:      12875
LLC PREFETCH  ACCESS:          0  HIT:          0  MISS:          0
LLC WRITEBACK ACCESS:      15377  HIT:      15356  MISS:         21
Heartbeat CPU 0 instructions: 74000003 cycles: 33970766 heartbeat IPC: 1.57589 cumulative IPC: 1.5723 (Simulation time: 1 hr 0 min 42 sec) 

Region of Interest Statistics
cpu0_DTLB TOTAL     ACCESS:    6372435  HIT:    5467774  MISS:     904661
cpu0_DTLB LOAD      ACCESS:    5470333  HIT:    4674607  MISS:     795726
cpu0_DTLB RFO       ACCESS:     902102  HIT:     793167  MISS:     108935
cpu0_DTLB PREFETCH  ACCESS:          0  HIT:          0  MISS:          0
cpu0_DTLB WRITEBACK ACCESS:          0  HIT:          0  MISS:          0
cpu0_ITLB TOTAL     ACCESS:     466475  HIT:     466475  MISS:          0
cpu0_ITLB LOAD      ACCESS:     466475  HIT:     466475  MISS:          0
cpu0_ITLB RFO       ACCESS:          0  HIT:          0  MISS:          0
cpu0_ITLB PREFETCH  ACCESS:          0  HIT:          0  MISS:          0
cpu0_ITLB WRITEBACK ACCESS:          0  HIT:          0  MISS:          0
cpu0_L1I TOTAL     ACCESS:    2350126  HIT:    2004309  MISS:     345817
cpu0_L1I LOAD      ACCESS:    2350126  HIT:    2004309  MISS:     345817
cpu0_L1I RFO       ACCESS:          0  HIT:          0  MISS:          0
cpu0_L1I PREFETCH  ACCESS:          0  HIT:          0  MISS:          0
cpu0_L1I WRITEBACK ACCESS:          0  HIT:          0  MISS:          0
cpu0_STLB TOTAL     ACCESS:     904661  HIT:     903707  MISS:        954
cpu0_STLB LOAD      ACCESS:     795726  HIT:     794973  MISS:        753
cpu0_STLB RFO       ACCESS:     108935  HIT:     108734  MISS:        201
cpu0_STLB PREFETCH  ACCESS:          0  HIT:          0  MISS:          0
cpu0_STLB WRITEBACK ACCESS:          0  HIT:          0  MISS:          0
cpu0_L1D TOTAL     ACCESS:    9006901  HIT:    7260358  MISS:    1746543
cpu0_L1D LOAD      ACCESS:    7119627  HIT:    5520357  MISS:    1599270
cpu0_L1D RFO       ACCESS:    1886320  HIT:    1740001  MISS:     146319
cpu0_L1D PREFETCH  ACCESS:          0  HIT:          0  MISS:          0
cpu0_L1D WRITEBACK ACCESS:          0  HIT:          0  MISS:          0
cpu0_L2C TOTAL     ACCESS:    2248537  HIT:    2116022  MISS:     132515
cpu0_L2C LOAD      ACCESS:    1944854  HIT:    1829511  MISS:     115343
cpu0_L2C RFO       ACCESS:     146172  HIT:     129580  MISS:      16592
cpu0_L2C PREFETCH  ACCESS:          0  HIT:          0  MISS:          0
cpu0_L2C WRITEBACK ACCESS:     156557  HIT:     156486  MISS:         71
LLC TOTAL     ACCESS:     146888  HIT:      84247  MISS:      62641
LLC LOAD      ACCESS:     115342  HIT:      66800  MISS:      48542
LLC RFO       ACCESS:      14512  HIT:        462  MISS:      14050
LLC PREFETCH  ACCESS:          0  HIT:          0  MISS:          0
LLC WRITEBACK ACCESS:      16525  HIT:      16486  MISS:         39
Heartbeat CPU 0 instructions: 76000003 cycles: 35233743 heartbeat IPC: 1.58356 cumulative IPC: 1.57316 (Simulation time: 1 hr 2 min 38 sec) 

Region of Interest Statistics
cpu0_DTLB TOTAL     ACCESS:    6903401  HIT:    5923197  MISS:     980204
cpu0_DTLB LOAD      ACCESS:    5926370  HIT:    5064139  MISS:     862231
cpu0_DTLB RFO       ACCESS:     977031  HIT:     859058  MISS:     117973
cpu0_DTLB PREFETCH  ACCESS:          0  HIT:          0  MISS:          0
cpu0_DTLB WRITEBACK ACCESS:          0  HIT:          0  MISS:          0
cpu0_ITLB TOTAL     ACCESS:     505272  HIT:     505272  MISS:          0
cpu0_ITLB LOAD      ACCESS:     505272  HIT:     505272  MISS:          0
cpu0_ITLB RFO       ACCESS:          0  HIT:          0  MISS:          0
cpu0_ITLB PREFETCH  ACCESS:          0  HIT:          0  MISS:          0
cpu0_ITLB WRITEBACK ACCESS:          0  HIT:          0  MISS:          0
cpu0_L1I TOTAL     ACCESS:    2545925  HIT:    2171735  MISS:     374190
cpu0_L1I LOAD      ACCESS:    2545925  HIT:    2171735  MISS:     374190
cpu0_L1I RFO       ACCESS:          0  HIT:          0  MISS:          0
cpu0_L1I PREFETCH  ACCESS:          0  HIT:          0  MISS:          0
cpu0_L1I WRITEBACK ACCESS:          0  HIT:          0  MISS:          0
cpu0_STLB TOTAL     ACCESS:     980204  HIT:     979154  MISS:       1050
cpu0_STLB LOAD      ACCESS:     862231  HIT:     861407  MISS:        824
cpu0_STLB RFO       ACCESS:     117973  HIT:     117747  MISS:        226
cpu0_STLB PREFETCH  ACCESS:          0  HIT:          0  MISS:          0
cpu0_STLB WRITEBACK ACCESS:          0  HIT:          0  MISS:          0
cpu0_L1D TOTAL     ACCESS:    9756873  HIT:    7864811  MISS:    1892062
cpu0_L1D LOAD      ACCESS:    7712331  HIT:    5979830  MISS:    1732501
cpu0_L1D RFO       ACCESS:    2043492  HIT:    1884981  MISS:     158511
cpu0_L1D PREFETCH  ACCESS:          0  HIT:          0  MISS:          0
cpu0_L1D WRITEBACK ACCESS:          0  HIT:          0  MISS:          0
cpu0_L2C TOTAL     ACCESS:    2435416  HIT:    2292477  MISS:     142939
cpu0_L2C LOAD      ACCESS:    2106440  HIT:    1981884  MISS:     124556
cpu0_L2C RFO       ACCESS:     158351  HIT:     140609  MISS:      17742
cpu0_L2C PREFETCH  ACCESS:          0  HIT:          0  MISS:          0
cpu0_L2C WRITEBACK ACCESS:     169575  HIT:     169504  MISS:         71
LLC TOTAL     ACCESS:     158475  HIT:      90709  MISS:      67766
LLC LOAD      ACCESS:     124555  HIT:      72038  MISS:      52517
LLC RFO       ACCESS:      15662  HIT:        462  MISS:      15200
LLC PREFETCH  ACCESS:          0  HIT:          0  MISS:          0
LLC WRITEBACK ACCESS:      17688  HIT:      17649  MISS:         39
Heartbeat CPU 0 instructions: 78000000 cycles: 36500750 heartbeat IPC: 1.57852 cumulative IPC: 1.57354 (Simulation time: 1 hr 4 min 29 sec) 

Region of Interest Statistics
cpu0_DTLB TOTAL     ACCESS:    7433552  HIT:    6377683  MISS:    1055869
cpu0_DTLB LOAD      ACCESS:    6381369  HIT:    5452529  MISS:     928840
cpu0_DTLB RFO       ACCESS:    1052183  HIT:     925154  MISS:     127029
cpu0_DTLB PREFETCH  ACCESS:          0  HIT:          0  MISS:          0
cpu0_DTLB WRITEBACK ACCESS:          0  HIT:          0  MISS:          0
cpu0_ITLB TOTAL     ACCESS:     544133  HIT:     544133  MISS:          0
cpu0_ITLB LOAD      ACCESS:     544133  HIT:     544133  MISS:          0
cpu0_ITLB RFO       ACCESS:          0  HIT:          0  MISS:          0
cpu0_ITLB PREFETCH  ACCESS:          0  HIT:          0  MISS:          0
cpu0_ITLB WRITEBACK ACCESS:          0  HIT:          0  MISS:          0
cpu0_L1I TOTAL     ACCESS:    2741813  HIT:    2338815  MISS:     402998
cpu0_L1I LOAD      ACCESS:    2741813  HIT:    2338815  MISS:     402998
cpu0_L1I RFO       ACCESS:          0  HIT:          0  MISS:          0
cpu0_L1I PREFETCH  ACCESS:          0  HIT:          0  MISS:          0
cpu0_L1I WRITEBACK ACCESS:          0  HIT:          0  MISS:          0
cpu0_STLB TOTAL     ACCESS:    1055869  HIT:    1054742  MISS:       1127
cpu0_STLB LOAD      ACCESS:     928840  HIT:     927964  MISS:        876
cpu0_STLB RFO       ACCESS:     127029  HIT:     126778  MISS:        251
cpu0_STLB PREFETCH  ACCESS:          0  HIT:          0  MISS:          0
cpu0_STLB WRITEBACK ACCESS:          0  HIT:          0  MISS:          0
cpu0_L1D TOTAL     ACCESS:   10506873  HIT:    8468937  MISS:    2037936
cpu0_L1D LOAD      ACCESS:    8305071  HIT:    6439112  MISS:    1865959
cpu0_L1D RFO       ACCESS:    2200675  HIT:    2029825  MISS:     170850
cpu0_L1D PREFETCH  ACCESS:          0  HIT:          0  MISS:          0
cpu0_L1D WRITEBACK ACCESS:          0  HIT:          0  MISS:          0
cpu0_L2C TOTAL     ACCESS:    2623308  HIT:    2470128  MISS:     153180
cpu0_L2C LOAD      ACCESS:    2268691  HIT:    2135119  MISS:     133572
cpu0_L2C RFO       ACCESS:     170684  HIT:     151767  MISS:      18917
cpu0_L2C PREFETCH  ACCESS:          0  HIT:          0  MISS:          0
cpu0_L2C WRITEBACK ACCESS:     182806  HIT:     182733  MISS:         73
LLC TOTAL     ACCESS:     169988  HIT:      97007  MISS:      72981
LLC LOAD      ACCESS:     133571  HIT:      77016  MISS:      56555
LLC RFO       ACCESS:      16837  HIT:        462  MISS:      16375
LLC PREFETCH  ACCESS:          0  HIT:          0  MISS:          0
LLC WRITEBACK ACCESS:      18962  HIT:      18921  MISS:         41
Heartbeat CPU 0 instructions: 80000000 cycles: 37777628 heartbeat IPC: 1.56632 cumulative IPC: 1.57306 (Simulation time: 1 hr 6 min 15 sec) 

Region of Interest Statistics
cpu0_DTLB TOTAL     ACCESS:    7963785  HIT:    6831665  MISS:    1132120
cpu0_DTLB LOAD      ACCESS:    6836514  HIT:    5840506  MISS:     996008
cpu0_DTLB RFO       ACCESS:    1127271  HIT:     991159  MISS:     136112
cpu0_DTLB PREFETCH  ACCESS:          0  HIT:          0  MISS:          0
cpu0_DTLB WRITEBACK ACCESS:          0  HIT:          0  MISS:          0
cpu0_ITLB TOTAL     ACCESS:     582987  HIT:     582987  MISS:          0
cpu0_ITLB LOAD      ACCESS:     582987  HIT:     582987  MISS:          0
cpu0_ITLB RFO       ACCESS:          0  HIT:          0  MISS:          0
cpu0_ITLB PREFETCH  ACCESS:          0  HIT:          0  MISS:          0
cpu0_ITLB WRITEBACK ACCESS:          0  HIT:          0  MISS:          0
cpu0_L1I TOTAL     ACCESS:    2937661  HIT:    2506061  MISS:     431600
cpu0_L1I LOAD      ACCESS:    2937661  HIT:    2506061  MISS:     431600
cpu0_L1I RFO       ACCESS:          0  HIT:          0  MISS:          0
cpu0_L1I PREFETCH  ACCESS:          0  HIT:          0  MISS:          0
cpu0_L1I WRITEBACK ACCESS:          0  HIT:          0  MISS:          0
cpu0_STLB TOTAL     ACCESS:    1132120  HIT:    1130897  MISS:       1223
cpu0_STLB LOAD      ACCESS:     996008  HIT:     995061  MISS:        947
cpu0_STLB RFO       ACCESS:     136112  HIT:     135836  MISS:        276
cpu0_STLB PREFETCH  ACCESS:          0  HIT:          0  MISS:          0
cpu0_STLB WRITEBACK ACCESS:          0  HIT:          0  MISS:          0
cpu0_L1D TOTAL     ACCESS:   11256985  HIT:    9073323  MISS:    2183662
cpu0_L1D LOAD      ACCESS:    8897924  HIT:    6898512  MISS:    1999412
cpu0_L1D RFO       ACCESS:    2357838  HIT:    2174811  MISS:     183027
cpu0_L1D PREFETCH  ACCESS:          0  HIT:          0  MISS:          0
cpu0_L1D WRITEBACK ACCESS:          0  HIT:          0  MISS:          0
cpu0_L2C TOTAL     ACCESS:    2810665  HIT:    2647454  MISS:     163211
cpu0_L2C LOAD      ACCESS:    2430725  HIT:    2288351  MISS:     142374
cpu0_L2C RFO       ACCESS:     182840  HIT:     162738  MISS:      20102
cpu0_L2C PREFETCH  ACCESS:          0  HIT:          0  MISS:          0
cpu0_L2C WRITEBACK ACCESS:     195877  HIT:     195804  MISS:         73
LLC TOTAL     ACCESS:     181154  HIT:     102851  MISS:      78303
LLC LOAD      ACCESS:     142373  HIT:      81681  MISS:      60692
LLC RFO       ACCESS:      18022  HIT:        462  MISS:      17560
LLC PREFETCH  ACCESS:          0  HIT:          0  MISS:          0
LLC WRITEBACK ACCESS:      20097  HIT:      20056  MISS:         41
Heartbeat CPU 0 instructions: 82000000 cycles: 39040083 heartbeat IPC: 1.58421 cumulative IPC: 1.57375 (Simulation time: 1 hr 8 min 19 sec) 

Region of Interest Statistics
cpu0_DTLB TOTAL     ACCESS:    8495205  HIT:    7288191  MISS:    1207014
cpu0_DTLB LOAD      ACCESS:    7292922  HIT:    6231050  MISS:    1061872
cpu0_DTLB RFO       ACCESS:    1202283  HIT:    1057141  MISS:     145142
cpu0_DTLB PREFETCH  ACCESS:          0  HIT:          0  MISS:          0
cpu0_DTLB WRITEBACK ACCESS:          0  HIT:          0  MISS:          0
cpu0_ITLB TOTAL     ACCESS:     621923  HIT:     621923  MISS:          0
cpu0_ITLB LOAD      ACCESS:     621923  HIT:     621923  MISS:          0
cpu0_ITLB RFO       ACCESS:          0  HIT:          0  MISS:          0
cpu0_ITLB PREFETCH  ACCESS:          0  HIT:          0  MISS:          0
cpu0_ITLB WRITEBACK ACCESS:          0  HIT:          0  MISS:          0
cpu0_L1I TOTAL     ACCESS:    3133456  HIT:    2673096  MISS:     460360
cpu0_L1I LOAD      ACCESS:    3133456  HIT:    2673096  MISS:     460360
cpu0_L1I RFO       ACCESS:          0  HIT:          0  MISS:          0
cpu0_L1I PREFETCH  ACCESS:          0  HIT:          0  MISS:          0
cpu0_L1I WRITEBACK ACCESS:          0  HIT:          0  MISS:          0
cpu0_STLB TOTAL     ACCESS:    1207014  HIT:    1205727  MISS:       1287
cpu0_STLB LOAD      ACCESS:    1061872  HIT:    1060861  MISS:       1011
cpu0_STLB RFO       ACCESS:     145142  HIT:     144866  MISS:        276
cpu0_STLB PREFETCH  ACCESS:          0  HIT:          0  MISS:          0
cpu0_STLB WRITEBACK ACCESS:          0  HIT:          0  MISS:          0
cpu0_L1D TOTAL     ACCESS:   12007208  HIT:    9677949  MISS:    2329259
cpu0_L1D LOAD      ACCESS:    9490887  HIT:    7358138  MISS:    2132749
cpu0_L1D RFO       ACCESS:    2515034  HIT:    2319811  MISS:     195223
cpu0_L1D PREFETCH  ACCESS:          0  HIT:          0  MISS:          0
cpu0_L1D WRITEBACK ACCESS:          0  HIT:          0  MISS:          0
cpu0_L2C TOTAL     ACCESS:    2998033  HIT:    2825638  MISS:     172395
cpu0_L2C LOAD      ACCESS:    2592802  HIT:    2442427  MISS:     150375
cpu0_L2C RFO       ACCESS:     195018  HIT:     173751  MISS:      21267
cpu0_L2C PREFETCH  ACCESS:          0  HIT:          0  MISS:          0
cpu0_L2C WRITEBACK ACCESS:     208926  HIT:     208853  MISS:         73
LLC TOTAL     ACCESS:     191654  HIT:     108213  MISS:      83441
LLC LOAD      ACCESS:     150374  HIT:      85709  MISS:      64665
LLC RFO       ACCESS:      19187  HIT:        462  MISS:      18725
LLC PREFETCH  ACCESS:          0  HIT:          0  MISS:          0
LLC WRITEBACK ACCESS:      21413  HIT:      21372  MISS:         41
Heartbeat CPU 0 instructions: 84000003 cycles: 40317940 heartbeat IPC: 1.56512 cumulative IPC: 1.57324 (Simulation time: 1 hr 10 min 11 sec) 

Region of Interest Statistics
cpu0_DTLB TOTAL     ACCESS:    9027104  HIT:    7744930  MISS:    1282174
cpu0_DTLB LOAD      ACCESS:    7748976  HIT:    6620994  MISS:    1127982
cpu0_DTLB RFO       ACCESS:    1278128  HIT:    1123936  MISS:     154192
cpu0_DTLB PREFETCH  ACCESS:          0  HIT:          0  MISS:          0
cpu0_DTLB WRITEBACK ACCESS:          0  HIT:          0  MISS:          0
cpu0_ITLB TOTAL     ACCESS:     660828  HIT:     660828  MISS:          0
cpu0_ITLB LOAD      ACCESS:     660828  HIT:     660828  MISS:          0
cpu0_ITLB RFO       ACCESS:          0  HIT:          0  MISS:          0
cpu0_ITLB PREFETCH  ACCESS:          0  HIT:          0  MISS:          0
cpu0_ITLB WRITEBACK ACCESS:          0  HIT:          0  MISS:          0
cpu0_L1I TOTAL     ACCESS:    3329263  HIT:    2840466  MISS:     488797
cpu0_L1I LOAD      ACCESS:    3329263  HIT:    2840466  MISS:     488797
cpu0_L1I RFO       ACCESS:          0  HIT:          0  MISS:          0
cpu0_L1I PREFETCH  ACCESS:          0  HIT:          0  MISS:          0
cpu0_L1I WRITEBACK ACCESS:          0  HIT:          0  MISS:          0
cpu0_STLB TOTAL     ACCESS:    1282174  HIT:    1280806  MISS:       1368
cpu0_STLB LOAD      ACCESS:    1127982  HIT:    1126915  MISS:       1067
cpu0_STLB RFO       ACCESS:     154192  HIT:     153891  MISS:        301
cpu0_STLB PREFETCH  ACCESS:          0  HIT:          0  MISS:          0
cpu0_STLB WRITEBACK ACCESS:          0  HIT:          0  MISS:          0
cpu0_L1D TOTAL     ACCESS:   12756938  HIT:   10282373  MISS:    2474565
cpu0_L1D LOAD      ACCESS:   10083432  HIT:    7817751  MISS:    2265681
cpu0_L1D RFO       ACCESS:    2672138  HIT:    2464622  MISS:     207516
cpu0_L1D PREFETCH  ACCESS:          0  HIT:          0  MISS:          0
cpu0_L1D WRITEBACK ACCESS:          0  HIT:          0  MISS:          0
cpu0_L2C TOTAL     ACCESS:    3184909  HIT:    3001555  MISS:     183354
cpu0_L2C LOAD      ACCESS:    2754160  HIT:    2594957  MISS:     159203
cpu0_L2C RFO       ACCESS:     207297  HIT:     183951  MISS:      23346
cpu0_L2C PREFETCH  ACCESS:          0  HIT:          0  MISS:          0
cpu0_L2C WRITEBACK ACCESS:     222084  HIT:     222011  MISS:         73
LLC TOTAL     ACCESS:     204027  HIT:     115353  MISS:      88674
LLC LOAD      ACCESS:     159202  HIT:      90479  MISS:      68723
LLC RFO       ACCESS:      20575  HIT:        675  MISS:      19900
LLC PREFETCH  ACCESS:          0  HIT:          0  MISS:          0
LLC WRITEBACK ACCESS:      23518  HIT:      23477  MISS:         41
Heartbeat CPU 0 instructions: 86000000 cycles: 41595356 heartbeat IPC: 1.56566 cumulative IPC: 1.57282 (Simulation time: 1 hr 12 min 1 sec) 

Region of Interest Statistics
cpu0_DTLB TOTAL     ACCESS:    9558062  HIT:    8200235  MISS:    1357827
cpu0_DTLB LOAD      ACCESS:    8204224  HIT:    7009637  MISS:    1194587
cpu0_DTLB RFO       ACCESS:    1353838  HIT:    1190598  MISS:     163240
cpu0_DTLB PREFETCH  ACCESS:          0  HIT:          0  MISS:          0
cpu0_DTLB WRITEBACK ACCESS:          0  HIT:          0  MISS:          0
cpu0_ITLB TOTAL     ACCESS:     699697  HIT:     699697  MISS:          0
cpu0_ITLB LOAD      ACCESS:     699697  HIT:     699697  MISS:          0
cpu0_ITLB RFO       ACCESS:          0  HIT:          0  MISS:          0
cpu0_ITLB PREFETCH  ACCESS:          0  HIT:          0  MISS:          0
cpu0_ITLB WRITEBACK ACCESS:          0  HIT:          0  MISS:          0
cpu0_L1I TOTAL     ACCESS:    3525087  HIT:    3007244  MISS:     517843
cpu0_L1I LOAD      ACCESS:    3525087  HIT:    3007244  MISS:     517843
cpu0_L1I RFO       ACCESS:          0  HIT:          0  MISS:          0
cpu0_L1I PREFETCH  ACCESS:          0  HIT:          0  MISS:          0
cpu0_L1I WRITEBACK ACCESS:          0  HIT:          0  MISS:          0
cpu0_STLB TOTAL     ACCESS:    1357827  HIT:    1356367  MISS:       1460
cpu0_STLB LOAD      ACCESS:    1194587  HIT:    1193453  MISS:       1134
cpu0_STLB RFO       ACCESS:     163240  HIT:     162914  MISS:        326
cpu0_STLB PREFETCH  ACCESS:          0  HIT:          0  MISS:          0
cpu0_STLB WRITEBACK ACCESS:          0  HIT:          0  MISS:          0
cpu0_L1D TOTAL     ACCESS:   13507212  HIT:   10887046  MISS:    2620166
cpu0_L1D LOAD      ACCESS:   10676431  HIT:    8277470  MISS:    2398961
cpu0_L1D RFO       ACCESS:    2829321  HIT:    2609576  MISS:     219745
cpu0_L1D PREFETCH  ACCESS:          0  HIT:          0  MISS:          0
cpu0_L1D WRITEBACK ACCESS:          0  HIT:          0  MISS:          0
cpu0_L2C TOTAL     ACCESS:    3372602  HIT:    3177849  MISS:     194753
cpu0_L2C LOAD      ACCESS:    2916470  HIT:    2747921  MISS:     168549
cpu0_L2C RFO       ACCESS:     219515  HIT:     194159  MISS:      25356
cpu0_L2C PREFETCH  ACCESS:          0  HIT:          0  MISS:          0
cpu0_L2C WRITEBACK ACCESS:     235157  HIT:     235084  MISS:         73
LLC TOTAL     ACCESS:     216803  HIT:     122888  MISS:      93915
LLC LOAD      ACCESS:     168548  HIT:      95758  MISS:      72790
LLC RFO       ACCESS:      21983  HIT:        911  MISS:      21072
LLC PREFETCH  ACCESS:          0  HIT:          0  MISS:          0
LLC WRITEBACK ACCESS:      25497  HIT:      25456  MISS:         41
Heartbeat CPU 0 instructions: 88000001 cycles: 42855703 heartbeat IPC: 1.58687 cumulative IPC: 1.57355 (Simulation time: 1 hr 14 min 8 sec) 

Region of Interest Statistics
cpu0_DTLB TOTAL     ACCESS:   10088564  HIT:    8655282  MISS:    1433282
cpu0_DTLB LOAD      ACCESS:    8659934  HIT:    7398942  MISS:    1260992
cpu0_DTLB RFO       ACCESS:    1428630  HIT:    1256340  MISS:     172290
cpu0_DTLB PREFETCH  ACCESS:          0  HIT:          0  MISS:          0
cpu0_DTLB WRITEBACK ACCESS:          0  HIT:          0  MISS:          0
cpu0_ITLB TOTAL     ACCESS:     738571  HIT:     738571  MISS:          0
cpu0_ITLB LOAD      ACCESS:     738571  HIT:     738571  MISS:          0
cpu0_ITLB RFO       ACCESS:          0  HIT:          0  MISS:          0
cpu0_ITLB PREFETCH  ACCESS:          0  HIT:          0  MISS:          0
cpu0_ITLB WRITEBACK ACCESS:          0  HIT:          0  MISS:          0
cpu0_L1I TOTAL     ACCESS:    3720914  HIT:    3174148  MISS:     546766
cpu0_L1I LOAD      ACCESS:    3720914  HIT:    3174148  MISS:     546766
cpu0_L1I RFO       ACCESS:          0  HIT:          0  MISS:          0
cpu0_L1I PREFETCH  ACCESS:          0  HIT:          0  MISS:          0
cpu0_L1I WRITEBACK ACCESS:          0  HIT:          0  MISS:          0
cpu0_STLB TOTAL     ACCESS:    1433282  HIT:    1431762  MISS:       1520
cpu0_STLB LOAD      ACCESS:    1260992  HIT:    1259798  MISS:       1194
cpu0_STLB RFO       ACCESS:     172290  HIT:     171964  MISS:        326
cpu0_STLB PREFETCH  ACCESS:          0  HIT:          0  MISS:          0
cpu0_STLB WRITEBACK ACCESS:          0  HIT:          0  MISS:          0
cpu0_L1D TOTAL     ACCESS:   14257374  HIT:   11491716  MISS:    2765658
cpu0_L1D LOAD      ACCESS:   11269346  HIT:    8737164  MISS:    2532182
cpu0_L1D RFO       ACCESS:    2986508  HIT:    2754552  MISS:     231956
cpu0_L1D PREFETCH  ACCESS:          0  HIT:          0  MISS:          0
cpu0_L1D WRITEBACK ACCESS:          0  HIT:          0  MISS:          0
cpu0_L2C TOTAL     ACCESS:    3560066  HIT:    3355244  MISS:     204822
cpu0_L2C LOAD      ACCESS:    3078590  HIT:    2901131  MISS:     177459
cpu0_L2C RFO       ACCESS:     231710  HIT:     205201  MISS:      26509
cpu0_L2C PREFETCH  ACCESS:          0  HIT:          0  MISS:          0
cpu0_L2C WRITEBACK ACCESS:     248246  HIT:     248173  MISS:         73
LLC TOTAL     ACCESS:     227840  HIT:     128803  MISS:      99037
LLC LOAD      ACCESS:     177458  HIT:     100699  MISS:      76759
LLC RFO       ACCESS:      23136  HIT:        911  MISS:      22225
LLC PREFETCH  ACCESS:          0  HIT:          0  MISS:          0
LLC WRITEBACK ACCESS:      26465  HIT:      26424  MISS:         41
Heartbeat CPU 0 instructions: 90000001 cycles: 44133794 heartbeat IPC: 1.56483 cumulative IPC: 1.57311 (Simulation time: 1 hr 16 min 19 sec) 

Region of Interest Statistics
cpu0_DTLB TOTAL     ACCESS:   10619867  HIT:    9111040  MISS:    1508827
cpu0_DTLB LOAD      ACCESS:    9116425  HIT:    7788960  MISS:    1327465
cpu0_DTLB RFO       ACCESS:    1503442  HIT:    1322080  MISS:     181362
cpu0_DTLB PREFETCH  ACCESS:          0  HIT:          0  MISS:          0
cpu0_DTLB WRITEBACK ACCESS:          0  HIT:          0  MISS:          0
cpu0_ITLB TOTAL     ACCESS:     777442  HIT:     777442  MISS:          0
cpu0_ITLB LOAD      ACCESS:     777442  HIT:     777442  MISS:          0
cpu0_ITLB RFO       ACCESS:          0  HIT:          0  MISS:          0
cpu0_ITLB PREFETCH  ACCESS:          0  HIT:          0  MISS:          0
cpu0_ITLB WRITEBACK ACCESS:          0  HIT:          0  MISS:          0
cpu0_L1I TOTAL     ACCESS:    3916713  HIT:    3341332  MISS:     575381
cpu0_L1I LOAD      ACCESS:    3916713  HIT:    3341332  MISS:     575381
cpu0_L1I RFO       ACCESS:          0  HIT:          0  MISS:          0
cpu0_L1I PREFETCH  ACCESS:          0  HIT:          0  MISS:          0
cpu0_L1I WRITEBACK ACCESS:          0  HIT:          0  MISS:          0
cpu0_STLB TOTAL     ACCESS:    1508827  HIT:    1507222  MISS:       1605
cpu0_STLB LOAD      ACCESS:    1327465  HIT:    1326211  MISS:       1254
cpu0_STLB RFO       ACCESS:     181362  HIT:     181011  MISS:        351
cpu0_STLB PREFETCH  ACCESS:          0  HIT:          0  MISS:          0
cpu0_STLB WRITEBACK ACCESS:          0  HIT:          0  MISS:          0
cpu0_L1D TOTAL     ACCESS:   15007913  HIT:   12096536  MISS:    2911377
cpu0_L1D LOAD      ACCESS:   11862513  HIT:    9196868  MISS:    2665645
cpu0_L1D RFO       ACCESS:    3143795  HIT:    2899668  MISS:     244127
cpu0_L1D PREFETCH  ACCESS:          0  HIT:          0  MISS:          0
cpu0_L1D WRITEBACK ACCESS:          0  HIT:          0  MISS:          0
cpu0_L2C TOTAL     ACCESS:    3747347  HIT:    3531642  MISS:     215705
cpu0_L2C LOAD      ACCESS:    3240655  HIT:    3053540  MISS:     187115
cpu0_L2C RFO       ACCESS:     243868  HIT:     216159  MISS:      27709
cpu0_L2C PREFETCH  ACCESS:          0  HIT:          0  MISS:          0
cpu0_L2C WRITEBACK ACCESS:     261219  HIT:     261146  MISS:         73
LLC TOTAL     ACCESS:     239923  HIT:     135565  MISS:     104358
LLC LOAD      ACCESS:     187114  HIT:     106234  MISS:      80880
LLC RFO       ACCESS:      24336  HIT:        911  MISS:      23425
LLC PREFETCH  ACCESS:          0  HIT:          0  MISS:          0
LLC WRITEBACK ACCESS:      27665  HIT:      27624  MISS:         41
Heartbeat CPU 0 instructions: 92000002 cycles: 45395875 heartbeat IPC: 1.58469 cumulative IPC: 1.57366 (Simulation time: 1 hr 18 min 15 sec) 

Region of Interest Statistics
cpu0_DTLB TOTAL     ACCESS:   11150779  HIT:    9566475  MISS:    1584304
cpu0_DTLB LOAD      ACCESS:    9572371  HIT:    8178536  MISS:    1393835
cpu0_DTLB RFO       ACCESS:    1578408  HIT:    1387939  MISS:     190469
cpu0_DTLB PREFETCH  ACCESS:          0  HIT:          0  MISS:          0
cpu0_DTLB WRITEBACK ACCESS:          0  HIT:          0  MISS:          0
cpu0_ITLB TOTAL     ACCESS:     816296  HIT:     816296  MISS:          0
cpu0_ITLB LOAD      ACCESS:     816296  HIT:     816296  MISS:          0
cpu0_ITLB RFO       ACCESS:          0  HIT:          0  MISS:          0
cpu0_ITLB PREFETCH  ACCESS:          0  HIT:          0  MISS:          0
cpu0_ITLB WRITEBACK ACCESS:          0  HIT:          0  MISS:          0
cpu0_L1I TOTAL     ACCESS:    4112542  HIT:    3508431  MISS:     604111
cpu0_L1I LOAD      ACCESS:    4112542  HIT:    3508431  MISS:     604111
cpu0_L1I RFO       ACCESS:          0  HIT:          0  MISS:          0
cpu0_L1I PREFETCH  ACCESS:          0  HIT:          0  MISS:          0
cpu0_L1I WRITEBACK ACCESS:          0  HIT:          0  MISS:          0
cpu0_STLB TOTAL     ACCESS:    1584304  HIT:    1582603  MISS:       1701
cpu0_STLB LOAD      ACCESS:    1393835  HIT:    1392510  MISS:       1325
cpu0_STLB RFO       ACCESS:     190469  HIT:     190093  MISS:        376
cpu0_STLB PREFETCH  ACCESS:          0  HIT:          0  MISS:          0
cpu0_STLB WRITEBACK ACCESS:          0  HIT:          0  MISS:          0
cpu0_L1D TOTAL     ACCESS:   15758436  HIT:   12701573  MISS:    3056863
cpu0_L1D LOAD      ACCESS:   12455814  HIT:    9657075  MISS:    2798739
cpu0_L1D RFO       ACCESS:    3300921  HIT:    3044498  MISS:     256423
cpu0_L1D PREFETCH  ACCESS:          0  HIT:          0  MISS:          0
cpu0_L1D WRITEBACK ACCESS:          0  HIT:          0  MISS:          0
cpu0_L2C TOTAL     ACCESS:    3934636  HIT:    3708117  MISS:     226519
cpu0_L2C LOAD      ACCESS:    3402463  HIT:    3205735  MISS:     196728
cpu0_L2C RFO       ACCESS:     256158  HIT:     227299  MISS:      28859
cpu0_L2C PREFETCH  ACCESS:          0  HIT:          0  MISS:          0
cpu0_L2C WRITEBACK ACCESS:     274314  HIT:     274232  MISS:         82
LLC TOTAL     ACCESS:     251879  HIT:     142361  MISS:     109518
LLC LOAD      ACCESS:     196727  HIT:     111844  MISS:      84883
LLC RFO       ACCESS:      25486  HIT:        911  MISS:      24575
LLC PREFETCH  ACCESS:          0  HIT:          0  MISS:          0
LLC WRITEBACK ACCESS:      28816  HIT:      28768  MISS:         48
Heartbeat CPU 0 instructions: 94000001 cycles: 46662521 heartbeat IPC: 1.57897 cumulative IPC: 1.5739 (Simulation time: 1 hr 20 min 10 sec) 

Region of Interest Statistics
cpu0_DTLB TOTAL     ACCESS:   11681146  HIT:   10021565  MISS:    1659581
cpu0_DTLB LOAD      ACCESS:   10027694  HIT:    8567612  MISS:    1460082
cpu0_DTLB RFO       ACCESS:    1653452  HIT:    1453953  MISS:     199499
cpu0_DTLB PREFETCH  ACCESS:          0  HIT:          0  MISS:          0
cpu0_DTLB WRITEBACK ACCESS:          0  HIT:          0  MISS:          0
cpu0_ITLB TOTAL     ACCESS:     855095  HIT:     855095  MISS:          0
cpu0_ITLB LOAD      ACCESS:     855095  HIT:     855095  MISS:          0
cpu0_ITLB RFO       ACCESS:          0  HIT:          0  MISS:          0
cpu0_ITLB PREFETCH  ACCESS:          0  HIT:          0  MISS:          0
cpu0_ITLB WRITEBACK ACCESS:          0  HIT:          0  MISS:          0
cpu0_L1I TOTAL     ACCESS:    4308369  HIT:    3675280  MISS:     633089
cpu0_L1I LOAD      ACCESS:    4308369  HIT:    3675280  MISS:     633089
cpu0_L1I RFO       ACCESS:          0  HIT:          0  MISS:          0
cpu0_L1I PREFETCH  ACCESS:          0  HIT:          0  MISS:          0
cpu0_L1I WRITEBACK ACCESS:          0  HIT:          0  MISS:          0
cpu0_STLB TOTAL     ACCESS:    1659581  HIT:    1657792  MISS:       1789
cpu0_STLB LOAD      ACCESS:    1460082  HIT:    1458694  MISS:       1388
cpu0_STLB RFO       ACCESS:     199499  HIT:     199098  MISS:        401
cpu0_STLB PREFETCH  ACCESS:          0  HIT:          0  MISS:          0
cpu0_STLB WRITEBACK ACCESS:          0  HIT:          0  MISS:          0
cpu0_L1D TOTAL     ACCESS:   16508632  HIT:   13306223  MISS:    3202409
cpu0_L1D LOAD      ACCESS:   13048714  HIT:   10116727  MISS:    2931987
cpu0_L1D RFO       ACCESS:    3458129  HIT:    3189496  MISS:     268633
cpu0_L1D PREFETCH  ACCESS:          0  HIT:          0  MISS:          0
cpu0_L1D WRITEBACK ACCESS:          0  HIT:          0  MISS:          0
cpu0_L2C TOTAL     ACCESS:    4122205  HIT:    3884747  MISS:     237458
cpu0_L2C LOAD      ACCESS:    3564670  HIT:    3358232  MISS:     206438
cpu0_L2C RFO       ACCESS:     268356  HIT:     238322  MISS:      30034
cpu0_L2C PREFETCH  ACCESS:          0  HIT:          0  MISS:          0
cpu0_L2C WRITEBACK ACCESS:     287390  HIT:     287299  MISS:         91
LLC TOTAL     ACCESS:     263889  HIT:     149191  MISS:     114698
LLC LOAD      ACCESS:     206437  HIT:     117550  MISS:      88887
LLC RFO       ACCESS:      26661  HIT:        911  MISS:      25750
LLC PREFETCH  ACCESS:          0  HIT:          0  MISS:          0
LLC WRITEBACK ACCESS:      29896  HIT:      29847  MISS:         49
Heartbeat CPU 0 instructions: 96000000 cycles: 47931791 heartbeat IPC: 1.57571 cumulative IPC: 1.57398 (Simulation time: 1 hr 22 min 13 sec) 

Region of Interest Statistics
cpu0_DTLB TOTAL     ACCESS:   12212283  HIT:   10477605  MISS:    1734678
cpu0_DTLB LOAD      ACCESS:   10483833  HIT:    8957705  MISS:    1526128
cpu0_DTLB RFO       ACCESS:    1728450  HIT:    1519900  MISS:     208550
cpu0_DTLB PREFETCH  ACCESS:          0  HIT:          0  MISS:          0
cpu0_DTLB WRITEBACK ACCESS:          0  HIT:          0  MISS:          0
cpu0_ITLB TOTAL     ACCESS:     894009  HIT:     894009  MISS:          0
cpu0_ITLB LOAD      ACCESS:     894009  HIT:     894009  MISS:          0
cpu0_ITLB RFO       ACCESS:          0  HIT:          0  MISS:          0
cpu0_ITLB PREFETCH  ACCESS:          0  HIT:          0  MISS:          0
cpu0_ITLB WRITEBACK ACCESS:          0  HIT:          0  MISS:          0
cpu0_L1I TOTAL     ACCESS:    4504343  HIT:    3842135  MISS:     662208
cpu0_L1I LOAD      ACCESS:    4504343  HIT:    3842135  MISS:     662208
cpu0_L1I RFO       ACCESS:          0  HIT:          0  MISS:          0
cpu0_L1I PREFETCH  ACCESS:          0  HIT:          0  MISS:          0
cpu0_L1I WRITEBACK ACCESS:          0  HIT:          0  MISS:          0
cpu0_STLB TOTAL     ACCESS:    1734678  HIT:    1732825  MISS:       1853
cpu0_STLB LOAD      ACCESS:    1526128  HIT:    1524676  MISS:       1452
cpu0_STLB RFO       ACCESS:     208550  HIT:     208149  MISS:        401
cpu0_STLB PREFETCH  ACCESS:          0  HIT:          0  MISS:          0
cpu0_STLB WRITEBACK ACCESS:          0  HIT:          0  MISS:          0
cpu0_L1D TOTAL     ACCESS:   17258985  HIT:   13911093  MISS:    3347892
cpu0_L1D LOAD      ACCESS:   13641832  HIT:   10576577  MISS:    3065255
cpu0_L1D RFO       ACCESS:    3615300  HIT:    3334516  MISS:     280784
cpu0_L1D PREFETCH  ACCESS:          0  HIT:          0  MISS:          0
cpu0_L1D WRITEBACK ACCESS:          0  HIT:          0  MISS:          0
cpu0_L2C TOTAL     ACCESS:    4309737  HIT:    4061153  MISS:     248584
cpu0_L2C LOAD      ACCESS:    3727037  HIT:    3510677  MISS:     216360
cpu0_L2C RFO       ACCESS:     280486  HIT:     249277  MISS:      31209
cpu0_L2C PREFETCH  ACCESS:          0  HIT:          0  MISS:          0
cpu0_L2C WRITEBACK ACCESS:     300361  HIT:     300252  MISS:        109
LLC TOTAL     ACCESS:     276415  HIT:     156493  MISS:     119922
LLC LOAD      ACCESS:     216359  HIT:     123425  MISS:      92934
LLC RFO       ACCESS:      27836  HIT:        911  MISS:      26925
LLC PREFETCH  ACCESS:          0  HIT:          0  MISS:          0
LLC WRITEBACK ACCESS:      31314  HIT:      31263  MISS:         51
Heartbeat CPU 0 instructions: 98000003 cycles: 49197185 heartbeat IPC: 1.58054 cumulative IPC: 1.57425 (Simulation time: 1 hr 24 min 13 sec) 

Region of Interest Statistics
cpu0_DTLB TOTAL     ACCESS:   12743493  HIT:   10933615  MISS:    1809878
cpu0_DTLB LOAD      ACCESS:   10940247  HIT:    9348074  MISS:    1592173
cpu0_DTLB RFO       ACCESS:    1803246  HIT:    1585541  MISS:     217705
cpu0_DTLB PREFETCH  ACCESS:          0  HIT:          0  MISS:          0
cpu0_DTLB WRITEBACK ACCESS:          0  HIT:          0  MISS:          0
cpu0_ITLB TOTAL     ACCESS:     932923  HIT:     932923  MISS:          0
cpu0_ITLB LOAD      ACCESS:     932923  HIT:     932923  MISS:          0
cpu0_ITLB RFO       ACCESS:          0  HIT:          0  MISS:          0
cpu0_ITLB PREFETCH  ACCESS:          0  HIT:          0  MISS:          0
cpu0_ITLB WRITEBACK ACCESS:          0  HIT:          0  MISS:          0
cpu0_L1I TOTAL     ACCESS:    4700276  HIT:    4009208  MISS:     691068
cpu0_L1I LOAD      ACCESS:    4700276  HIT:    4009208  MISS:     691068
cpu0_L1I RFO       ACCESS:          0  HIT:          0  MISS:          0
cpu0_L1I PREFETCH  ACCESS:          0  HIT:          0  MISS:          0
cpu0_L1I WRITEBACK ACCESS:          0  HIT:          0  MISS:          0
cpu0_STLB TOTAL     ACCESS:    1809878  HIT:    1807940  MISS:       1938
cpu0_STLB LOAD      ACCESS:    1592173  HIT:    1590661  MISS:       1512
cpu0_STLB RFO       ACCESS:     217705  HIT:     217279  MISS:        426
cpu0_STLB PREFETCH  ACCESS:          0  HIT:          0  MISS:          0
cpu0_STLB WRITEBACK ACCESS:          0  HIT:          0  MISS:          0
cpu0_L1D TOTAL     ACCESS:   18009605  HIT:   14516117  MISS:    3493488
cpu0_L1D LOAD      ACCESS:   14235160  HIT:   11036603  MISS:    3198557
cpu0_L1D RFO       ACCESS:    3772507  HIT:    3479514  MISS:     292993
cpu0_L1D PREFETCH  ACCESS:          0  HIT:          0  MISS:          0
cpu0_L1D WRITEBACK ACCESS:          0  HIT:          0  MISS:          0
cpu0_L2C TOTAL     ACCESS:    4497208  HIT:    4238586  MISS:     258622
cpu0_L2C LOAD      ACCESS:    3889189  HIT:    3663992  MISS:     225197
cpu0_L2C RFO       ACCESS:     292682  HIT:     260323  MISS:      32359
cpu0_L2C PREFETCH  ACCESS:          0  HIT:          0  MISS:          0
cpu0_L2C WRITEBACK ACCESS:     313399  HIT:     313287  MISS:        112
LLC TOTAL     ACCESS:     287612  HIT:     162494  MISS:     125118
LLC LOAD      ACCESS:     225196  HIT:     128218  MISS:      96978
LLC RFO       ACCESS:      28986  HIT:        911  MISS:      28075
LLC PREFETCH  ACCESS:          0  HIT:          0  MISS:          0
LLC WRITEBACK ACCESS:      32476  HIT:      32423  MISS:         53
Heartbeat CPU 0 instructions: 100000001 cycles: 50463383 heartbeat IPC: 1.57953 cumulative IPC: 1.57446 (Simulation time: 1 hr 26 min 15 sec) 

Region of Interest Statistics
cpu0_DTLB TOTAL     ACCESS:   13274199  HIT:   11389222  MISS:    1884977
cpu0_DTLB LOAD      ACCESS:   11395971  HIT:    9737757  MISS:    1658214
cpu0_DTLB RFO       ACCESS:    1878228  HIT:    1651465  MISS:     226763
cpu0_DTLB PREFETCH  ACCESS:          0  HIT:          0  MISS:          0
cpu0_DTLB WRITEBACK ACCESS:          0  HIT:          0  MISS:          0
cpu0_ITLB TOTAL     ACCESS:     971849  HIT:     971849  MISS:          0
cpu0_ITLB LOAD      ACCESS:     971849  HIT:     971849  MISS:          0
cpu0_ITLB RFO       ACCESS:          0  HIT:          0  MISS:          0
cpu0_ITLB PREFETCH  ACCESS:          0  HIT:          0  MISS:          0
cpu0_ITLB WRITEBACK ACCESS:          0  HIT:          0  MISS:          0
cpu0_L1I TOTAL     ACCESS:    4896311  HIT:    4176285  MISS:     720026
cpu0_L1I LOAD      ACCESS:    4896311  HIT:    4176285  MISS:     720026
cpu0_L1I RFO       ACCESS:          0  HIT:          0  MISS:          0
cpu0_L1I PREFETCH  ACCESS:          0  HIT:          0  MISS:          0
cpu0_L1I WRITEBACK ACCESS:          0  HIT:          0  MISS:          0
cpu0_STLB TOTAL     ACCESS:    1884977  HIT:    1882947  MISS:       2030
cpu0_STLB LOAD      ACCESS:    1658214  HIT:    1656635  MISS:       1579
cpu0_STLB RFO       ACCESS:     226763  HIT:     226312  MISS:        451
cpu0_STLB PREFETCH  ACCESS:          0  HIT:          0  MISS:          0
cpu0_STLB WRITEBACK ACCESS:          0  HIT:          0  MISS:          0
cpu0_L1D TOTAL     ACCESS:   18759754  HIT:   15120475  MISS:    3639279
cpu0_L1D LOAD      ACCESS:   14828083  HIT:   11496020  MISS:    3332063
cpu0_L1D RFO       ACCESS:    3929641  HIT:    3624455  MISS:     305186
cpu0_L1D PREFETCH  ACCESS:          0  HIT:          0  MISS:          0
cpu0_L1D WRITEBACK ACCESS:          0  HIT:          0  MISS:          0
cpu0_L2C TOTAL     ACCESS:    4684997  HIT:    4416337  MISS:     268660
cpu0_L2C LOAD      ACCESS:    4051637  HIT:    3817642  MISS:     233995
cpu0_L2C RFO       ACCESS:     304868  HIT:     271320  MISS:      33548
cpu0_L2C PREFETCH  ACCESS:          0  HIT:          0  MISS:          0
cpu0_L2C WRITEBACK ACCESS:     326462  HIT:     326345  MISS:        117
LLC TOTAL     ACCESS:     298756  HIT:     168487  MISS:     130269
LLC LOAD      ACCESS:     233994  HIT:     133040  MISS:     100954
LLC RFO       ACCESS:      30168  HIT:        918  MISS:      29250
LLC PREFETCH  ACCESS:          0  HIT:          0  MISS:          0
LLC WRITEBACK ACCESS:      33594  HIT:      33541  MISS:         53
Heartbeat CPU 0 instructions: 102000004 cycles: 51738499 heartbeat IPC: 1.56849 cumulative IPC: 1.57423 (Simulation time: 1 hr 28 min 25 sec) 

Region of Interest Statistics
cpu0_DTLB TOTAL     ACCESS:   13804639  HIT:   11844179  MISS:    1960460
cpu0_DTLB LOAD      ACCESS:   11851521  HIT:   10126930  MISS:    1724591
cpu0_DTLB RFO       ACCESS:    1953118  HIT:    1717249  MISS:     235869
cpu0_DTLB PREFETCH  ACCESS:          0  HIT:          0  MISS:          0
cpu0_DTLB WRITEBACK ACCESS:          0  HIT:          0  MISS:          0
cpu0_ITLB TOTAL     ACCESS:    1010737  HIT:    1010737  MISS:          0
cpu0_ITLB LOAD      ACCESS:    1010737  HIT:    1010737  MISS:          0
cpu0_ITLB RFO       ACCESS:          0  HIT:          0  MISS:          0
cpu0_ITLB PREFETCH  ACCESS:          0  HIT:          0  MISS:          0
cpu0_ITLB WRITEBACK ACCESS:          0  HIT:          0  MISS:          0
cpu0_L1I TOTAL     ACCESS:    5092323  HIT:    4343439  MISS:     748884
cpu0_L1I LOAD      ACCESS:    5092323  HIT:    4343439  MISS:     748884
cpu0_L1I RFO       ACCESS:          0  HIT:          0  MISS:          0
cpu0_L1I PREFETCH  ACCESS:          0  HIT:          0  MISS:          0
cpu0_L1I WRITEBACK ACCESS:          0  HIT:          0  MISS:          0
cpu0_STLB TOTAL     ACCESS:    1960460  HIT:    1958338  MISS:       2122
cpu0_STLB LOAD      ACCESS:    1724591  HIT:    1722945  MISS:       1646
cpu0_STLB RFO       ACCESS:     235869  HIT:     235393  MISS:        476
cpu0_STLB PREFETCH  ACCESS:          0  HIT:          0  MISS:          0
cpu0_STLB WRITEBACK ACCESS:          0  HIT:          0  MISS:          0
cpu0_L1D TOTAL     ACCESS:   19509784  HIT:   15724927  MISS:    3784857
cpu0_L1D LOAD      ACCESS:   15420768  HIT:   11955391  MISS:    3465377
cpu0_L1D RFO       ACCESS:    4086894  HIT:    3769536  MISS:     317358
cpu0_L1D PREFETCH  ACCESS:          0  HIT:          0  MISS:          0
cpu0_L1D WRITEBACK ACCESS:          0  HIT:          0  MISS:          0
cpu0_L2C TOTAL     ACCESS:    4872456  HIT:    4592432  MISS:     280024
cpu0_L2C LOAD      ACCESS:    4213790  HIT:    3969676  MISS:     244114
cpu0_L2C RFO       ACCESS:     317030  HIT:     282282  MISS:      34748
cpu0_L2C PREFETCH  ACCESS:          0  HIT:          0  MISS:          0
cpu0_L2C WRITEBACK ACCESS:     339514  HIT:     339397  MISS:        117
LLC TOTAL     ACCESS:     311188  HIT:     175596  MISS:     135592
LLC LOAD      ACCESS:     244113  HIT:     139035  MISS:     105078
LLC RFO       ACCESS:      31368  HIT:        919  MISS:      30449
LLC PREFETCH  ACCESS:          0  HIT:          0  MISS:          0
LLC WRITEBACK ACCESS:      34662  HIT:      34609  MISS:         53
Heartbeat CPU 0 instructions: 104000004 cycles: 53000349 heartbeat IPC: 1.58497 cumulative IPC: 1.57463 (Simulation time: 1 hr 30 min 29 sec) 

Region of Interest Statistics
cpu0_DTLB TOTAL     ACCESS:   14335276  HIT:   12299344  MISS:    2035932
cpu0_DTLB LOAD      ACCESS:   12307499  HIT:   10516608  MISS:    1790891
cpu0_DTLB RFO       ACCESS:    2027777  HIT:    1782736  MISS:     245041
cpu0_DTLB PREFETCH  ACCESS:          0  HIT:          0  MISS:          0
cpu0_DTLB WRITEBACK ACCESS:          0  HIT:          0  MISS:          0
cpu0_ITLB TOTAL     ACCESS:    1049645  HIT:    1049645  MISS:          0
cpu0_ITLB LOAD      ACCESS:    1049645  HIT:    1049645  MISS:          0
cpu0_ITLB RFO       ACCESS:          0  HIT:          0  MISS:          0
cpu0_ITLB PREFETCH  ACCESS:          0  HIT:          0  MISS:          0
cpu0_ITLB WRITEBACK ACCESS:          0  HIT:          0  MISS:          0
cpu0_L1I TOTAL     ACCESS:    5288323  HIT:    4510281  MISS:     778042
cpu0_L1I LOAD      ACCESS:    5288323  HIT:    4510281  MISS:     778042
cpu0_L1I RFO       ACCESS:          0  HIT:          0  MISS:          0
cpu0_L1I PREFETCH  ACCESS:          0  HIT:          0  MISS:          0
cpu0_L1I WRITEBACK ACCESS:          0  HIT:          0  MISS:          0
cpu0_STLB TOTAL     ACCESS:    2035932  HIT:    2033757  MISS:       2175
cpu0_STLB LOAD      ACCESS:    1790891  HIT:    1789192  MISS:       1699
cpu0_STLB RFO       ACCESS:     245041  HIT:     244565  MISS:        476
cpu0_STLB PREFETCH  ACCESS:          0  HIT:          0  MISS:          0
cpu0_STLB WRITEBACK ACCESS:          0  HIT:          0  MISS:          0
cpu0_L1D TOTAL     ACCESS:   20261331  HIT:   16331056  MISS:    3930275
cpu0_L1D LOAD      ACCESS:   16015047  HIT:   12416436  MISS:    3598611
cpu0_L1D RFO       ACCESS:    4244109  HIT:    3914620  MISS:     329489
cpu0_L1D PREFETCH  ACCESS:          0  HIT:          0  MISS:          0
cpu0_L1D WRITEBACK ACCESS:          0  HIT:          0  MISS:          0
cpu0_L2C TOTAL     ACCESS:    5060002  HIT:    4768891  MISS:     291111
cpu0_L2C LOAD      ACCESS:    4376161  HIT:    4122127  MISS:     254034
cpu0_L2C RFO       ACCESS:     329146  HIT:     293247  MISS:      35899
cpu0_L2C PREFETCH  ACCESS:          0  HIT:          0  MISS:          0
cpu0_L2C WRITEBACK ACCESS:     352520  HIT:     352403  MISS:        117
LLC TOTAL     ACCESS:     323525  HIT:     182815  MISS:     140710
LLC LOAD      ACCESS:     254033  HIT:     144988  MISS:     109045
LLC RFO       ACCESS:      32519  HIT:        919  MISS:      31600
LLC PREFETCH  ACCESS:          0  HIT:          0  MISS:          0
LLC WRITEBACK ACCESS:      35912  HIT:      35859  MISS:         53
Heartbeat CPU 0 instructions: 106000003 cycles: 54268027 heartbeat IPC: 1.57769 cumulative IPC: 1.57474 (Simulation time: 1 hr 32 min 39 sec) 

Region of Interest Statistics
cpu0_DTLB TOTAL     ACCESS:   14866282  HIT:   12755354  MISS:    2110928
cpu0_DTLB LOAD      ACCESS:   12763617  HIT:   10906757  MISS:    1856860
cpu0_DTLB RFO       ACCESS:    2102665  HIT:    1848597  MISS:     254068
cpu0_DTLB PREFETCH  ACCESS:          0  HIT:          0  MISS:          0
cpu0_DTLB WRITEBACK ACCESS:          0  HIT:          0  MISS:          0
cpu0_ITLB TOTAL     ACCESS:    1088462  HIT:    1088462  MISS:          0
cpu0_ITLB LOAD      ACCESS:    1088462  HIT:    1088462  MISS:          0
cpu0_ITLB RFO       ACCESS:          0  HIT:          0  MISS:          0
cpu0_ITLB PREFETCH  ACCESS:          0  HIT:          0  MISS:          0
cpu0_ITLB WRITEBACK ACCESS:          0  HIT:          0  MISS:          0
cpu0_L1I TOTAL     ACCESS:    5484158  HIT:    4677421  MISS:     806737
cpu0_L1I LOAD      ACCESS:    5484158  HIT:    4677421  MISS:     806737
cpu0_L1I RFO       ACCESS:          0  HIT:          0  MISS:          0
cpu0_L1I PREFETCH  ACCESS:          0  HIT:          0  MISS:          0
cpu0_L1I WRITEBACK ACCESS:          0  HIT:          0  MISS:          0
cpu0_STLB TOTAL     ACCESS:    2110928  HIT:    2108657  MISS:       2271
cpu0_STLB LOAD      ACCESS:    1856860  HIT:    1855090  MISS:       1770
cpu0_STLB RFO       ACCESS:     254068  HIT:     253567  MISS:        501
cpu0_STLB PREFETCH  ACCESS:          0  HIT:          0  MISS:          0
cpu0_STLB WRITEBACK ACCESS:          0  HIT:          0  MISS:          0
cpu0_L1D TOTAL     ACCESS:   21011121  HIT:   16935474  MISS:    4075647
cpu0_L1D LOAD      ACCESS:   16607476  HIT:   12875804  MISS:    3731672
cpu0_L1D RFO       ACCESS:    4401374  HIT:    4059670  MISS:     341704
cpu0_L1D PREFETCH  ACCESS:          0  HIT:          0  MISS:          0
cpu0_L1D WRITEBACK ACCESS:          0  HIT:          0  MISS:          0
cpu0_L2C TOTAL     ACCESS:    5247065  HIT:    4945632  MISS:     301433
cpu0_L2C LOAD      ACCESS:    4537902  HIT:    4274770  MISS:     263132
cpu0_L2C RFO       ACCESS:     341345  HIT:     304271  MISS:      37074
cpu0_L2C PREFETCH  ACCESS:          0  HIT:          0  MISS:          0
[...]
cpu0_ITLB LOAD      ACCESS:   29158382  HIT:   29158382  MISS:          0
cpu0_ITLB RFO       ACCESS:          0  HIT:          0  MISS:          0
cpu0_ITLB PREFETCH  ACCESS:          0  HIT:          0  MISS:          0
cpu0_ITLB WRITEBACK ACCESS:          0  HIT:          0  MISS:          0
cpu0_L1I TOTAL     ACCESS:  146905932  HIT:  125277691  MISS:   21628241
cpu0_L1I LOAD      ACCESS:  146905932  HIT:  125277691  MISS:   21628241
cpu0_L1I RFO       ACCESS:          0  HIT:          0  MISS:          0
cpu0_L1I PREFETCH  ACCESS:          0  HIT:          0  MISS:          0
cpu0_L1I WRITEBACK ACCESS:          0  HIT:          0  MISS:          0
cpu0_STLB TOTAL     ACCESS:   56575708  HIT:   56513254  MISS:      62454
cpu0_STLB LOAD      ACCESS:   49773993  HIT:   49725468  MISS:      48525
cpu0_STLB RFO       ACCESS:    6801715  HIT:    6787786  MISS:      13929
cpu0_STLB PREFETCH  ACCESS:          0  HIT:          0  MISS:          0
cpu0_STLB WRITEBACK ACCESS:          0  HIT:          0  MISS:          0
cpu0_L1D TOTAL     ACCESS:  562747054  HIT:  453559102  MISS:  109187952
cpu0_L1D LOAD      ACCESS:  444796425  HIT:  344827669  MISS:   99968756
cpu0_L1D RFO       ACCESS:  117888823  HIT:  108730940  MISS:    9157883
cpu0_L1D PREFETCH  ACCESS:          0  HIT:          0  MISS:          0
cpu0_L1D WRITEBACK ACCESS:          0  HIT:          0  MISS:          0
cpu0_L2C TOTAL     ACCESS:  140591037  HIT:  132560165  MISS:    8030872
cpu0_L2C LOAD      ACCESS:  121583211  HIT:  114526560  MISS:    7056651
cpu0_L2C RFO       ACCESS:    9148201  HIT:    8205531  MISS:     942670
cpu0_L2C PREFETCH  ACCESS:          0  HIT:          0  MISS:          0
cpu0_L2C WRITEBACK ACCESS:    9798312  HIT:    9795705  MISS:       2607
LLC TOTAL     ACCESS:    8925723  HIT:    4970774  MISS:    3954949
LLC LOAD      ACCESS:    7056619  HIT:    3981461  MISS:    3075158
LLC RFO       ACCESS:     894922  HIT:      16886  MISS:     878036
LLC PREFETCH  ACCESS:          0  HIT:          0  MISS:          0
LLC WRITEBACK ACCESS:     945238  HIT:     943848  MISS:       1390
Finished CPU 0 instructions: 1500000001 cycles: 953557062 cumulative IPC: 1.57306 (Simulation time: 19 hr 39 min 59 sec) 

ChampSim completed all CPUs

Region of Interest Statistics

CPU 0 cumulative IPC: 1.57306 instructions: 1500000001 cycles: 953557062
cpu0_DTLB TOTAL     ACCESS:  398158539  HIT:  341582831  MISS:   56575708
cpu0_DTLB LOAD      ACCESS:  341874831  HIT:  292100838  MISS:   49773993
cpu0_DTLB RFO       ACCESS:   56283708  HIT:   49481993  MISS:    6801715
cpu0_DTLB PREFETCH  ACCESS:          0  HIT:          0  MISS:          0
cpu0_DTLB WRITEBACK ACCESS:          0  HIT:          0  MISS:          0
cpu0_DTLB TRANSLATION ACCESS:          0  HIT:          0  MISS:          0
cpu0_DTLB PREFETCH  REQUESTED:          0  ISSUED:          0  USEFUL:          0  USELESS:          0
cpu0_DTLB AVERAGE MISS LATENCY: 9.62432 cycles
cpu0_ITLB TOTAL     ACCESS:   29158382  HIT:   29158382  MISS:          0
cpu0_ITLB LOAD      ACCESS:   29158382  HIT:   29158382  MISS:          0
cpu0_ITLB RFO       ACCESS:          0  HIT:          0  MISS:          0
cpu0_ITLB PREFETCH  ACCESS:          0  HIT:          0  MISS:          0
cpu0_ITLB WRITEBACK ACCESS:          0  HIT:          0  MISS:          0
cpu0_ITLB TRANSLATION ACCESS:          0  HIT:          0  MISS:          0
cpu0_ITLB PREFETCH  REQUESTED:          0  ISSUED:          0  USEFUL:          0  USELESS:          0
cpu0_ITLB AVERAGE MISS LATENCY: -nan cycles
cpu0_L1I TOTAL     ACCESS:  146905932  HIT:  125277691  MISS:   21628241
cpu0_L1I LOAD      ACCESS:  146905932  HIT:  125277691  MISS:   21628241
cpu0_L1I RFO       ACCESS:          0  HIT:          0  MISS:          0
cpu0_L1I PREFETCH  ACCESS:          0  HIT:          0  MISS:          0
cpu0_L1I WRITEBACK ACCESS:          0  HIT:          0  MISS:          0
cpu0_L1I TRANSLATION ACCESS:          0  HIT:          0  MISS:          0
cpu0_L1I PREFETCH  REQUESTED:          0  ISSUED:          0  USEFUL:          0  USELESS:          0
cpu0_L1I AVERAGE MISS LATENCY: 11.2209 cycles
cpu0_STLB TOTAL     ACCESS:   56575708  HIT:   56513254  MISS:      62454
cpu0_STLB LOAD      ACCESS:   49773993  HIT:   49725468  MISS:      48525
cpu0_STLB RFO       ACCESS:    6801715  HIT:    6787786  MISS:      13929
cpu0_STLB PREFETCH  ACCESS:          0  HIT:          0  MISS:          0
cpu0_STLB WRITEBACK ACCESS:          0  HIT:          0  MISS:          0
cpu0_STLB TRANSLATION ACCESS:          0  HIT:          0  MISS:          0
cpu0_STLB PREFETCH  REQUESTED:          0  ISSUED:          0  USEFUL:          0  USELESS:          0
cpu0_STLB AVERAGE MISS LATENCY: 200.322 cycles
cpu0_L1D TOTAL     ACCESS:  562747054  HIT:  453559102  MISS:  109187952
cpu0_L1D LOAD      ACCESS:  444796425  HIT:  344827669  MISS:   99968756
cpu0_L1D RFO       ACCESS:  117888823  HIT:  108730940  MISS:    9157883
cpu0_L1D PREFETCH  ACCESS:          0  HIT:          0  MISS:          0
cpu0_L1D WRITEBACK ACCESS:          0  HIT:          0  MISS:          0
cpu0_L1D TRANSLATION ACCESS:      61806  HIT:        493  MISS:      61313
cpu0_L1D PREFETCH  REQUESTED:          0  ISSUED:          0  USEFUL:          0  USELESS:          0
cpu0_L1D AVERAGE MISS LATENCY: 48.4836 cycles
cpu0_L2C TOTAL     ACCESS:  140591038  HIT:  132560166  MISS:    8030872
cpu0_L2C LOAD      ACCESS:  121583212  HIT:  114526561  MISS:    7056651
cpu0_L2C RFO       ACCESS:    9148201  HIT:    8205531  MISS:     942670
cpu0_L2C PREFETCH  ACCESS:          0  HIT:          0  MISS:          0
cpu0_L2C WRITEBACK ACCESS:    9798312  HIT:    9795705  MISS:       2607
cpu0_L2C TRANSLATION ACCESS:      61313  HIT:      32369  MISS:      28944
cpu0_L2C PREFETCH  REQUESTED:          0  ISSUED:          0  USEFUL:          0  USELESS:          0
cpu0_L2C AVERAGE MISS LATENCY: 499.506 cycles
LLC TOTAL     ACCESS:    8925723  HIT:    4970774  MISS:    3954949
LLC LOAD      ACCESS:    7056619  HIT:    3981461  MISS:    3075158
LLC RFO       ACCESS:     894922  HIT:      16886  MISS:     878036
LLC PREFETCH  ACCESS:          0  HIT:          0  MISS:          0
LLC WRITEBACK ACCESS:     945238  HIT:     943848  MISS:       1390
LLC TRANSLATION ACCESS:      28944  HIT:      28579  MISS:        365
LLC PREFETCH  REQUESTED:          0  ISSUED:          0  USEFUL:          0  USELESS:          0
LLC AVERAGE MISS LATENCY: 971.903 cycles
~~~~~~~~~~Reuse Distance Profiler output~~~~~~~~~~
0	14021584	2457920
1	8709232	3353872
2	8055472	4320848
3	9666624	6812336
4	11341712	8107696
5	11380176	9557024
6	11152768	9183824
7	10987984	9515952
8	10926096	8928192
9	10632784	9020960
10	10856192	8996416
11	10057424	8023520
12	8715168	6958912
13	9195632	7269984
14	8038640	6272080
15	7043680	5646048
16	6852016	5517552
17	7491632	5541952
18	7227360	6005552
19	6328048	5302368
20	6074240	4887488
21	5609216	4354448
22	5973552	4847136
23	5849136	4734384
24	5609856	4415264
25	5675840	4466192
26	5588672	4473136
27	4900304	4020128
28	4967744	4091872
29	5176032	4238752
30	4782784	4083728
31	4557136	4080448
32	4134208	3591712
33	3880480	3291312
34	3793616	3165072
35	4112096	3177536
36	4483504	3709504
37	4362976	3672960
38	4116352	3269088
39	3971920	3362480
40	3751808	3160848
41	3829904	3167008
42	3635856	2906640
43	3328240	2643184
44	3101376	2487840
45	3197824	2567152
46	3064880	2544656
47	2893728	2378032
48	2966368	2319696
49	2659680	2166992
50	2689056	2175888
51	2843824	2296432
52	2561472	2064960
53	2615440	2189840
54	2552096	2145024
55	2576128	2227968
56	2316896	1935344
57	2200528	1872592
58	2210256	1904192
59	2193680	1861744
60	2184368	1806320
61	2071952	1772240
62	1949392	1684112
63	1853552	1577504
64	3148016	2770896
66	2679024	2361280
68	2471296	2071696
70	2677760	2089040
72	2683408	2139616
74	2447312	2012016
76	2375952	2125328
78	2463808	2256128
80	2287856	1991984
82	1840080	1522720
84	1575568	1322416
86	1532960	1284432
88	1562416	1263456
90	1491152	1111952
92	1525520	1033856
94	1223728	801056
96	1146720	778336
98	1344096	974336
100	1332992	962256
102	1167440	841728
104	1168528	754144
106	931312	606336
108	771792	522112
110	607312	430176
112	735024	532256
114	987024	750736
116	1074080	871152
118	1051216	844736
120	1046064	841936
122	902448	695616
124	783888	550720
126	648464	430224
128	1312656	795136
132	1438288	741840
136	1139648	654832
140	1034496	671024
144	1593056	1086336
148	1537200	1031856
152	1455216	1003600
156	1423680	982288
160	1322496	855616
164	1196800	772416
168	1123168	701088
172	1132752	764192
176	1028160	665680
180	848736	588560
184	632416	406784
188	719888	466288
192	626208	476192
196	565200	474144
200	667136	585264
204	638752	569008
208	495392	420000
212	333936	263392
216	343552	248464
220	526672	351664
224	738720	461232
228	653344	438448
232	596576	426368
236	507600	424736
240	409552	341312
244	446960	344432
248	427056	311872
252	428992	294496
256	1314560	1186096
264	828224	751008
272	344880	285952
280	365520	266512
288	423552	247680
296	397536	304624
304	721936	427168
312	846608	493680
320	602384	381344
328	330032	225744
336	280848	156144
344	373952	273712
352	421024	319776
360	786256	690656
368	577504	487696
376	746704	627184
384	610384	520144
392	401536	293264
400	372576	216592
408	220144	136096
416	259760	160704
424	329856	161120
432	310848	177120
440	222528	147488
448	211072	93168
456	186608	79216
464	219856	116576
472	343664	188784
480	373504	247408
488	311712	200352
496	328240	203856
504	315696	209856
512	527376	363040
528	440128	281696
544	292496	238880
560	405296	361264
576	179600	101392
592	431920	191136
608	434240	342640
624	465440	390896
640	411072	319808
656	225328	118528
672	318800	124192
688	313520	178944
704	230512	131792
720	498752	244432
736	315696	186944
752	286016	76432
768	204368	46256
784	156784	107328
800	180000	121728
816	160160	115712
832	219200	173376
848	239520	184160
864	271904	184528
880	331008	201680
896	284592	219360
912	278880	203456
928	533056	449440
944	402416	233664
960	304720	55424
976	197760	22800
992	82944	17344
1008	113408	12240
1024	309728	139424
1056	380528	183472
1088	576176	155552
1120	717552	211744
1152	1384608	560160
1184	1681136	989616
1216	980576	368256
1248	736688	399296
1280	666528	380224
1312	580352	237328
1344	728800	329072
1376	801408	419520
1408	451872	299824
1440	362304	269792
1472	473440	350176
1504	311760	233264
1536	465296	288144
1568	156016	56064
1600	454080	253888
1632	358624	297536
1664	561024	483248
1696	758368	595008
1728	736208	649376
1760	545376	386320
1792	470800	368704
1824	770848	713456
1856	1253792	1241968
1888	1596208	1556736
1920	3836080	3793712
1952	6018048	5924816
1984	10366736	10159792
2016	14639776	13911344
2048	48186160	43895616
2112	11535648	10648352
2176	1020112	990352
2240	2412624	2215888
2304	64	64
2368	16	16
2432	0	0
2496	32	32
2560	0	0
2624	48	48
2688	0	0
2752	32	32
2816	0	0
2880	0	0
2944	48	48
3008	0	0
3072	16	16
3136	0	0
3200	0	0
3264	0	0
3328	0	0
3392	16	16
3456	0	0
3520	0	0
3584	0	0
3648	48	32
3712	0	0
3776	0	0
3840	16	16
3904	0	0
3968	128	128
4032	688	688
4096	928	928
4224	160	128
4352	496	416
4480	432	432
4608	48	48
4736	0	0
4864	0	0
4992	0	0
5120	0	0
5248	0	0
5376	0	0
5504	0	0
5632	0	0
5760	0	0
5888	0	0
6016	272	272
6144	1200	1200
6272	288	288
6400	0	0
6528	0	0
6656	32	32
6784	16	16
6912	0	0
7040	0	0
7168	0	0
7296	0	0
7424	0	0
7552	0	0
7680	0	0
7808	0	0
7936	0	0
8064	144	144
8192	960	960
8448	0	0
8704	0	0
8960	48	48
9216	0	0
9472	0	0
9728	0	0
9984	176	176
10240	3264	3264
10496	80	80
10752	0	0
11008	48	48
11264	160	160
11520	0	0
11776	0	0
12032	32	32
12288	800	800
12544	16	16
12800	0	0
13056	0	0
13312	48	48
13568	48	48
13824	0	0
14080	16	16
14336	1680	1680
14592	96	96
14848	0	0
15104	0	0
15360	0	0
15616	160	160
15872	0	0
16128	16	16
16384	2016	2016
16896	0	0
17408	0	0
17920	192	192
18432	46272	46272
18944	0	0
19456	0	0
19968	1712	1712
20480	365936	365936
20992	96	96
21504	0	0
22016	448	448
22528	12992	12992
23040	48	48
23552	0	0
24064	16	16
24576	1152	1152
25088	0	0
25600	0	0
26112	0	0
26624	512	512
27136	0	0
27648	0	0
28160	0	0
28672	208	208
29184	16	16
29696	0	0
30208	0	0
30720	896	896
31232	32	32
31744	0	0
32256	0	0
32768	1968	1968
33792	32	32
34816	5584	5584
35840	32	32
36864	736	736
37888	112	112
38912	416	416
39936	16	16
40960	432	432
41984	16	16
43008	160	160
44032	0	0
45056	16	16
46080	0	0
47104	48	48
48128	0	0
49152	128	128
50176	0	0
51200	224	224
52224	0	0
53248	736	736
54272	32	32
55296	10416	10416
56320	16	16
57344	16	16
58368	48	48
59392	0	0
60416	400	400
61440	16	16
62464	0	0
63488	0	0
64512	0	0
65536	0	0
67584	0	0
69632	0	0
71680	0	0
73728	16	16
75776	3712	3712
77824	0	0
79872	0	0
81920	112	112
83968	0	0
86016	0	0
88064	0	0
90112	0	0
92160	0	0
94208	0	0
96256	0	0
98304	0	0
100352	0	0
102400	0	0
104448	0	0
106496	0	0
108544	0	0
110592	0	0
112640	0	0
114688	0	0
116736	0	0
118784	0	0
120832	0	0
122880	0	0
124928	0	0
126976	0	0
129024	0	0
131072	0	0
135168	0	0
139264	0	0
143360	0	0
147456	0	0
151552	0	0
155648	0	0
159744	0	0
163840	0	0
167936	0	0
172032	0	0
176128	0	0
180224	0	0
184320	0	0
188416	0	0
192512	0	0
196608	0	0
200704	0	0
204800	0	0
208896	0	0
212992	0	0
217088	0	0
221184	0	0
225280	0	0
229376	0	0
233472	0	0
237568	0	0
241664	0	0
245760	0	0
249856	0	0
253952	0	0
258048	0	0
262144	0	0
270336	0	0
278528	0	0
286720	0	0
294912	16	16
303104	0	0
311296	2192	2192
319488	4494256	4494256
327680	3467248	3467248
335872	296112	296112
344064	50336	50336
352256	200880	200880
360448	16592	16592
368640	5264	5264
376832	256	256
385024	64	64
393216	64	64
401408	48	48
409600	32	32
417792	32	32
425984	16	16
434176	0	0
442368	0	0
450560	0	0
458752	0	0
466944	0	0
475136	0	0
483328	0	0
491520	0	0
499712	0	0
507904	0	0
516096	0	0
524288	0	0
540672	0	0
557056	0	0
573440	0	0
589824	0	0
606208	0	0
622592	0	0
638976	336	336
655360	368	368
671744	2272	2272
688128	1488	1488
704512	1200	1200
720896	160	160
737280	160	160
753664	96	96
770048	16	16
786432	0	0
802816	16	16
819200	0	0
835584	0	0
851968	0	0
868352	0	0
884736	0	0
901120	0	0
917504	0	0
933888	0	0
950272	0	0
966656	0	0
983040	64	64
999424	464	464
1015808	1216	1216
1032192	1264	1264
1048576	960	960
1081344	80	80
1114112	32	32
1146880	48	48
1179648	0	0
1212416	0	0
1245184	0	0
1277952	0	0
1310720	16	16
1343488	1424	1424
1376256	1232	1232
1409024	224	224
1441792	64	64
1474560	48	48
1507328	64	64
1540096	32	32
1572864	0	0
1605632	0	0
1638400	0	0
1671168	960	960
1703936	2688	2688
1736704	1104	1104
1769472	32	32
1802240	0	0
1835008	16	16
1867776	96	96
1900544	0	0
1933312	0	0
1966080	0	0
1998848	96	96
2031616	1376	1376
2064384	880	880
2097152	128	128
2162688	16	16
2228224	64	64
2293760	0	0
2359296	1072	1072
2424832	496	496
2490368	0	0
2555904	16	16
2621440	16	16
2686976	304	304
2752512	560	560
2818048	0	0
2883584	0	0
2949120	16	16
3014656	288	288
3080192	1488	1488
3145728	16	16
3211264	0	0
3276800	0	0
3342336	32	32
3407872	5888	5888
3473408	32	32
3538944	0	0
3604480	0	0
3670016	0	0
3735552	240	240
3801088	128	128
3866624	0	0
3932160	0	0
3997696	16	16
4063232	32	32
4128768	64	64
4194304	0	0
4325376	0	0
4456448	32	32
4587520	0	0
4718592	32	32
4849664	16	16
4980736	0	0
5111808	80	80
5242880	0	0
5373952	0	0
5505024	32	32
5636096	0	0
5767168	32	32
5898240	0	0
6029312	0	0
6160384	0	0
6291456	0	0
6422528	0	0
6553600	16	16
6684672	0	0
6815744	0	0
6946816	0	0
7077888	0	0
7208960	16	16
7340032	0	0
7471104	0	0
7602176	0	0
7733248	0	0
7864320	0	0
7995392	0	0
8126464	0	0
8257536	16	16
8388608	0	0
8650752	0	0
8912896	0	0
9175040	0	0
9437184	0	0
9699328	0	0
9961472	0	0
10223616	0	0
10485760	0	0
10747904	0	0
11010048	0	0
11272192	0	0
11534336	0	0
11796480	0	0
12058624	0	0
12320768	0	0
12582912	0	0
12845056	0	0
13107200	0	0
13369344	0	0
13631488	0	0
13893632	0	0
14155776	0	0
14417920	0	0
14680064	0	0
14942208	0	0
15204352	0	0
15466496	0	0
15728640	0	0
15990784	0	0
16252928	0	0
16515072	0	0
16777216	0	0
17301504	0	0
17825792	0	0
18350080	0	0
18874368	0	0
19398656	0	0
19922944	0	0
20447232	0	0
20971520	0	0
21495808	0	0
22020096	0	0
22544384	0	0
23068672	0	0
23592960	0	0
24117248	0	0
24641536	0	0
25165824	0	0
25690112	0	0
26214400	0	0
26738688	0	0
27262976	0	0
27787264	0	0
28311552	0	0
28835840	0	0
29360128	0	0
29884416	0	0
30408704	0	0
30932992	0	0
31457280	0	0
31981568	0	0
32505856	0	0
33030144	0	0
33554432	0	0
34603008	0	0
35651584	0	0
36700160	0	0
37748736	0	0
38797312	0	0
39845888	0	0
40894464	80	16
41943040	0	0
42991616	0	0
44040192	0	0
45088768	0	0
46137344	0	0
47185920	0	0
48234496	0	0
49283072	0	0
50331648	0	0
51380224	48	48
52428800	32	32
53477376	80	80
54525952	48	48
55574528	1662416	1662416
56623104	327824	327824
57671680	8240	8240
58720256	608	608
59768832	16	16
60817408	0	0
61865984	0	0
62914560	0	0
63963136	0	0
65011712	0	0
66060288	0	0
67108864	0	0
69206016	0	0
71303168	0	0
73400320	0	0
75497472	0	0
77594624	0	0
79691776	0	0
81788928	0	0
83886080	48	0
85983232	0	0
88080384	0	0
90177536	0	0
92274688	0	0
94371840	0	0
96468992	0	0
98566144	0	0
100663296	0	0
102760448	0	0
104857600	0	0
106954752	0	0
109051904	0	0
111149056	16	16
113246208	0	0
115343360	16	16
117440512	0	0
119537664	0	0
121634816	0	0
123731968	0	0
125829120	0	0
127926272	0	0
130023424	0	0
132120576	0	0
134217728	0	0
138412032	0	0
142606336	0	0
146800640	0	0
150994944	0	0
155189248	0	0
159383552	0	0
163577856	0	0
167772160	0	0
171966464	0	0
176160768	0	0
180355072	0	0
184549376	0	0
188743680	0	0
192937984	0	0
197132288	0	0
201326592	0	0
205520896	0	0
209715200	0	0
213909504	0	0
218103808	0	0
222298112	0	0
226492416	16	16
230686720	0	0
234881024	0	0
239075328	0	0
243269632	0	0
247463936	0	0
251658240	0	0
255852544	0	0
260046848	0	0
264241152	0	0
268435456	0	0
276824064	0	0
285212672	0	0
293601280	0	0
301989888	0	0
310378496	0	0
318767104	0	0
327155712	0	0
335544320	0	0
343932928	0	0
352321536	0	0
360710144	0	0
369098752	0	0
377487360	0	0
385875968	0	0
394264576	0	0
402653184	0	0
411041792	0	0
419430400	0	0
427819008	32	16
436207616	0	0
444596224	0	0
452984832	0	0
461373440	0	0
469762048	0	0
478150656	0	0
486539264	0	0
494927872	0	0
503316480	0	0
511705088	0	0
520093696	0	0
528482304	0	0
536870912	0	0
553648128	0	0
570425344	0	0
587202560	0	0
603979776	0	0
620756992	0	0
637534208	0	0
654311424	0	0
671088640	0	0
687865856	0	0
704643072	0	0
721420288	0	0
738197504	0	0
754974720	0	0
771751936	0	0
788529152	0	0
805306368	0	0
822083584	0	0
838860800	0	0
855638016	0	0
872415232	0	0
889192448	0	0
905969664	0	0
922746880	0	0
939524096	0	0
956301312	0	0
973078528	0	0
989855744	0	0
1006632960	0	0
1023410176	0	0
1040187392	0	0
1056964608	0	0
1073741824	0	0
1107296256	0	0
1140850688	0	0
1174405120	0	0
1207959552	0	0
1241513984	0	0
1275068416	0	0
1308622848	0	0
1342177280	0	0
1375731712	0	0
1409286144	0	0
1442840576	0	0
1476395008	0	0
1509949440	0	0
1543503872	0	0
1577058304	0	0
1610612736	0	0
1644167168	0	0
1677721600	0	0
1711276032	0	0
1744830464	0	0
1778384896	0	0
1811939328	0	0
1845493760	0	0
1879048192	0	0
1912602624	0	0
1946157056	0	0
1979711488	0	0
2013265920	0	0
2046820352	0	0
2080374784	0	0
2113929216	0	0
2147483648	0	0
2214592512	0	0
2281701376	0	0
2348810240	0	0
2415919104	0	0
2483027968	0	0
2550136832	0	0
2617245696	0	0
2684354560	0	0
2751463424	0	0
2818572288	0	0
2885681152	0	0
2952790016	0	0
3019898880	0	0
3087007744	0	0
3154116608	0	0
3221225472	0	0
3288334336	0	0
3355443200	0	0
3422552064	0	0
3489660928	0	0
3556769792	0	0
3623878656	0	0
3690987520	0	0
3758096384	0	0
3825205248	0	0
3892314112	0	0
3959422976	0	0
4026531840	0	0
4093640704	0	0
4160749568	0	0
4227858432	0	0
~~~~~~~~~~Reuse Distance Profiler output end~~~~~~~~~~

Sampler size:130203

DRAM Statistics
 CHANNEL 0
 RQ ROW_BUFFER_HIT:        249  ROW_BUFFER_MISS:    3953310
 DBUS AVG_CONGESTED_CYCLE:    3.99982
 WQ ROW_BUFFER_HIT:      15456  ROW_BUFFER_MISS:     862727  FULL:          0


CPU 0 Branch Prediction Accuracy: 99.9626% MPKI: 0.00331333 Average ROB Occupancy at Mispredict: 63.3052
Branch type MPKI
BRANCH_DIRECT_JUMP: 6.66667e-07
BRANCH_INDIRECT: 1.33333e-06
BRANCH_CONDITIONAL: 0.00330733
BRANCH_DIRECT_CALL: 2e-06
BRANCH_INDIRECT_CALL: 0
BRANCH_RETURN: 2e-06

