
*** ChampSim Multicore Out-of-Order Simulator ***

Warmup Instructions: 50000000
Simulation Instructions: 1500000000
Number of CPUs: 1
Off-chip DRAM Size: 4 GiB Channels: 1 Width: 64-bit Data Rate: 3200 MT/s

VirtualMemory physical capacity: 8588881920 num_ppages: 2096895
VirtualMemory page size: 4096 log2_page_size: 12

CPU 0 runs /s/traces/champsim_traces/401.bzip2-226B.champsimtrace.xz
CPU 0 Bimodal branch predictor
Basic BTB sets: 1024 ways: 8 indirect buffer size: 4096 RAS size: 64
Initializing LRU.
Initializing LRU.
Initializing LRU.
Initializing LRU.
Initializing rdLRU.
Initializing LRU.
Initializing LRU.
Heartbeat CPU 0 instructions: 2000001 cycles: 504138 heartbeat IPC: 3.96717 cumulative IPC: 3.96717 (Simulation time: 0 hr 1 min 0 sec) 
Heartbeat CPU 0 instructions: 4000001 cycles: 1008060 heartbeat IPC: 3.96887 cumulative IPC: 3.96802 (Simulation time: 0 hr 2 min 1 sec) 
Heartbeat CPU 0 instructions: 6000001 cycles: 1511585 heartbeat IPC: 3.972 cumulative IPC: 3.96934 (Simulation time: 0 hr 3 min 2 sec) 
Heartbeat CPU 0 instructions: 8000000 cycles: 2015537 heartbeat IPC: 3.96863 cumulative IPC: 3.96917 (Simulation time: 0 hr 4 min 4 sec) 
Heartbeat CPU 0 instructions: 10000002 cycles: 2519543 heartbeat IPC: 3.96821 cumulative IPC: 3.96897 (Simulation time: 0 hr 5 min 8 sec) 
Heartbeat CPU 0 instructions: 12000003 cycles: 3023088 heartbeat IPC: 3.97184 cumulative IPC: 3.96945 (Simulation time: 0 hr 6 min 1 sec) 
Heartbeat CPU 0 instructions: 14000003 cycles: 3527083 heartbeat IPC: 3.96829 cumulative IPC: 3.96929 (Simulation time: 0 hr 6 min 57 sec) 
Heartbeat CPU 0 instructions: 16000001 cycles: 4031056 heartbeat IPC: 3.96846 cumulative IPC: 3.96918 (Simulation time: 0 hr 7 min 52 sec) 
Heartbeat CPU 0 instructions: 18000002 cycles: 4534612 heartbeat IPC: 3.97175 cumulative IPC: 3.96947 (Simulation time: 0 hr 8 min 49 sec) 
Heartbeat CPU 0 instructions: 20000002 cycles: 5036172 heartbeat IPC: 3.98756 cumulative IPC: 3.97127 (Simulation time: 0 hr 9 min 41 sec) 
Heartbeat CPU 0 instructions: 22000002 cycles: 5536172 heartbeat IPC: 4 cumulative IPC: 3.97387 (Simulation time: 0 hr 10 min 36 sec) 
Heartbeat CPU 0 instructions: 24000002 cycles: 6036172 heartbeat IPC: 4 cumulative IPC: 3.97603 (Simulation time: 0 hr 11 min 27 sec) 
Heartbeat CPU 0 instructions: 26000000 cycles: 6568837 heartbeat IPC: 3.7547 cumulative IPC: 3.95808 (Simulation time: 0 hr 12 min 23 sec) 
Heartbeat CPU 0 instructions: 28000000 cycles: 7068837 heartbeat IPC: 4 cumulative IPC: 3.96105 (Simulation time: 0 hr 13 min 14 sec) 
Heartbeat CPU 0 instructions: 30000000 cycles: 7568837 heartbeat IPC: 4 cumulative IPC: 3.96362 (Simulation time: 0 hr 14 min 7 sec) 
Heartbeat CPU 0 instructions: 32000000 cycles: 8068837 heartbeat IPC: 4 cumulative IPC: 3.96588 (Simulation time: 0 hr 14 min 57 sec) 
Heartbeat CPU 0 instructions: 34000000 cycles: 8568837 heartbeat IPC: 4 cumulative IPC: 3.96787 (Simulation time: 0 hr 15 min 53 sec) 
Heartbeat CPU 0 instructions: 36000002 cycles: 9071562 heartbeat IPC: 3.97832 cumulative IPC: 3.96845 (Simulation time: 0 hr 16 min 47 sec) 
Heartbeat CPU 0 instructions: 38000000 cycles: 9612032 heartbeat IPC: 3.70048 cumulative IPC: 3.95338 (Simulation time: 0 hr 17 min 45 sec) 
Heartbeat CPU 0 instructions: 40000001 cycles: 10201064 heartbeat IPC: 3.3954 cumulative IPC: 3.92116 (Simulation time: 0 hr 18 min 53 sec) 
Heartbeat CPU 0 instructions: 42000001 cycles: 10825575 heartbeat IPC: 3.20251 cumulative IPC: 3.8797 (Simulation time: 0 hr 20 min 11 sec) 
Heartbeat CPU 0 instructions: 44000004 cycles: 11446964 heartbeat IPC: 3.2186 cumulative IPC: 3.84381 (Simulation time: 0 hr 21 min 28 sec) 
Heartbeat CPU 0 instructions: 46000003 cycles: 12050468 heartbeat IPC: 3.31398 cumulative IPC: 3.81728 (Simulation time: 0 hr 22 min 39 sec) 
Heartbeat CPU 0 instructions: 48000002 cycles: 12733455 heartbeat IPC: 2.92831 cumulative IPC: 3.7696 (Simulation time: 0 hr 24 min 3 sec) 
Heartbeat CPU 0 instructions: 50000004 cycles: 13349335 heartbeat IPC: 3.24739 cumulative IPC: 3.74551 (Simulation time: 0 hr 25 min 17 sec) 

Warmup complete CPU 0 instructions: 50000004 cycles: 13349335 (Simulation time: 0 hr 25 min 17 sec) 

Heartbeat CPU 0 instructions: 52000003 cycles: 14787401 heartbeat IPC: 1.39076 cumulative IPC: 1.39076 (Simulation time: 0 hr 26 min 31 sec) 

Region of Interest Statistics
cpu0_DTLB TOTAL     ACCESS:     552816  HIT:     540267  MISS:      12549
cpu0_DTLB LOAD      ACCESS:     472256  HIT:     462384  MISS:       9872
cpu0_DTLB RFO       ACCESS:      80560  HIT:      77883  MISS:       2677
cpu0_DTLB PREFETCH  ACCESS:          0  HIT:          0  MISS:          0
cpu0_DTLB WRITEBACK ACCESS:          0  HIT:          0  MISS:          0
cpu0_ITLB TOTAL     ACCESS:     114654  HIT:     114654  MISS:          0
cpu0_ITLB LOAD      ACCESS:     114654  HIT:     114654  MISS:          0
cpu0_ITLB RFO       ACCESS:          0  HIT:          0  MISS:          0
cpu0_ITLB PREFETCH  ACCESS:          0  HIT:          0  MISS:          0
cpu0_ITLB WRITEBACK ACCESS:          0  HIT:          0  MISS:          0
cpu0_L1I TOTAL     ACCESS:     106448  HIT:     106448  MISS:          0
cpu0_L1I LOAD      ACCESS:     106448  HIT:     106448  MISS:          0
cpu0_L1I RFO       ACCESS:          0  HIT:          0  MISS:          0
cpu0_L1I PREFETCH  ACCESS:          0  HIT:          0  MISS:          0
cpu0_L1I WRITEBACK ACCESS:          0  HIT:          0  MISS:          0
cpu0_STLB TOTAL     ACCESS:      12549  HIT:      12549  MISS:          0
cpu0_STLB LOAD      ACCESS:       9872  HIT:       9872  MISS:          0
cpu0_STLB RFO       ACCESS:       2677  HIT:       2677  MISS:          0
cpu0_STLB PREFETCH  ACCESS:          0  HIT:          0  MISS:          0
cpu0_STLB WRITEBACK ACCESS:          0  HIT:          0  MISS:          0
cpu0_L1D TOTAL     ACCESS:     476285  HIT:     460423  MISS:      15862
cpu0_L1D LOAD      ACCESS:     334252  HIT:     322191  MISS:      12061
cpu0_L1D RFO       ACCESS:     142033  HIT:     138232  MISS:       3801
cpu0_L1D PREFETCH  ACCESS:          0  HIT:          0  MISS:          0
cpu0_L1D WRITEBACK ACCESS:          0  HIT:          0  MISS:          0
cpu0_L2C TOTAL     ACCESS:      20618  HIT:      13851  MISS:       6767
cpu0_L2C LOAD      ACCESS:      12061  HIT:       7508  MISS:       4553
cpu0_L2C RFO       ACCESS:       3799  HIT:       1585  MISS:       2214
cpu0_L2C PREFETCH  ACCESS:          0  HIT:          0  MISS:          0
cpu0_L2C WRITEBACK ACCESS:       4758  HIT:       4758  MISS:          0
LLC TOTAL     ACCESS:      10205  HIT:       9242  MISS:        963
LLC LOAD      ACCESS:       4545  HIT:       3987  MISS:        558
LLC RFO       ACCESS:       2214  HIT:       1809  MISS:        405
LLC PREFETCH  ACCESS:          0  HIT:          0  MISS:          0
LLC WRITEBACK ACCESS:       3446  HIT:       3446  MISS:          0
Heartbeat CPU 0 instructions: 54000000 cycles: 16289745 heartbeat IPC: 1.33125 cumulative IPC: 1.36035 (Simulation time: 0 hr 27 min 38 sec) 

Region of Interest Statistics
cpu0_DTLB TOTAL     ACCESS:    1060716  HIT:    1037978  MISS:      22738
cpu0_DTLB LOAD      ACCESS:     886812  HIT:     870169  MISS:      16643
cpu0_DTLB RFO       ACCESS:     173904  HIT:     167809  MISS:       6095
cpu0_DTLB PREFETCH  ACCESS:          0  HIT:          0  MISS:          0
cpu0_DTLB WRITEBACK ACCESS:          0  HIT:          0  MISS:          0
cpu0_ITLB TOTAL     ACCESS:     239024  HIT:     239024  MISS:          0
cpu0_ITLB LOAD      ACCESS:     239024  HIT:     239024  MISS:          0
cpu0_ITLB RFO       ACCESS:          0  HIT:          0  MISS:          0
cpu0_ITLB PREFETCH  ACCESS:          0  HIT:          0  MISS:          0
cpu0_ITLB WRITEBACK ACCESS:          0  HIT:          0  MISS:          0
cpu0_L1I TOTAL     ACCESS:     216097  HIT:     216097  MISS:          0
cpu0_L1I LOAD      ACCESS:     216097  HIT:     216097  MISS:          0
cpu0_L1I RFO       ACCESS:          0  HIT:          0  MISS:          0
cpu0_L1I PREFETCH  ACCESS:          0  HIT:          0  MISS:          0
cpu0_L1I WRITEBACK ACCESS:          0  HIT:          0  MISS:          0
cpu0_STLB TOTAL     ACCESS:      22738  HIT:      22738  MISS:          0
cpu0_STLB LOAD      ACCESS:      16643  HIT:      16643  MISS:          0
cpu0_STLB RFO       ACCESS:       6095  HIT:       6095  MISS:          0
cpu0_STLB PREFETCH  ACCESS:          0  HIT:          0  MISS:          0
cpu0_STLB WRITEBACK ACCESS:          0  HIT:          0  MISS:          0
cpu0_L1D TOTAL     ACCESS:     990177  HIT:     952464  MISS:      37713
cpu0_L1D LOAD      ACCESS:     679003  HIT:     650911  MISS:      28092
cpu0_L1D RFO       ACCESS:     311174  HIT:     301553  MISS:       9621
cpu0_L1D PREFETCH  ACCESS:          0  HIT:          0  MISS:          0
cpu0_L1D WRITEBACK ACCESS:          0  HIT:          0  MISS:          0
cpu0_L2C TOTAL     ACCESS:      49488  HIT:      34890  MISS:      14598
cpu0_L2C LOAD      ACCESS:      28092  HIT:      18893  MISS:       9199
cpu0_L2C RFO       ACCESS:       9619  HIT:       4220  MISS:       5399
cpu0_L2C PREFETCH  ACCESS:          0  HIT:          0  MISS:          0
cpu0_L2C WRITEBACK ACCESS:      11777  HIT:      11777  MISS:          0
LLC TOTAL     ACCESS:      22154  HIT:      20224  MISS:       1930
LLC LOAD      ACCESS:       9190  HIT:       8258  MISS:        932
LLC RFO       ACCESS:       5398  HIT:       4400  MISS:        998
LLC PREFETCH  ACCESS:          0  HIT:          0  MISS:          0
LLC WRITEBACK ACCESS:       7566  HIT:       7566  MISS:          0
Heartbeat CPU 0 instructions: 56000001 cycles: 17783784 heartbeat IPC: 1.33865 cumulative IPC: 1.35304 (Simulation time: 0 hr 28 min 49 sec) 

Region of Interest Statistics
cpu0_DTLB TOTAL     ACCESS:    1597716  HIT:    1564534  MISS:      33182
cpu0_DTLB LOAD      ACCESS:    1344540  HIT:    1318737  MISS:      25803
cpu0_DTLB RFO       ACCESS:     253176  HIT:     245797  MISS:       7379
cpu0_DTLB PREFETCH  ACCESS:          0  HIT:          0  MISS:          0
cpu0_DTLB WRITEBACK ACCESS:          0  HIT:          0  MISS:          0
cpu0_ITLB TOTAL     ACCESS:     350677  HIT:     350677  MISS:          0
cpu0_ITLB LOAD      ACCESS:     350677  HIT:     350677  MISS:          0
cpu0_ITLB RFO       ACCESS:          0  HIT:          0  MISS:          0
cpu0_ITLB PREFETCH  ACCESS:          0  HIT:          0  MISS:          0
cpu0_ITLB WRITEBACK ACCESS:          0  HIT:          0  MISS:          0
cpu0_L1I TOTAL     ACCESS:     316834  HIT:     316834  MISS:          0
cpu0_L1I LOAD      ACCESS:     316834  HIT:     316834  MISS:          0
cpu0_L1I RFO       ACCESS:          0  HIT:          0  MISS:          0
cpu0_L1I PREFETCH  ACCESS:          0  HIT:          0  MISS:          0
cpu0_L1I WRITEBACK ACCESS:          0  HIT:          0  MISS:          0
cpu0_STLB TOTAL     ACCESS:      33182  HIT:      33182  MISS:          0
cpu0_STLB LOAD      ACCESS:      25803  HIT:      25803  MISS:          0
cpu0_STLB RFO       ACCESS:       7379  HIT:       7379  MISS:          0
cpu0_STLB PREFETCH  ACCESS:          0  HIT:          0  MISS:          0
cpu0_STLB WRITEBACK ACCESS:          0  HIT:          0  MISS:          0
cpu0_L1D TOTAL     ACCESS:    1472264  HIT:    1408929  MISS:      63335
cpu0_L1D LOAD      ACCESS:    1017444  HIT:     966229  MISS:      51215
cpu0_L1D RFO       ACCESS:     454820  HIT:     442700  MISS:      12120
cpu0_L1D PREFETCH  ACCESS:          0  HIT:          0  MISS:          0
cpu0_L1D WRITEBACK ACCESS:          0  HIT:          0  MISS:          0
cpu0_L2C TOTAL     ACCESS:      78957  HIT:      57217  MISS:      21740
cpu0_L2C LOAD      ACCESS:      51215  HIT:      36653  MISS:      14562
cpu0_L2C RFO       ACCESS:      12117  HIT:       4939  MISS:       7178
cpu0_L2C PREFETCH  ACCESS:          0  HIT:          0  MISS:          0
cpu0_L2C WRITEBACK ACCESS:      15625  HIT:      15625  MISS:          0
LLC TOTAL     ACCESS:      32880  HIT:      30080  MISS:       2800
LLC LOAD      ACCESS:      14552  HIT:      12986  MISS:       1566
LLC RFO       ACCESS:       7176  HIT:       5942  MISS:       1234
LLC PREFETCH  ACCESS:          0  HIT:          0  MISS:          0
LLC WRITEBACK ACCESS:      11152  HIT:      11152  MISS:          0
Heartbeat CPU 0 instructions: 58000003 cycles: 19289904 heartbeat IPC: 1.32792 cumulative IPC: 1.34667 (Simulation time: 0 hr 30 min 2 sec) 

Region of Interest Statistics
cpu0_DTLB TOTAL     ACCESS:    2084481  HIT:    2040031  MISS:      44450
cpu0_DTLB LOAD      ACCESS:    1738697  HIT:    1704611  MISS:      34086
cpu0_DTLB RFO       ACCESS:     345784  HIT:     335420  MISS:      10364
cpu0_DTLB PREFETCH  ACCESS:          0  HIT:          0  MISS:          0
cpu0_DTLB WRITEBACK ACCESS:          0  HIT:          0  MISS:          0
cpu0_ITLB TOTAL     ACCESS:     462435  HIT:     462435  MISS:          0
cpu0_ITLB LOAD      ACCESS:     462435  HIT:     462435  MISS:          0
cpu0_ITLB RFO       ACCESS:          0  HIT:          0  MISS:          0
cpu0_ITLB PREFETCH  ACCESS:          0  HIT:          0  MISS:          0
cpu0_ITLB WRITEBACK ACCESS:          0  HIT:          0  MISS:          0
cpu0_L1I TOTAL     ACCESS:     405901  HIT:     405901  MISS:          0
cpu0_L1I LOAD      ACCESS:     405901  HIT:     405901  MISS:          0
cpu0_L1I RFO       ACCESS:          0  HIT:          0  MISS:          0
cpu0_L1I PREFETCH  ACCESS:          0  HIT:          0  MISS:          0
cpu0_L1I WRITEBACK ACCESS:          0  HIT:          0  MISS:          0
cpu0_STLB TOTAL     ACCESS:      44450  HIT:      44450  MISS:          0
cpu0_STLB LOAD      ACCESS:      34086  HIT:      34086  MISS:          0
cpu0_STLB RFO       ACCESS:      10364  HIT:      10364  MISS:          0
cpu0_STLB PREFETCH  ACCESS:          0  HIT:          0  MISS:          0
cpu0_STLB WRITEBACK ACCESS:          0  HIT:          0  MISS:          0
cpu0_L1D TOTAL     ACCESS:    1973661  HIT:    1872506  MISS:     101155
cpu0_L1D LOAD      ACCESS:    1356002  HIT:    1271891  MISS:      84111
cpu0_L1D RFO       ACCESS:     617659  HIT:     600615  MISS:      17044
cpu0_L1D PREFETCH  ACCESS:          0  HIT:          0  MISS:          0
cpu0_L1D WRITEBACK ACCESS:          0  HIT:          0  MISS:          0
cpu0_L2C TOTAL     ACCESS:     123744  HIT:      91198  MISS:      32546
cpu0_L2C LOAD      ACCESS:      84111  HIT:      62871  MISS:      21240
cpu0_L2C RFO       ACCESS:      17041  HIT:       5735  MISS:      11306
cpu0_L2C PREFETCH  ACCESS:          0  HIT:          0  MISS:          0
cpu0_L2C WRITEBACK ACCESS:      22592  HIT:      22592  MISS:          0
LLC TOTAL     ACCESS:      48733  HIT:      43858  MISS:       4875
LLC LOAD      ACCESS:      21230  HIT:      18990  MISS:       2240
LLC RFO       ACCESS:      11304  HIT:       8669  MISS:       2635
LLC PREFETCH  ACCESS:          0  HIT:          0  MISS:          0
LLC WRITEBACK ACCESS:      16199  HIT:      16199  MISS:          0
Heartbeat CPU 0 instructions: 60000001 cycles: 20564084 heartbeat IPC: 1.56964 cumulative IPC: 1.38605 (Simulation time: 0 hr 31 min 10 sec) 

Region of Interest Statistics
cpu0_DTLB TOTAL     ACCESS:    2601838  HIT:    2551682  MISS:      50156
cpu0_DTLB LOAD      ACCESS:    2192298  HIT:    2152534  MISS:      39764
cpu0_DTLB RFO       ACCESS:     409540  HIT:     399148  MISS:      10392
cpu0_DTLB PREFETCH  ACCESS:          0  HIT:          0  MISS:          0
cpu0_DTLB WRITEBACK ACCESS:          0  HIT:          0  MISS:          0
cpu0_ITLB TOTAL     ACCESS:     541623  HIT:     541623  MISS:          0
cpu0_ITLB LOAD      ACCESS:     541623  HIT:     541623  MISS:          0
cpu0_ITLB RFO       ACCESS:          0  HIT:          0  MISS:          0
cpu0_ITLB PREFETCH  ACCESS:          0  HIT:          0  MISS:          0
cpu0_ITLB WRITEBACK ACCESS:          0  HIT:          0  MISS:          0
cpu0_L1I TOTAL     ACCESS:     528107  HIT:     528107  MISS:          0
cpu0_L1I LOAD      ACCESS:     528107  HIT:     528107  MISS:          0
cpu0_L1I RFO       ACCESS:          0  HIT:          0  MISS:          0
cpu0_L1I PREFETCH  ACCESS:          0  HIT:          0  MISS:          0
cpu0_L1I WRITEBACK ACCESS:          0  HIT:          0  MISS:          0
cpu0_STLB TOTAL     ACCESS:      50156  HIT:      50156  MISS:          0
cpu0_STLB LOAD      ACCESS:      39764  HIT:      39764  MISS:          0
cpu0_STLB RFO       ACCESS:      10392  HIT:      10392  MISS:          0
cpu0_STLB PREFETCH  ACCESS:          0  HIT:          0  MISS:          0
cpu0_STLB WRITEBACK ACCESS:          0  HIT:          0  MISS:          0
cpu0_L1D TOTAL     ACCESS:    2411745  HIT:    2296509  MISS:     115236
cpu0_L1D LOAD      ACCESS:    1672601  HIT:    1574438  MISS:      98163
cpu0_L1D RFO       ACCESS:     739144  HIT:     722071  MISS:      17073
cpu0_L1D PREFETCH  ACCESS:          0  HIT:          0  MISS:          0
cpu0_L1D WRITEBACK ACCESS:          0  HIT:          0  MISS:          0
cpu0_L2C TOTAL     ACCESS:     138537  HIT:     103840  MISS:      34697
cpu0_L2C LOAD      ACCESS:      98163  HIT:      74772  MISS:      23391
cpu0_L2C RFO       ACCESS:      17070  HIT:       5764  MISS:      11306
cpu0_L2C PREFETCH  ACCESS:          0  HIT:          0  MISS:          0
cpu0_L2C WRITEBACK ACCESS:      23304  HIT:      23304  MISS:          0
LLC TOTAL     ACCESS:      52058  HIT:      46891  MISS:       5167
LLC LOAD      ACCESS:      23381  HIT:      20849  MISS:       2532
LLC RFO       ACCESS:      11304  HIT:       8669  MISS:       2635
LLC PREFETCH  ACCESS:          0  HIT:          0  MISS:          0
LLC WRITEBACK ACCESS:      17373  HIT:      17373  MISS:          0
Heartbeat CPU 0 instructions: 62000002 cycles: 22136904 heartbeat IPC: 1.2716 cumulative IPC: 1.36557 (Simulation time: 0 hr 32 min 12 sec) 

Region of Interest Statistics
cpu0_DTLB TOTAL     ACCESS:    3110443  HIT:    3051038  MISS:      59405
cpu0_DTLB LOAD      ACCESS:    2615972  HIT:    2568187  MISS:      47785
cpu0_DTLB RFO       ACCESS:     494471  HIT:     482851  MISS:      11620
cpu0_DTLB PREFETCH  ACCESS:          0  HIT:          0  MISS:          0
cpu0_DTLB WRITEBACK ACCESS:          0  HIT:          0  MISS:          0
cpu0_ITLB TOTAL     ACCESS:     654443  HIT:     654443  MISS:          0
cpu0_ITLB LOAD      ACCESS:     654443  HIT:     654443  MISS:          0
cpu0_ITLB RFO       ACCESS:          0  HIT:          0  MISS:          0
cpu0_ITLB PREFETCH  ACCESS:          0  HIT:          0  MISS:          0
cpu0_ITLB WRITEBACK ACCESS:          0  HIT:          0  MISS:          0
cpu0_L1I TOTAL     ACCESS:     660351  HIT:     660351  MISS:          0
cpu0_L1I LOAD      ACCESS:     660351  HIT:     660351  MISS:          0
cpu0_L1I RFO       ACCESS:          0  HIT:          0  MISS:          0
cpu0_L1I PREFETCH  ACCESS:          0  HIT:          0  MISS:          0
cpu0_L1I WRITEBACK ACCESS:          0  HIT:          0  MISS:          0
cpu0_STLB TOTAL     ACCESS:      59405  HIT:      59405  MISS:          0
cpu0_STLB LOAD      ACCESS:      47785  HIT:      47785  MISS:          0
cpu0_STLB RFO       ACCESS:      11620  HIT:      11620  MISS:          0
cpu0_STLB PREFETCH  ACCESS:          0  HIT:          0  MISS:          0
cpu0_STLB WRITEBACK ACCESS:          0  HIT:          0  MISS:          0
cpu0_L1D TOTAL     ACCESS:    2909110  HIT:    2774366  MISS:     134744
cpu0_L1D LOAD      ACCESS:    2012180  HIT:    1897314  MISS:     114866
cpu0_L1D RFO       ACCESS:     896930  HIT:     877052  MISS:      19878
cpu0_L1D PREFETCH  ACCESS:          0  HIT:          0  MISS:          0
cpu0_L1D WRITEBACK ACCESS:          0  HIT:          0  MISS:          0
cpu0_L2C TOTAL     ACCESS:     161659  HIT:     120474  MISS:      41185
cpu0_L2C LOAD      ACCESS:     114866  HIT:      87467  MISS:      27399
cpu0_L2C RFO       ACCESS:      19875  HIT:       6089  MISS:      13786
cpu0_L2C PREFETCH  ACCESS:          0  HIT:          0  MISS:          0
cpu0_L2C WRITEBACK ACCESS:      26918  HIT:      26918  MISS:          0
LLC TOTAL     ACCESS:      60575  HIT:      54342  MISS:       6233
LLC LOAD      ACCESS:      27389  HIT:      24522  MISS:       2867
LLC RFO       ACCESS:      13784  HIT:      10418  MISS:       3366
LLC PREFETCH  ACCESS:          0  HIT:          0  MISS:          0
LLC WRITEBACK ACCESS:      19402  HIT:      19402  MISS:          0
Heartbeat CPU 0 instructions: 64000004 cycles: 23399716 heartbeat IPC: 1.58377 cumulative IPC: 1.39298 (Simulation time: 0 hr 33 min 17 sec) 

Region of Interest Statistics
cpu0_DTLB TOTAL     ACCESS:    3567936  HIT:    3502533  MISS:      65403
cpu0_DTLB LOAD      ACCESS:    2981894  HIT:    2929741  MISS:      52153
cpu0_DTLB RFO       ACCESS:     586042  HIT:     572792  MISS:      13250
cpu0_DTLB PREFETCH  ACCESS:          0  HIT:          0  MISS:          0
cpu0_DTLB WRITEBACK ACCESS:          0  HIT:          0  MISS:          0
cpu0_ITLB TOTAL     ACCESS:     770808  HIT:     770808  MISS:          0
cpu0_ITLB LOAD      ACCESS:     770808  HIT:     770808  MISS:          0
cpu0_ITLB RFO       ACCESS:          0  HIT:          0  MISS:          0
cpu0_ITLB PREFETCH  ACCESS:          0  HIT:          0  MISS:          0
cpu0_ITLB WRITEBACK ACCESS:          0  HIT:          0  MISS:          0
cpu0_L1I TOTAL     ACCESS:     752353  HIT:     752353  MISS:          0
cpu0_L1I LOAD      ACCESS:     752353  HIT:     752353  MISS:          0
cpu0_L1I RFO       ACCESS:          0  HIT:          0  MISS:          0
cpu0_L1I PREFETCH  ACCESS:          0  HIT:          0  MISS:          0
cpu0_L1I WRITEBACK ACCESS:          0  HIT:          0  MISS:          0
cpu0_STLB TOTAL     ACCESS:      65403  HIT:      65403  MISS:          0
cpu0_STLB LOAD      ACCESS:      52153  HIT:      52153  MISS:          0
cpu0_STLB RFO       ACCESS:      13250  HIT:      13250  MISS:          0
cpu0_STLB PREFETCH  ACCESS:          0  HIT:          0  MISS:          0
cpu0_STLB WRITEBACK ACCESS:          0  HIT:          0  MISS:          0
cpu0_L1D TOTAL     ACCESS:    3415859  HIT:    3240527  MISS:     175332
cpu0_L1D LOAD      ACCESS:    2350288  HIT:    2200373  MISS:     149915
cpu0_L1D RFO       ACCESS:    1065571  HIT:    1040154  MISS:      25417
cpu0_L1D PREFETCH  ACCESS:          0  HIT:          0  MISS:          0
cpu0_L1D WRITEBACK ACCESS:          0  HIT:          0  MISS:          0
cpu0_L2C TOTAL     ACCESS:     209768  HIT:     156786  MISS:      52982
cpu0_L2C LOAD      ACCESS:     149912  HIT:     115349  MISS:      34563
cpu0_L2C RFO       ACCESS:      25414  HIT:       6995  MISS:      18419
cpu0_L2C PREFETCH  ACCESS:          0  HIT:          0  MISS:          0
cpu0_L2C WRITEBACK ACCESS:      34442  HIT:      34442  MISS:          0
LLC TOTAL     ACCESS:      77901  HIT:      70540  MISS:       7361
LLC LOAD      ACCESS:      34553  HIT:      31279  MISS:       3274
LLC RFO       ACCESS:      18417  HIT:      14330  MISS:       4087
LLC PREFETCH  ACCESS:          0  HIT:          0  MISS:          0
LLC WRITEBACK ACCESS:      24931  HIT:      24931  MISS:          0
Heartbeat CPU 0 instructions: 66000001 cycles: 24671822 heartbeat IPC: 1.57219 cumulative IPC: 1.41312 (Simulation time: 0 hr 34 min 20 sec) 

Region of Interest Statistics
cpu0_DTLB TOTAL     ACCESS:    4013831  HIT:    3944848  MISS:      68983
cpu0_DTLB LOAD      ACCESS:    3359835  HIT:    3304120  MISS:      55715
cpu0_DTLB RFO       ACCESS:     653996  HIT:     640728  MISS:      13268
cpu0_DTLB PREFETCH  ACCESS:          0  HIT:          0  MISS:          0
cpu0_DTLB WRITEBACK ACCESS:          0  HIT:          0  MISS:          0
cpu0_ITLB TOTAL     ACCESS:     848668  HIT:     848668  MISS:          0
cpu0_ITLB LOAD      ACCESS:     848668  HIT:     848668  MISS:          0
cpu0_ITLB RFO       ACCESS:          0  HIT:          0  MISS:          0
cpu0_ITLB PREFETCH  ACCESS:          0  HIT:          0  MISS:          0
cpu0_ITLB WRITEBACK ACCESS:          0  HIT:          0  MISS:          0
cpu0_L1I TOTAL     ACCESS:     887412  HIT:     887412  MISS:          0
cpu0_L1I LOAD      ACCESS:     887412  HIT:     887412  MISS:          0
cpu0_L1I RFO       ACCESS:          0  HIT:          0  MISS:          0
cpu0_L1I PREFETCH  ACCESS:          0  HIT:          0  MISS:          0
cpu0_L1I WRITEBACK ACCESS:          0  HIT:          0  MISS:          0
cpu0_STLB TOTAL     ACCESS:      68983  HIT:      68983  MISS:          0
cpu0_STLB LOAD      ACCESS:      55715  HIT:      55715  MISS:          0
cpu0_STLB RFO       ACCESS:      13268  HIT:      13268  MISS:          0
cpu0_STLB PREFETCH  ACCESS:          0  HIT:          0  MISS:          0
cpu0_STLB WRITEBACK ACCESS:          0  HIT:          0  MISS:          0
cpu0_L1D TOTAL     ACCESS:    3860050  HIT:    3660898  MISS:     199152
cpu0_L1D LOAD      ACCESS:    2663584  HIT:    2489875  MISS:     173709
cpu0_L1D RFO       ACCESS:    1196466  HIT:    1171023  MISS:      25443
cpu0_L1D PREFETCH  ACCESS:          0  HIT:          0  MISS:          0
cpu0_L1D WRITEBACK ACCESS:          0  HIT:          0  MISS:          0
cpu0_L2C TOTAL     ACCESS:     234720  HIT:     179827  MISS:      54893
cpu0_L2C LOAD      ACCESS:     173706  HIT:     137232  MISS:      36474
cpu0_L2C RFO       ACCESS:      25440  HIT:       7021  MISS:      18419
cpu0_L2C PREFETCH  ACCESS:          0  HIT:          0  MISS:          0
cpu0_L2C WRITEBACK ACCESS:      35574  HIT:      35574  MISS:          0
LLC TOTAL     ACCESS:      81198  HIT:      73770  MISS:       7428
LLC LOAD      ACCESS:      36464  HIT:      33123  MISS:       3341
LLC RFO       ACCESS:      18417  HIT:      14330  MISS:       4087
LLC PREFETCH  ACCESS:          0  HIT:          0  MISS:          0
LLC WRITEBACK ACCESS:      26317  HIT:      26317  MISS:          0
Heartbeat CPU 0 instructions: 68000000 cycles: 26152292 heartbeat IPC: 1.35092 cumulative IPC: 1.40592 (Simulation time: 0 hr 35 min 23 sec) 

Region of Interest Statistics
cpu0_DTLB TOTAL     ACCESS:    4475817  HIT:    4398283  MISS:      77534
cpu0_DTLB LOAD      ACCESS:    3735776  HIT:    3673739  MISS:      62037
cpu0_DTLB RFO       ACCESS:     740041  HIT:     724544  MISS:      15497
cpu0_DTLB PREFETCH  ACCESS:          0  HIT:          0  MISS:          0
cpu0_DTLB WRITEBACK ACCESS:          0  HIT:          0  MISS:          0
cpu0_ITLB TOTAL     ACCESS:     960837  HIT:     960837  MISS:          0
cpu0_ITLB LOAD      ACCESS:     960837  HIT:     960837  MISS:          0
cpu0_ITLB RFO       ACCESS:          0  HIT:          0  MISS:          0
cpu0_ITLB PREFETCH  ACCESS:          0  HIT:          0  MISS:          0
cpu0_ITLB WRITEBACK ACCESS:          0  HIT:          0  MISS:          0
cpu0_L1I TOTAL     ACCESS:    1014354  HIT:    1014354  MISS:          0
cpu0_L1I LOAD      ACCESS:    1014354  HIT:    1014354  MISS:          0
cpu0_L1I RFO       ACCESS:          0  HIT:          0  MISS:          0
cpu0_L1I PREFETCH  ACCESS:          0  HIT:          0  MISS:          0
cpu0_L1I WRITEBACK ACCESS:          0  HIT:          0  MISS:          0
cpu0_STLB TOTAL     ACCESS:      77534  HIT:      77534  MISS:          0
cpu0_STLB LOAD      ACCESS:      62037  HIT:      62037  MISS:          0
cpu0_STLB RFO       ACCESS:      15497  HIT:      15497  MISS:          0
cpu0_STLB PREFETCH  ACCESS:          0  HIT:          0  MISS:          0
cpu0_STLB WRITEBACK ACCESS:          0  HIT:          0  MISS:          0
cpu0_L1D TOTAL     ACCESS:    4350960  HIT:    4129579  MISS:     221381
cpu0_L1D LOAD      ACCESS:    2996751  HIT:    2806130  MISS:     190621
cpu0_L1D RFO       ACCESS:    1354209  HIT:    1323449  MISS:      30760
cpu0_L1D PREFETCH  ACCESS:          0  HIT:          0  MISS:          0
cpu0_L1D WRITEBACK ACCESS:          0  HIT:          0  MISS:          0
cpu0_L2C TOTAL     ACCESS:     263188  HIT:     198267  MISS:      64921
cpu0_L2C LOAD      ACCESS:     190618  HIT:     148121  MISS:      42497
cpu0_L2C RFO       ACCESS:      30757  HIT:       8333  MISS:      22424
cpu0_L2C PREFETCH  ACCESS:          0  HIT:          0  MISS:          0
cpu0_L2C WRITEBACK ACCESS:      41813  HIT:      41813  MISS:          0
LLC TOTAL     ACCESS:      94686  HIT:      86525  MISS:       8161
LLC LOAD      ACCESS:      42487  HIT:      38851  MISS:       3636
LLC RFO       ACCESS:      22422  HIT:      17897  MISS:       4525
LLC PREFETCH  ACCESS:          0  HIT:          0  MISS:          0
LLC WRITEBACK ACCESS:      29777  HIT:      29777  MISS:          0
Heartbeat CPU 0 instructions: 70000003 cycles: 27838159 heartbeat IPC: 1.18633 cumulative IPC: 1.38037 (Simulation time: 0 hr 36 min 25 sec) 

Region of Interest Statistics
cpu0_DTLB TOTAL     ACCESS:    4977546  HIT:    4886384  MISS:      91162
cpu0_DTLB LOAD      ACCESS:    4133356  HIT:    4061269  MISS:      72087
cpu0_DTLB RFO       ACCESS:     844190  HIT:     825115  MISS:      19075
cpu0_DTLB PREFETCH  ACCESS:          0  HIT:          0  MISS:          0
cpu0_DTLB WRITEBACK ACCESS:          0  HIT:          0  MISS:          0
cpu0_ITLB TOTAL     ACCESS:    1104898  HIT:    1104898  MISS:          0
cpu0_ITLB LOAD      ACCESS:    1104898  HIT:    1104898  MISS:          0
cpu0_ITLB RFO       ACCESS:          0  HIT:          0  MISS:          0
cpu0_ITLB PREFETCH  ACCESS:          0  HIT:          0  MISS:          0
cpu0_ITLB WRITEBACK ACCESS:          0  HIT:          0  MISS:          0
cpu0_L1I TOTAL     ACCESS:    1134855  HIT:    1134855  MISS:          0
cpu0_L1I LOAD      ACCESS:    1134855  HIT:    1134855  MISS:          0
cpu0_L1I RFO       ACCESS:          0  HIT:          0  MISS:          0
cpu0_L1I PREFETCH  ACCESS:          0  HIT:          0  MISS:          0
cpu0_L1I WRITEBACK ACCESS:          0  HIT:          0  MISS:          0
cpu0_STLB TOTAL     ACCESS:      91162  HIT:      91162  MISS:          0
cpu0_STLB LOAD      ACCESS:      72087  HIT:      72087  MISS:          0
cpu0_STLB RFO       ACCESS:      19075  HIT:      19075  MISS:          0
cpu0_STLB PREFETCH  ACCESS:          0  HIT:          0  MISS:          0
cpu0_STLB WRITEBACK ACCESS:          0  HIT:          0  MISS:          0
cpu0_L1D TOTAL     ACCESS:    4902954  HIT:    4660784  MISS:     242170
cpu0_L1D LOAD      ACCESS:    3359578  HIT:    3154050  MISS:     205528
cpu0_L1D RFO       ACCESS:    1543376  HIT:    1506734  MISS:      36642
cpu0_L1D PREFETCH  ACCESS:          0  HIT:          0  MISS:          0
cpu0_L1D WRITEBACK ACCESS:          0  HIT:          0  MISS:          0
cpu0_L2C TOTAL     ACCESS:     290800  HIT:     215641  MISS:      75159
cpu0_L2C LOAD      ACCESS:     205525  HIT:     156566  MISS:      48959
cpu0_L2C RFO       ACCESS:      36639  HIT:      10439  MISS:      26200
cpu0_L2C PREFETCH  ACCESS:          0  HIT:          0  MISS:          0
cpu0_L2C WRITEBACK ACCESS:      48636  HIT:      48636  MISS:          0
LLC TOTAL     ACCESS:     110226  HIT:     101408  MISS:       8818
LLC LOAD      ACCESS:      48945  HIT:      44948  MISS:       3997
LLC RFO       ACCESS:      26197  HIT:      21376  MISS:       4821
LLC PREFETCH  ACCESS:          0  HIT:          0  MISS:          0
LLC WRITEBACK ACCESS:      35084  HIT:      35084  MISS:          0
Heartbeat CPU 0 instructions: 72000002 cycles: 29339878 heartbeat IPC: 1.33181 cumulative IPC: 1.37581 (Simulation time: 0 hr 37 min 28 sec) 

Region of Interest Statistics
cpu0_DTLB TOTAL     ACCESS:    5471799  HIT:    5368868  MISS:     102931
cpu0_DTLB LOAD      ACCESS:    4535708  HIT:    4455258  MISS:      80450
cpu0_DTLB RFO       ACCESS:     936091  HIT:     913610  MISS:      22481
cpu0_DTLB PREFETCH  ACCESS:          0  HIT:          0  MISS:          0
cpu0_DTLB WRITEBACK ACCESS:          0  HIT:          0  MISS:          0
cpu0_ITLB TOTAL     ACCESS:    1234825  HIT:    1234825  MISS:          0
cpu0_ITLB LOAD      ACCESS:    1234825  HIT:    1234825  MISS:          0
cpu0_ITLB RFO       ACCESS:          0  HIT:          0  MISS:          0
cpu0_ITLB PREFETCH  ACCESS:          0  HIT:          0  MISS:          0
cpu0_ITLB WRITEBACK ACCESS:          0  HIT:          0  MISS:          0
cpu0_L1I TOTAL     ACCESS:    1249800  HIT:    1249800  MISS:          0
cpu0_L1I LOAD      ACCESS:    1249800  HIT:    1249800  MISS:          0
cpu0_L1I RFO       ACCESS:          0  HIT:          0  MISS:          0
cpu0_L1I PREFETCH  ACCESS:          0  HIT:          0  MISS:          0
cpu0_L1I WRITEBACK ACCESS:          0  HIT:          0  MISS:          0
cpu0_STLB TOTAL     ACCESS:     102931  HIT:     102931  MISS:          0
cpu0_STLB LOAD      ACCESS:      80450  HIT:      80450  MISS:          0
cpu0_STLB RFO       ACCESS:      22481  HIT:      22481  MISS:          0
cpu0_STLB PREFETCH  ACCESS:          0  HIT:          0  MISS:          0
cpu0_STLB WRITEBACK ACCESS:          0  HIT:          0  MISS:          0
cpu0_L1D TOTAL     ACCESS:    5414034  HIT:    5153052  MISS:     260982
cpu0_L1D LOAD      ACCESS:    3705058  HIT:    3486742  MISS:     218316
cpu0_L1D RFO       ACCESS:    1708976  HIT:    1666310  MISS:      42666
cpu0_L1D PREFETCH  ACCESS:          0  HIT:          0  MISS:          0
cpu0_L1D WRITEBACK ACCESS:          0  HIT:          0  MISS:          0
cpu0_L2C TOTAL     ACCESS:     316436  HIT:     231227  MISS:      85209
cpu0_L2C LOAD      ACCESS:     218313  HIT:     163312  MISS:      55001
cpu0_L2C RFO       ACCESS:      42663  HIT:      12455  MISS:      30208
cpu0_L2C PREFETCH  ACCESS:          0  HIT:          0  MISS:          0
cpu0_L2C WRITEBACK ACCESS:      55460  HIT:      55460  MISS:          0
LLC TOTAL     ACCESS:     125405  HIT:     115703  MISS:       9702
LLC LOAD      ACCESS:      54984  HIT:      50550  MISS:       4434
LLC RFO       ACCESS:      30205  HIT:      24937  MISS:       5268
LLC PREFETCH  ACCESS:          0  HIT:          0  MISS:          0
LLC WRITEBACK ACCESS:      40216  HIT:      40216  MISS:          0
Heartbeat CPU 0 instructions: 74000002 cycles: 31074716 heartbeat IPC: 1.15285 cumulative IPC: 1.35399 (Simulation time: 0 hr 38 min 34 sec) 

Region of Interest Statistics
cpu0_DTLB TOTAL     ACCESS:    5987082  HIT:    5870099  MISS:     116983
cpu0_DTLB LOAD      ACCESS:    4957114  HIT:    4864968  MISS:      92146
cpu0_DTLB RFO       ACCESS:    1029968  HIT:    1005131  MISS:      24837
cpu0_DTLB PREFETCH  ACCESS:          0  HIT:          0  MISS:          0
cpu0_DTLB WRITEBACK ACCESS:          0  HIT:          0  MISS:          0
cpu0_ITLB TOTAL     ACCESS:    1375521  HIT:    1375521  MISS:          0
cpu0_ITLB LOAD      ACCESS:    1375521  HIT:    1375521  MISS:          0
cpu0_ITLB RFO       ACCESS:          0  HIT:          0  MISS:          0
cpu0_ITLB PREFETCH  ACCESS:          0  HIT:          0  MISS:          0
cpu0_ITLB WRITEBACK ACCESS:          0  HIT:          0  MISS:          0
cpu0_L1I TOTAL     ACCESS:    1368722  HIT:    1368722  MISS:          0
cpu0_L1I LOAD      ACCESS:    1368722  HIT:    1368722  MISS:          0
cpu0_L1I RFO       ACCESS:          0  HIT:          0  MISS:          0
cpu0_L1I PREFETCH  ACCESS:          0  HIT:          0  MISS:          0
cpu0_L1I WRITEBACK ACCESS:          0  HIT:          0  MISS:          0
cpu0_STLB TOTAL     ACCESS:     116983  HIT:     116983  MISS:          0
cpu0_STLB LOAD      ACCESS:      92146  HIT:      92146  MISS:          0
cpu0_STLB RFO       ACCESS:      24837  HIT:      24837  MISS:          0
cpu0_STLB PREFETCH  ACCESS:          0  HIT:          0  MISS:          0
cpu0_STLB WRITEBACK ACCESS:          0  HIT:          0  MISS:          0
cpu0_L1D TOTAL     ACCESS:    5942003  HIT:    5664433  MISS:     277570
cpu0_L1D LOAD      ACCESS:    4058502  HIT:    3826999  MISS:     231503
cpu0_L1D RFO       ACCESS:    1883501  HIT:    1837434  MISS:      46067
cpu0_L1D PREFETCH  ACCESS:          0  HIT:          0  MISS:          0
cpu0_L1D WRITEBACK ACCESS:          0  HIT:          0  MISS:          0
cpu0_L2C TOTAL     ACCESS:     337127  HIT:     243450  MISS:      93677
cpu0_L2C LOAD      ACCESS:     231500  HIT:     170548  MISS:      60952
cpu0_L2C RFO       ACCESS:      46062  HIT:      13338  MISS:      32724
cpu0_L2C PREFETCH  ACCESS:          0  HIT:          0  MISS:          0
cpu0_L2C WRITEBACK ACCESS:      59565  HIT:      59564  MISS:          1
LLC TOTAL     ACCESS:     137865  HIT:     126797  MISS:      11068
LLC LOAD      ACCESS:      60935  HIT:      55684  MISS:       5251
LLC RFO       ACCESS:      32721  HIT:      26904  MISS:       5817
LLC PREFETCH  ACCESS:          0  HIT:          0  MISS:          0
LLC WRITEBACK ACCESS:      44209  HIT:      44209  MISS:          0
Heartbeat CPU 0 instructions: 76000003 cycles: 32740824 heartbeat IPC: 1.2004 cumulative IPC: 1.34079 (Simulation time: 0 hr 39 min 35 sec) 

Region of Interest Statistics
cpu0_DTLB TOTAL     ACCESS:    6487549  HIT:    6359070  MISS:     128479
cpu0_DTLB LOAD      ACCESS:    5364351  HIT:    5263019  MISS:     101332
cpu0_DTLB RFO       ACCESS:    1123198  HIT:    1096051  MISS:      27147
cpu0_DTLB PREFETCH  ACCESS:          0  HIT:          0  MISS:          0
cpu0_DTLB WRITEBACK ACCESS:          0  HIT:          0  MISS:          0
cpu0_ITLB TOTAL     ACCESS:    1517021  HIT:    1517021  MISS:          0
cpu0_ITLB LOAD      ACCESS:    1517021  HIT:    1517021  MISS:          0
cpu0_ITLB RFO       ACCESS:          0  HIT:          0  MISS:          0
cpu0_ITLB PREFETCH  ACCESS:          0  HIT:          0  MISS:          0
cpu0_ITLB WRITEBACK ACCESS:          0  HIT:          0  MISS:          0
cpu0_L1I TOTAL     ACCESS:    1486570  HIT:    1486570  MISS:          0
cpu0_L1I LOAD      ACCESS:    1486570  HIT:    1486570  MISS:          0
cpu0_L1I RFO       ACCESS:          0  HIT:          0  MISS:          0
cpu0_L1I PREFETCH  ACCESS:          0  HIT:          0  MISS:          0
cpu0_L1I WRITEBACK ACCESS:          0  HIT:          0  MISS:          0
cpu0_STLB TOTAL     ACCESS:     128479  HIT:     128479  MISS:          0
cpu0_STLB LOAD      ACCESS:     101332  HIT:     101332  MISS:          0
cpu0_STLB RFO       ACCESS:      27147  HIT:      27147  MISS:          0
cpu0_STLB PREFETCH  ACCESS:          0  HIT:          0  MISS:          0
cpu0_STLB WRITEBACK ACCESS:          0  HIT:          0  MISS:          0
cpu0_L1D TOTAL     ACCESS:    6462760  HIT:    6170640  MISS:     292120
cpu0_L1D LOAD      ACCESS:    4406208  HIT:    4163476  MISS:     242732
cpu0_L1D RFO       ACCESS:    2056552  HIT:    2007164  MISS:      49388
cpu0_L1D PREFETCH  ACCESS:          0  HIT:          0  MISS:          0
cpu0_L1D WRITEBACK ACCESS:          0  HIT:          0  MISS:          0
cpu0_L2C TOTAL     ACCESS:     355693  HIT:     254471  MISS:     101222
cpu0_L2C LOAD      ACCESS:     242729  HIT:     176637  MISS:      66092
cpu0_L2C RFO       ACCESS:      49383  HIT:      14254  MISS:      35129
cpu0_L2C PREFETCH  ACCESS:          0  HIT:          0  MISS:          0
cpu0_L2C WRITEBACK ACCESS:      63581  HIT:      63580  MISS:          1
LLC TOTAL     ACCESS:     149229  HIT:     136975  MISS:      12254
LLC LOAD      ACCESS:      66075  HIT:      60300  MISS:       5775
LLC RFO       ACCESS:      35126  HIT:      28647  MISS:       6479
LLC PREFETCH  ACCESS:          0  HIT:          0  MISS:          0
LLC WRITEBACK ACCESS:      48028  HIT:      48028  MISS:          0
Heartbeat CPU 0 instructions: 78000001 cycles: 34311636 heartbeat IPC: 1.27323 cumulative IPC: 1.33573 (Simulation time: 0 hr 40 min 37 sec) 

Region of Interest Statistics
cpu0_DTLB TOTAL     ACCESS:    6976845  HIT:    6834431  MISS:     142414
cpu0_DTLB LOAD      ACCESS:    5751242  HIT:    5639911  MISS:     111331
cpu0_DTLB RFO       ACCESS:    1225603  HIT:    1194520  MISS:      31083
cpu0_DTLB PREFETCH  ACCESS:          0  HIT:          0  MISS:          0
cpu0_DTLB WRITEBACK ACCESS:          0  HIT:          0  MISS:          0
cpu0_ITLB TOTAL     ACCESS:    1660104  HIT:    1660104  MISS:          0
cpu0_ITLB LOAD      ACCESS:    1660104  HIT:    1660104  MISS:          0
cpu0_ITLB RFO       ACCESS:          0  HIT:          0  MISS:          0
cpu0_ITLB PREFETCH  ACCESS:          0  HIT:          0  MISS:          0
cpu0_ITLB WRITEBACK ACCESS:          0  HIT:          0  MISS:          0
cpu0_L1I TOTAL     ACCESS:    1592246  HIT:    1592246  MISS:          0
cpu0_L1I LOAD      ACCESS:    1592246  HIT:    1592246  MISS:          0
cpu0_L1I RFO       ACCESS:          0  HIT:          0  MISS:          0
cpu0_L1I PREFETCH  ACCESS:          0  HIT:          0  MISS:          0
cpu0_L1I WRITEBACK ACCESS:          0  HIT:          0  MISS:          0
cpu0_STLB TOTAL     ACCESS:     142414  HIT:     142414  MISS:          0
cpu0_STLB LOAD      ACCESS:     111331  HIT:     111331  MISS:          0
cpu0_STLB RFO       ACCESS:      31083  HIT:      31083  MISS:          0
cpu0_STLB PREFETCH  ACCESS:          0  HIT:          0  MISS:          0
cpu0_STLB WRITEBACK ACCESS:          0  HIT:          0  MISS:          0
cpu0_L1D TOTAL     ACCESS:    6997610  HIT:    6677517  MISS:     320093
cpu0_L1D LOAD      ACCESS:    4759367  HIT:    4495844  MISS:     263523
cpu0_L1D RFO       ACCESS:    2238243  HIT:    2181673  MISS:      56570
cpu0_L1D PREFETCH  ACCESS:          0  HIT:          0  MISS:          0
cpu0_L1D WRITEBACK ACCESS:          0  HIT:          0  MISS:          0
cpu0_L2C TOTAL     ACCESS:     392101  HIT:     278109  MISS:     113992
cpu0_L2C LOAD      ACCESS:     263520  HIT:     189612  MISS:      73908
cpu0_L2C RFO       ACCESS:      56563  HIT:      16480  MISS:      40083
cpu0_L2C PREFETCH  ACCESS:          0  HIT:          0  MISS:          0
cpu0_L2C WRITEBACK ACCESS:      72018  HIT:      72017  MISS:          1
LLC TOTAL     ACCESS:     168712  HIT:     155271  MISS:      13441
LLC LOAD      ACCESS:      73890  HIT:      67608  MISS:       6282
LLC RFO       ACCESS:      40080  HIT:      32921  MISS:       7159
LLC PREFETCH  ACCESS:          0  HIT:          0  MISS:          0
LLC WRITEBACK ACCESS:      54742  HIT:      54742  MISS:          0
Heartbeat CPU 0 instructions: 80000001 cycles: 35782761 heartbeat IPC: 1.3595 cumulative IPC: 1.33729 (Simulation time: 0 hr 41 min 37 sec) 

Region of Interest Statistics
cpu0_DTLB TOTAL     ACCESS:    7458056  HIT:    7304145  MISS:     153911
cpu0_DTLB LOAD      ACCESS:    6141713  HIT:    6021336  MISS:     120377
cpu0_DTLB RFO       ACCESS:    1316343  HIT:    1282809  MISS:      33534
cpu0_DTLB PREFETCH  ACCESS:          0  HIT:          0  MISS:          0
cpu0_DTLB WRITEBACK ACCESS:          0  HIT:          0  MISS:          0
cpu0_ITLB TOTAL     ACCESS:    1798110  HIT:    1798110  MISS:          0
cpu0_ITLB LOAD      ACCESS:    1798110  HIT:    1798110  MISS:          0
cpu0_ITLB RFO       ACCESS:          0  HIT:          0  MISS:          0
cpu0_ITLB PREFETCH  ACCESS:          0  HIT:          0  MISS:          0
cpu0_ITLB WRITEBACK ACCESS:          0  HIT:          0  MISS:          0
cpu0_L1I TOTAL     ACCESS:    1693366  HIT:    1693366  MISS:          0
cpu0_L1I LOAD      ACCESS:    1693366  HIT:    1693366  MISS:          0
cpu0_L1I RFO       ACCESS:          0  HIT:          0  MISS:          0
cpu0_L1I PREFETCH  ACCESS:          0  HIT:          0  MISS:          0
cpu0_L1I WRITEBACK ACCESS:          0  HIT:          0  MISS:          0
cpu0_STLB TOTAL     ACCESS:     153911  HIT:     153911  MISS:          0
cpu0_STLB LOAD      ACCESS:     120377  HIT:     120377  MISS:          0
cpu0_STLB RFO       ACCESS:      33534  HIT:      33534  MISS:          0
cpu0_STLB PREFETCH  ACCESS:          0  HIT:          0  MISS:          0
cpu0_STLB WRITEBACK ACCESS:          0  HIT:          0  MISS:          0
cpu0_L1D TOTAL     ACCESS:    7525818  HIT:    7172164  MISS:     353654
cpu0_L1D LOAD      ACCESS:    5115130  HIT:    4821717  MISS:     293413
cpu0_L1D RFO       ACCESS:    2410688  HIT:    2350447  MISS:      60241
cpu0_L1D PREFETCH  ACCESS:          0  HIT:          0  MISS:          0
cpu0_L1D WRITEBACK ACCESS:          0  HIT:          0  MISS:          0
cpu0_L2C TOTAL     ACCESS:     430909  HIT:     309776  MISS:     121133
cpu0_L2C LOAD      ACCESS:     293410  HIT:     215245  MISS:      78165
cpu0_L2C RFO       ACCESS:      60234  HIT:      17267  MISS:      42967
cpu0_L2C PREFETCH  ACCESS:          0  HIT:          0  MISS:          0
cpu0_L2C WRITEBACK ACCESS:      77265  HIT:      77264  MISS:          1
LLC TOTAL     ACCESS:     179121  HIT:     165293  MISS:      13828
LLC LOAD      ACCESS:      78147  HIT:      71642  MISS:       6505
LLC RFO       ACCESS:      42964  HIT:      35641  MISS:       7323
LLC PREFETCH  ACCESS:          0  HIT:          0  MISS:          0
LLC WRITEBACK ACCESS:      58010  HIT:      58010  MISS:          0
Heartbeat CPU 0 instructions: 82000000 cycles: 37381124 heartbeat IPC: 1.25128 cumulative IPC: 1.33157 (Simulation time: 0 hr 42 min 36 sec) 

Region of Interest Statistics
cpu0_DTLB TOTAL     ACCESS:    7942078  HIT:    7776422  MISS:     165656
cpu0_DTLB LOAD      ACCESS:    6538226  HIT:    6407350  MISS:     130876
cpu0_DTLB RFO       ACCESS:    1403852  HIT:    1369072  MISS:      34780
cpu0_DTLB PREFETCH  ACCESS:          0  HIT:          0  MISS:          0
cpu0_DTLB WRITEBACK ACCESS:          0  HIT:          0  MISS:          0
cpu0_ITLB TOTAL     ACCESS:    1942886  HIT:    1942886  MISS:          0
cpu0_ITLB LOAD      ACCESS:    1942886  HIT:    1942886  MISS:          0
cpu0_ITLB RFO       ACCESS:          0  HIT:          0  MISS:          0
cpu0_ITLB PREFETCH  ACCESS:          0  HIT:          0  MISS:          0
cpu0_ITLB WRITEBACK ACCESS:          0  HIT:          0  MISS:          0
cpu0_L1I TOTAL     ACCESS:    1798463  HIT:    1798463  MISS:          0
cpu0_L1I LOAD      ACCESS:    1798463  HIT:    1798463  MISS:          0
cpu0_L1I RFO       ACCESS:          0  HIT:          0  MISS:          0
cpu0_L1I PREFETCH  ACCESS:          0  HIT:          0  MISS:          0
cpu0_L1I WRITEBACK ACCESS:          0  HIT:          0  MISS:          0
cpu0_STLB TOTAL     ACCESS:     165656  HIT:     165656  MISS:          0
cpu0_STLB LOAD      ACCESS:     130876  HIT:     130876  MISS:          0
cpu0_STLB RFO       ACCESS:      34780  HIT:      34780  MISS:          0
cpu0_STLB PREFETCH  ACCESS:          0  HIT:          0  MISS:          0
cpu0_STLB WRITEBACK ACCESS:          0  HIT:          0  MISS:          0
cpu0_L1D TOTAL     ACCESS:    8028575  HIT:    7651225  MISS:     377350
cpu0_L1D LOAD      ACCESS:    5456008  HIT:    5142773  MISS:     313235
cpu0_L1D RFO       ACCESS:    2572567  HIT:    2508452  MISS:      64115
cpu0_L1D PREFETCH  ACCESS:          0  HIT:          0  MISS:          0
cpu0_L1D WRITEBACK ACCESS:          0  HIT:          0  MISS:          0
cpu0_L2C TOTAL     ACCESS:     459546  HIT:     328938  MISS:     130608
cpu0_L2C LOAD      ACCESS:     313232  HIT:     228917  MISS:      84315
cpu0_L2C RFO       ACCESS:      64108  HIT:      17816  MISS:      46292
cpu0_L2C PREFETCH  ACCESS:          0  HIT:          0  MISS:          0
cpu0_L2C WRITEBACK ACCESS:      82206  HIT:      82205  MISS:          1
LLC TOTAL     ACCESS:     193655  HIT:     178968  MISS:      14687
LLC LOAD      ACCESS:      84297  HIT:      77229  MISS:       7068
LLC RFO       ACCESS:      46289  HIT:      38670  MISS:       7619
LLC PREFETCH  ACCESS:          0  HIT:          0  MISS:          0
LLC WRITEBACK ACCESS:      63069  HIT:      63069  MISS:          0
Heartbeat CPU 0 instructions: 84000002 cycles: 38950601 heartbeat IPC: 1.27431 cumulative IPC: 1.32806 (Simulation time: 0 hr 43 min 41 sec) 

Region of Interest Statistics
cpu0_DTLB TOTAL     ACCESS:    8453710  HIT:    8272912  MISS:     180798
cpu0_DTLB LOAD      ACCESS:    6962756  HIT:    6819583  MISS:     143173
cpu0_DTLB RFO       ACCESS:    1490954  HIT:    1453329  MISS:      37625
cpu0_DTLB PREFETCH  ACCESS:          0  HIT:          0  MISS:          0
cpu0_DTLB WRITEBACK ACCESS:          0  HIT:          0  MISS:          0
cpu0_ITLB TOTAL     ACCESS:    2079430  HIT:    2079430  MISS:          0
cpu0_ITLB LOAD      ACCESS:    2079430  HIT:    2079430  MISS:          0
cpu0_ITLB RFO       ACCESS:          0  HIT:          0  MISS:          0
cpu0_ITLB PREFETCH  ACCESS:          0  HIT:          0  MISS:          0
cpu0_ITLB WRITEBACK ACCESS:          0  HIT:          0  MISS:          0
cpu0_L1I TOTAL     ACCESS:    1904551  HIT:    1904551  MISS:          0
cpu0_L1I LOAD      ACCESS:    1904551  HIT:    1904551  MISS:          0
cpu0_L1I RFO       ACCESS:          0  HIT:          0  MISS:          0
cpu0_L1I PREFETCH  ACCESS:          0  HIT:          0  MISS:          0
cpu0_L1I WRITEBACK ACCESS:          0  HIT:          0  MISS:          0
cpu0_STLB TOTAL     ACCESS:     180798  HIT:     180798  MISS:          0
cpu0_STLB LOAD      ACCESS:     143173  HIT:     143173  MISS:          0
cpu0_STLB RFO       ACCESS:      37625  HIT:      37625  MISS:          0
cpu0_STLB PREFETCH  ACCESS:          0  HIT:          0  MISS:          0
cpu0_STLB WRITEBACK ACCESS:          0  HIT:          0  MISS:          0
cpu0_L1D TOTAL     ACCESS:    8528462  HIT:    8129632  MISS:     398830
cpu0_L1D LOAD      ACCESS:    5793159  HIT:    5462881  MISS:     330278
cpu0_L1D RFO       ACCESS:    2735303  HIT:    2666751  MISS:      68552
cpu0_L1D PREFETCH  ACCESS:          0  HIT:          0  MISS:          0
cpu0_L1D WRITEBACK ACCESS:          0  HIT:          0  MISS:          0
cpu0_L2C TOTAL     ACCESS:     486591  HIT:     346585  MISS:     140006
cpu0_L2C LOAD      ACCESS:     330274  HIT:     240414  MISS:      89860
cpu0_L2C RFO       ACCESS:      68545  HIT:      18400  MISS:      50145
cpu0_L2C PREFETCH  ACCESS:          0  HIT:          0  MISS:          0
cpu0_L2C WRITEBACK ACCESS:      87772  HIT:      87771  MISS:          1
LLC TOTAL     ACCESS:     206731  HIT:     190861  MISS:      15870
LLC LOAD      ACCESS:      89842  HIT:      82209  MISS:       7633
LLC RFO       ACCESS:      50142  HIT:      41905  MISS:       8237
LLC PREFETCH  ACCESS:          0  HIT:          0  MISS:          0
LLC WRITEBACK ACCESS:      66747  HIT:      66747  MISS:          0
Heartbeat CPU 0 instructions: 86000000 cycles: 40391589 heartbeat IPC: 1.38794 cumulative IPC: 1.33125 (Simulation time: 0 hr 44 min 44 sec) 

Region of Interest Statistics
cpu0_DTLB TOTAL     ACCESS:    8961430  HIT:    8767599  MISS:     193831
cpu0_DTLB LOAD      ACCESS:    7384948  HIT:    7231223  MISS:     153725
cpu0_DTLB RFO       ACCESS:    1576482  HIT:    1536376  MISS:      40106
cpu0_DTLB PREFETCH  ACCESS:          0  HIT:          0  MISS:          0
cpu0_DTLB WRITEBACK ACCESS:          0  HIT:          0  MISS:          0
cpu0_ITLB TOTAL     ACCESS:    2193879  HIT:    2193879  MISS:          0
cpu0_ITLB LOAD      ACCESS:    2193879  HIT:    2193879  MISS:          0
cpu0_ITLB RFO       ACCESS:          0  HIT:          0  MISS:          0
cpu0_ITLB PREFETCH  ACCESS:          0  HIT:          0  MISS:          0
cpu0_ITLB WRITEBACK ACCESS:          0  HIT:          0  MISS:          0
cpu0_L1I TOTAL     ACCESS:    2022195  HIT:    2022195  MISS:          0
cpu0_L1I LOAD      ACCESS:    2022195  HIT:    2022195  MISS:          0
cpu0_L1I RFO       ACCESS:          0  HIT:          0  MISS:          0
cpu0_L1I PREFETCH  ACCESS:          0  HIT:          0  MISS:          0
cpu0_L1I WRITEBACK ACCESS:          0  HIT:          0  MISS:          0
cpu0_STLB TOTAL     ACCESS:     193831  HIT:     193831  MISS:          0
cpu0_STLB LOAD      ACCESS:     153725  HIT:     153725  MISS:          0
cpu0_STLB RFO       ACCESS:      40106  HIT:      40106  MISS:          0
cpu0_STLB PREFETCH  ACCESS:          0  HIT:          0  MISS:          0
cpu0_STLB WRITEBACK ACCESS:          0  HIT:          0  MISS:          0
cpu0_L1D TOTAL     ACCESS:    9024494  HIT:    8612875  MISS:     411619
cpu0_L1D LOAD      ACCESS:    6134604  HIT:    5795371  MISS:     339233
cpu0_L1D RFO       ACCESS:    2889890  HIT:    2817504  MISS:      72386
cpu0_L1D PREFETCH  ACCESS:          0  HIT:          0  MISS:          0
cpu0_L1D WRITEBACK ACCESS:          0  HIT:          0  MISS:          0
cpu0_L2C TOTAL     ACCESS:     503751  HIT:     358166  MISS:     145585
cpu0_L2C LOAD      ACCESS:     339229  HIT:     246386  MISS:      92843
cpu0_L2C RFO       ACCESS:      72378  HIT:      19637  MISS:      52741
cpu0_L2C PREFETCH  ACCESS:          0  HIT:          0  MISS:          0
cpu0_L2C WRITEBACK ACCESS:      92144  HIT:      92143  MISS:          1
LLC TOTAL     ACCESS:     215175  HIT:     198636  MISS:      16539
LLC LOAD      ACCESS:      92825  HIT:      85056  MISS:       7769
LLC RFO       ACCESS:      52738  HIT:      43968  MISS:       8770
LLC PREFETCH  ACCESS:          0  HIT:          0  MISS:          0
LLC WRITEBACK ACCESS:      69612  HIT:      69612  MISS:          0
Heartbeat CPU 0 instructions: 88000003 cycles: 42140797 heartbeat IPC: 1.14338 cumulative IPC: 1.31984 (Simulation time: 0 hr 45 min 43 sec) 

Region of Interest Statistics
cpu0_DTLB TOTAL     ACCESS:    9456288  HIT:    9248192  MISS:     208096
cpu0_DTLB LOAD      ACCESS:    7769127  HIT:    7604131  MISS:     164996
cpu0_DTLB RFO       ACCESS:    1687161  HIT:    1644061  MISS:      43100
cpu0_DTLB PREFETCH  ACCESS:          0  HIT:          0  MISS:          0
cpu0_DTLB WRITEBACK ACCESS:          0  HIT:          0  MISS:          0
cpu0_ITLB TOTAL     ACCESS:    2349687  HIT:    2349687  MISS:          0
cpu0_ITLB LOAD      ACCESS:    2349687  HIT:    2349687  MISS:          0
cpu0_ITLB RFO       ACCESS:          0  HIT:          0  MISS:          0
cpu0_ITLB PREFETCH  ACCESS:          0  HIT:          0  MISS:          0
cpu0_ITLB WRITEBACK ACCESS:          0  HIT:          0  MISS:          0
cpu0_L1I TOTAL     ACCESS:    2143528  HIT:    2143528  MISS:          0
cpu0_L1I LOAD      ACCESS:    2143528  HIT:    2143528  MISS:          0
cpu0_L1I RFO       ACCESS:          0  HIT:          0  MISS:          0
cpu0_L1I PREFETCH  ACCESS:          0  HIT:          0  MISS:          0
cpu0_L1I WRITEBACK ACCESS:          0  HIT:          0  MISS:          0
cpu0_STLB TOTAL     ACCESS:     208096  HIT:     208096  MISS:          0
cpu0_STLB LOAD      ACCESS:     164996  HIT:     164996  MISS:          0
cpu0_STLB RFO       ACCESS:      43100  HIT:      43100  MISS:          0
cpu0_STLB PREFETCH  ACCESS:          0  HIT:          0  MISS:          0
cpu0_STLB WRITEBACK ACCESS:          0  HIT:          0  MISS:          0
cpu0_L1D TOTAL     ACCESS:    9605576  HIT:    9175859  MISS:     429717
cpu0_L1D LOAD      ACCESS:    6511260  HIT:    6158692  MISS:     352568
cpu0_L1D RFO       ACCESS:    3094316  HIT:    3017167  MISS:      77149
cpu0_L1D PREFETCH  ACCESS:          0  HIT:          0  MISS:          0
cpu0_L1D WRITEBACK ACCESS:          0  HIT:          0  MISS:          0
cpu0_L2C TOTAL     ACCESS:     527277  HIT:     371743  MISS:     155534
cpu0_L2C LOAD      ACCESS:     352564  HIT:     253404  MISS:      99160
cpu0_L2C RFO       ACCESS:      77141  HIT:      20768  MISS:      56373
cpu0_L2C PREFETCH  ACCESS:          0  HIT:          0  MISS:          0
cpu0_L2C WRITEBACK ACCESS:      97572  HIT:      97571  MISS:          1
LLC TOTAL     ACCESS:     230417  HIT:     213094  MISS:      17323
LLC LOAD      ACCESS:      99142  HIT:      91001  MISS:       8141
LLC RFO       ACCESS:      56370  HIT:      47188  MISS:       9182
LLC PREFETCH  ACCESS:          0  HIT:          0  MISS:          0
LLC WRITEBACK ACCESS:      74905  HIT:      74905  MISS:          0
Heartbeat CPU 0 instructions: 90000002 cycles: 43508396 heartbeat IPC: 1.46242 cumulative IPC: 1.3263 (Simulation time: 0 hr 46 min 44 sec) 

Region of Interest Statistics
cpu0_DTLB TOTAL     ACCESS:    9923800  HIT:    9704679  MISS:     219121
cpu0_DTLB LOAD      ACCESS:    8150101  HIT:    7977298  MISS:     172803
cpu0_DTLB RFO       ACCESS:    1773699  HIT:    1727381  MISS:      46318
cpu0_DTLB PREFETCH  ACCESS:          0  HIT:          0  MISS:          0
cpu0_DTLB WRITEBACK ACCESS:          0  HIT:          0  MISS:          0
cpu0_ITLB TOTAL     ACCESS:    2467551  HIT:    2467551  MISS:          0
cpu0_ITLB LOAD      ACCESS:    2467551  HIT:    2467551  MISS:          0
cpu0_ITLB RFO       ACCESS:          0  HIT:          0  MISS:          0
cpu0_ITLB PREFETCH  ACCESS:          0  HIT:          0  MISS:          0
cpu0_ITLB WRITEBACK ACCESS:          0  HIT:          0  MISS:          0
cpu0_L1I TOTAL     ACCESS:    2249189  HIT:    2249189  MISS:          0
cpu0_L1I LOAD      ACCESS:    2249189  HIT:    2249189  MISS:          0
cpu0_L1I RFO       ACCESS:          0  HIT:          0  MISS:          0
cpu0_L1I PREFETCH  ACCESS:          0  HIT:          0  MISS:          0
cpu0_L1I WRITEBACK ACCESS:          0  HIT:          0  MISS:          0
cpu0_STLB TOTAL     ACCESS:     219121  HIT:     219121  MISS:          0
cpu0_STLB LOAD      ACCESS:     172803  HIT:     172803  MISS:          0
cpu0_STLB RFO       ACCESS:      46318  HIT:      46318  MISS:          0
cpu0_STLB PREFETCH  ACCESS:          0  HIT:          0  MISS:          0
cpu0_STLB WRITEBACK ACCESS:          0  HIT:          0  MISS:          0
cpu0_L1D TOTAL     ACCESS:   10086058  HIT:    9634064  MISS:     451994
cpu0_L1D LOAD      ACCESS:    6839646  HIT:    6470429  MISS:     369217
cpu0_L1D RFO       ACCESS:    3246412  HIT:    3163635  MISS:      82777
cpu0_L1D PREFETCH  ACCESS:          0  HIT:          0  MISS:          0
cpu0_L1D WRITEBACK ACCESS:          0  HIT:          0  MISS:          0
cpu0_L2C TOTAL     ACCESS:     556071  HIT:     390973  MISS:     165098
cpu0_L2C LOAD      ACCESS:     369213  HIT:     264270  MISS:     104943
cpu0_L2C RFO       ACCESS:      82768  HIT:      22614  MISS:      60154
cpu0_L2C PREFETCH  ACCESS:          0  HIT:          0  MISS:          0
cpu0_L2C WRITEBACK ACCESS:     104090  HIT:     104089  MISS:          1
LLC TOTAL     ACCESS:     245194  HIT:     227151  MISS:      18043
LLC LOAD      ACCESS:     104925  HIT:      96441  MISS:       8484
LLC RFO       ACCESS:      60151  HIT:      50592  MISS:       9559
LLC PREFETCH  ACCESS:          0  HIT:          0  MISS:          0
LLC WRITEBACK ACCESS:      80118  HIT:      80118  MISS:          0
Heartbeat CPU 0 instructions: 92000000 cycles: 44807531 heartbeat IPC: 1.53948 cumulative IPC: 1.33511 (Simulation time: 0 hr 47 min 50 sec) 

Region of Interest Statistics
cpu0_DTLB TOTAL     ACCESS:   10352299  HIT:   10127917  MISS:     224382
cpu0_DTLB LOAD      ACCESS:    8499102  HIT:    8321073  MISS:     178029
cpu0_DTLB RFO       ACCESS:    1853197  HIT:    1806844  MISS:      46353
cpu0_DTLB PREFETCH  ACCESS:          0  HIT:          0  MISS:          0
cpu0_DTLB WRITEBACK ACCESS:          0  HIT:          0  MISS:          0
cpu0_ITLB TOTAL     ACCESS:    2548975  HIT:    2548975  MISS:          0
cpu0_ITLB LOAD      ACCESS:    2548975  HIT:    2548975  MISS:          0
cpu0_ITLB RFO       ACCESS:          0  HIT:          0  MISS:          0
cpu0_ITLB PREFETCH  ACCESS:          0  HIT:          0  MISS:          0
cpu0_ITLB WRITEBACK ACCESS:          0  HIT:          0  MISS:          0
cpu0_L1I TOTAL     ACCESS:    2385031  HIT:    2385031  MISS:          0
cpu0_L1I LOAD      ACCESS:    2385031  HIT:    2385031  MISS:          0
cpu0_L1I RFO       ACCESS:          0  HIT:          0  MISS:          0
cpu0_L1I PREFETCH  ACCESS:          0  HIT:          0  MISS:          0
cpu0_L1I WRITEBACK ACCESS:          0  HIT:          0  MISS:          0
cpu0_STLB TOTAL     ACCESS:     224382  HIT:     224382  MISS:          0
cpu0_STLB LOAD      ACCESS:     178029  HIT:     178029  MISS:          0
cpu0_STLB RFO       ACCESS:      46353  HIT:      46353  MISS:          0
cpu0_STLB PREFETCH  ACCESS:          0  HIT:          0  MISS:          0
cpu0_STLB WRITEBACK ACCESS:          0  HIT:          0  MISS:          0
cpu0_L1D TOTAL     ACCESS:   10558920  HIT:   10078228  MISS:     480692
cpu0_L1D LOAD      ACCESS:    7157743  HIT:    6759858  MISS:     397885
cpu0_L1D RFO       ACCESS:    3401177  HIT:    3318370  MISS:      82807
cpu0_L1D PREFETCH  ACCESS:          0  HIT:          0  MISS:          0
cpu0_L1D WRITEBACK ACCESS:          0  HIT:          0  MISS:          0
cpu0_L2C TOTAL     ACCESS:     586187  HIT:     418313  MISS:     167874
cpu0_L2C LOAD      ACCESS:     397880  HIT:     290161  MISS:     107719
cpu0_L2C RFO       ACCESS:      82798  HIT:      22644  MISS:      60154
cpu0_L2C PREFETCH  ACCESS:          0  HIT:          0  MISS:          0
cpu0_L2C WRITEBACK ACCESS:     105509  HIT:     105508  MISS:          1
LLC TOTAL     ACCESS:     249376  HIT:     231215  MISS:      18161
LLC LOAD      ACCESS:     107701  HIT:      99099  MISS:       8602
LLC RFO       ACCESS:      60151  HIT:      50592  MISS:       9559
LLC PREFETCH  ACCESS:          0  HIT:          0  MISS:          0
LLC WRITEBACK ACCESS:      81524  HIT:      81524  MISS:          0
Heartbeat CPU 0 instructions: 94000001 cycles: 46256093 heartbeat IPC: 1.38068 cumulative IPC: 1.33711 (Simulation time: 0 hr 48 min 59 sec) 

Region of Interest Statistics
cpu0_DTLB TOTAL     ACCESS:   10838175  HIT:   10598168  MISS:     240007
cpu0_DTLB LOAD      ACCESS:    8882721  HIT:    8694226  MISS:     188495
cpu0_DTLB RFO       ACCESS:    1955454  HIT:    1903942  MISS:      51512
cpu0_DTLB PREFETCH  ACCESS:          0  HIT:          0  MISS:          0
cpu0_DTLB WRITEBACK ACCESS:          0  HIT:          0  MISS:          0
cpu0_ITLB TOTAL     ACCESS:    2678770  HIT:    2678770  MISS:          0
cpu0_ITLB LOAD      ACCESS:    2678770  HIT:    2678770  MISS:          0
cpu0_ITLB RFO       ACCESS:          0  HIT:          0  MISS:          0
cpu0_ITLB PREFETCH  ACCESS:          0  HIT:          0  MISS:          0
cpu0_ITLB WRITEBACK ACCESS:          0  HIT:          0  MISS:          0
cpu0_L1I TOTAL     ACCESS:    2475284  HIT:    2475284  MISS:          0
cpu0_L1I LOAD      ACCESS:    2475284  HIT:    2475284  MISS:          0
cpu0_L1I RFO       ACCESS:          0  HIT:          0  MISS:          0
cpu0_L1I PREFETCH  ACCESS:          0  HIT:          0  MISS:          0
cpu0_L1I WRITEBACK ACCESS:          0  HIT:          0  MISS:          0
cpu0_STLB TOTAL     ACCESS:     240007  HIT:     240007  MISS:          0
cpu0_STLB LOAD      ACCESS:     188495  HIT:     188495  MISS:          0
cpu0_STLB RFO       ACCESS:      51512  HIT:      51512  MISS:          0
cpu0_STLB PREFETCH  ACCESS:          0  HIT:          0  MISS:          0
cpu0_STLB WRITEBACK ACCESS:          0  HIT:          0  MISS:          0
cpu0_L1D TOTAL     ACCESS:   11065705  HIT:   10538869  MISS:     526836
cpu0_L1D LOAD      ACCESS:    7493611  HIT:    7062049  MISS:     431562
cpu0_L1D RFO       ACCESS:    3572094  HIT:    3476820  MISS:      95274
cpu0_L1D PREFETCH  ACCESS:          0  HIT:          0  MISS:          0
cpu0_L1D WRITEBACK ACCESS:          0  HIT:          0  MISS:          0
cpu0_L2C TOTAL     ACCESS:     646493  HIT:     458603  MISS:     187890
cpu0_L2C LOAD      ACCESS:     431557  HIT:     312317  MISS:     119240
cpu0_L2C RFO       ACCESS:      95264  HIT:      26615  MISS:      68649
cpu0_L2C PREFETCH  ACCESS:          0  HIT:          0  MISS:          0
cpu0_L2C WRITEBACK ACCESS:     119672  HIT:     119671  MISS:          1
LLC TOTAL     ACCESS:     277396  HIT:     257738  MISS:      19658
LLC LOAD      ACCESS:     119222  HIT:     110051  MISS:       9171
LLC RFO       ACCESS:      68644  HIT:      58157  MISS:      10487
LLC PREFETCH  ACCESS:          0  HIT:          0  MISS:          0
LLC WRITEBACK ACCESS:      89530  HIT:      89530  MISS:          0
Heartbeat CPU 0 instructions: 96000000 cycles: 47593776 heartbeat IPC: 1.49512 cumulative IPC: 1.34328 (Simulation time: 0 hr 50 min 1 sec) 

Region of Interest Statistics
cpu0_DTLB TOTAL     ACCESS:   11328498  HIT:   11082210  MISS:     246288
cpu0_DTLB LOAD      ACCESS:    9297522  HIT:    9102778  MISS:     194744
cpu0_DTLB RFO       ACCESS:    2030976  HIT:    1979432  MISS:      51544
cpu0_DTLB PREFETCH  ACCESS:          0  HIT:          0  MISS:          0
cpu0_DTLB WRITEBACK ACCESS:          0  HIT:          0  MISS:          0
cpu0_ITLB TOTAL     ACCESS:    2767069  HIT:    2767069  MISS:          0
cpu0_ITLB LOAD      ACCESS:    2767069  HIT:    2767069  MISS:          0
cpu0_ITLB RFO       ACCESS:          0  HIT:          0  MISS:          0
cpu0_ITLB PREFETCH  ACCESS:          0  HIT:          0  MISS:          0
cpu0_ITLB WRITEBACK ACCESS:          0  HIT:          0  MISS:          0
cpu0_L1I TOTAL     ACCESS:    2602724  HIT:    2602724  MISS:          0
cpu0_L1I LOAD      ACCESS:    2602724  HIT:    2602724  MISS:          0
cpu0_L1I RFO       ACCESS:          0  HIT:          0  MISS:          0
cpu0_L1I PREFETCH  ACCESS:          0  HIT:          0  MISS:          0
cpu0_L1I WRITEBACK ACCESS:          0  HIT:          0  MISS:          0
cpu0_STLB TOTAL     ACCESS:     246288  HIT:     246288  MISS:          0
cpu0_STLB LOAD      ACCESS:     194744  HIT:     194744  MISS:          0
cpu0_STLB RFO       ACCESS:      51544  HIT:      51544  MISS:          0
cpu0_STLB PREFETCH  ACCESS:          0  HIT:          0  MISS:          0
cpu0_STLB WRITEBACK ACCESS:          0  HIT:          0  MISS:          0
cpu0_L1D TOTAL     ACCESS:   11541529  HIT:   10998125  MISS:     543404
cpu0_L1D LOAD      ACCESS:    7824979  HIT:    7376892  MISS:     448087
cpu0_L1D RFO       ACCESS:    3716550  HIT:    3621233  MISS:      95317
cpu0_L1D PREFETCH  ACCESS:          0  HIT:          0  MISS:          0
cpu0_L1D WRITEBACK ACCESS:          0  HIT:          0  MISS:          0
cpu0_L2C TOTAL     ACCESS:     663976  HIT:     473994  MISS:     189982
cpu0_L2C LOAD      ACCESS:     448082  HIT:     326750  MISS:     121332
cpu0_L2C RFO       ACCESS:      95307  HIT:      26658  MISS:      68649
cpu0_L2C PREFETCH  ACCESS:          0  HIT:          0  MISS:          0
cpu0_L2C WRITEBACK ACCESS:     120587  HIT:     120586  MISS:          1
LLC TOTAL     ACCESS:     280763  HIT:     261070  MISS:      19693
LLC LOAD      ACCESS:     121314  HIT:     112108  MISS:       9206
LLC RFO       ACCESS:      68644  HIT:      58157  MISS:      10487
LLC PREFETCH  ACCESS:          0  HIT:          0  MISS:          0
LLC WRITEBACK ACCESS:      90805  HIT:      90805  MISS:          0
Heartbeat CPU 0 instructions: 98000001 cycles: 49084539 heartbeat IPC: 1.3416 cumulative IPC: 1.34321 (Simulation time: 0 hr 51 min 3 sec) 

Region of Interest Statistics
cpu0_DTLB TOTAL     ACCESS:   11818454  HIT:   11560775  MISS:     257679
cpu0_DTLB LOAD      ACCESS:    9695171  HIT:    9491358  MISS:     203813
cpu0_DTLB RFO       ACCESS:    2123283  HIT:    2069417  MISS:      53866
cpu0_DTLB PREFETCH  ACCESS:          0  HIT:          0  MISS:          0
cpu0_DTLB WRITEBACK ACCESS:          0  HIT:          0  MISS:          0
cpu0_ITLB TOTAL     ACCESS:    2889615  HIT:    2889615  MISS:          0
cpu0_ITLB LOAD      ACCESS:    2889615  HIT:    2889615  MISS:          0
cpu0_ITLB RFO       ACCESS:          0  HIT:          0  MISS:          0
cpu0_ITLB PREFETCH  ACCESS:          0  HIT:          0  MISS:          0
cpu0_ITLB WRITEBACK ACCESS:          0  HIT:          0  MISS:          0
cpu0_L1I TOTAL     ACCESS:    2725458  HIT:    2725458  MISS:          0
cpu0_L1I LOAD      ACCESS:    2725458  HIT:    2725458  MISS:          0
cpu0_L1I RFO       ACCESS:          0  HIT:          0  MISS:          0
cpu0_L1I PREFETCH  ACCESS:          0  HIT:          0  MISS:          0
cpu0_L1I WRITEBACK ACCESS:          0  HIT:          0  MISS:          0
cpu0_STLB TOTAL     ACCESS:     257679  HIT:     257679  MISS:          0
cpu0_STLB LOAD      ACCESS:     203813  HIT:     203813  MISS:          0
cpu0_STLB RFO       ACCESS:      53866  HIT:      53866  MISS:          0
cpu0_STLB PREFETCH  ACCESS:          0  HIT:          0  MISS:          0
cpu0_STLB WRITEBACK ACCESS:          0  HIT:          0  MISS:          0
cpu0_L1D TOTAL     ACCESS:   12059629  HIT:   11492863  MISS:     566766
cpu0_L1D LOAD      ACCESS:    8174605  HIT:    7709371  MISS:     465234
cpu0_L1D RFO       ACCESS:    3885024  HIT:    3783492  MISS:     101532
cpu0_L1D PREFETCH  ACCESS:          0  HIT:          0  MISS:          0
cpu0_L1D WRITEBACK ACCESS:          0  HIT:          0  MISS:          0
cpu0_L2C TOTAL     ACCESS:     694206  HIT:     491724  MISS:     202482
cpu0_L2C LOAD      ACCESS:     465229  HIT:     337138  MISS:     128091
cpu0_L2C RFO       ACCESS:     101522  HIT:      27132  MISS:      74390
cpu0_L2C PREFETCH  ACCESS:          0  HIT:          0  MISS:          0
cpu0_L2C WRITEBACK ACCESS:     127455  HIT:     127454  MISS:          1
LLC TOTAL     ACCESS:     297074  HIT:     276630  MISS:      20444
LLC LOAD      ACCESS:     128073  HIT:     118598  MISS:       9475
LLC RFO       ACCESS:      74385  HIT:      63416  MISS:      10969
LLC PREFETCH  ACCESS:          0  HIT:          0  MISS:          0
LLC WRITEBACK ACCESS:      94616  HIT:      94616  MISS:          0
Heartbeat CPU 0 instructions: 100000000 cycles: 50561815 heartbeat IPC: 1.35384 cumulative IPC: 1.34364 (Simulation time: 0 hr 52 min 4 sec) 

Region of Interest Statistics
cpu0_DTLB TOTAL     ACCESS:   12309814  HIT:   12038081  MISS:     271733
cpu0_DTLB LOAD      ACCESS:   10094492  HIT:    9879760  MISS:     214732
cpu0_DTLB RFO       ACCESS:    2215322  HIT:    2158321  MISS:      57001
cpu0_DTLB PREFETCH  ACCESS:          0  HIT:          0  MISS:          0
cpu0_DTLB WRITEBACK ACCESS:          0  HIT:          0  MISS:          0
cpu0_ITLB TOTAL     ACCESS:    3021144  HIT:    3021144  MISS:          0
cpu0_ITLB LOAD      ACCESS:    3021144  HIT:    3021144  MISS:          0
cpu0_ITLB RFO       ACCESS:          0  HIT:          0  MISS:          0
cpu0_ITLB PREFETCH  ACCESS:          0  HIT:          0  MISS:          0
cpu0_ITLB WRITEBACK ACCESS:          0  HIT:          0  MISS:          0
cpu0_L1I TOTAL     ACCESS:    2828336  HIT:    2828336  MISS:          0
cpu0_L1I LOAD      ACCESS:    2828336  HIT:    2828336  MISS:          0
cpu0_L1I RFO       ACCESS:          0  HIT:          0  MISS:          0
cpu0_L1I PREFETCH  ACCESS:          0  HIT:          0  MISS:          0
cpu0_L1I WRITEBACK ACCESS:          0  HIT:          0  MISS:          0
cpu0_STLB TOTAL     ACCESS:     271733  HIT:     271733  MISS:          0
cpu0_STLB LOAD      ACCESS:     214732  HIT:     214732  MISS:          0
cpu0_STLB RFO       ACCESS:      57001  HIT:      57001  MISS:          0
cpu0_STLB PREFETCH  ACCESS:          0  HIT:          0  MISS:          0
cpu0_STLB WRITEBACK ACCESS:          0  HIT:          0  MISS:          0
cpu0_L1D TOTAL     ACCESS:   12564953  HIT:   11980788  MISS:     584165
cpu0_L1D LOAD      ACCESS:    8515834  HIT:    8037823  MISS:     478011
cpu0_L1D RFO       ACCESS:    4049119  HIT:    3942965  MISS:     106154
cpu0_L1D PREFETCH  ACCESS:          0  HIT:          0  MISS:          0
cpu0_L1D WRITEBACK ACCESS:          0  HIT:          0  MISS:          0
cpu0_L2C TOTAL     ACCESS:     716303  HIT:     506004  MISS:     210299
cpu0_L2C LOAD      ACCESS:     478006  HIT:     345658  MISS:     132348
cpu0_L2C RFO       ACCESS:     106142  HIT:      28192  MISS:      77950
cpu0_L2C PREFETCH  ACCESS:          0  HIT:          0  MISS:          0
cpu0_L2C WRITEBACK ACCESS:     132155  HIT:     132154  MISS:          1
LLC TOTAL     ACCESS:     309200  HIT:     288178  MISS:      21022
LLC LOAD      ACCESS:     132330  HIT:     122632  MISS:       9698
LLC RFO       ACCESS:      77945  HIT:      66621  MISS:      11324
LLC PREFETCH  ACCESS:          0  HIT:          0  MISS:          0
LLC WRITEBACK ACCESS:      98925  HIT:      98925  MISS:          0
Heartbeat CPU 0 instructions: 102000000 cycles: 52231365 heartbeat IPC: 1.19793 cumulative IPC: 1.33738 (Simulation time: 0 hr 53 min 3 sec) 

Region of Interest Statistics
cpu0_DTLB TOTAL     ACCESS:   12804035  HIT:   12521199  MISS:     282836
cpu0_DTLB LOAD      ACCESS:   10499375  HIT:   10274279  MISS:     225096
cpu0_DTLB RFO       ACCESS:    2304660  HIT:    2246920  MISS:      57740
cpu0_DTLB PREFETCH  ACCESS:          0  HIT:          0  MISS:          0
cpu0_DTLB WRITEBACK ACCESS:          0  HIT:          0  MISS:          0
cpu0_ITLB TOTAL     ACCESS:    3163446  HIT:    3163446  MISS:          0
cpu0_ITLB LOAD      ACCESS:    3163446  HIT:    3163446  MISS:          0
cpu0_ITLB RFO       ACCESS:          0  HIT:          0  MISS:          0
cpu0_ITLB PREFETCH  ACCESS:          0  HIT:          0  MISS:          0
cpu0_ITLB WRITEBACK ACCESS:          0  HIT:          0  MISS:          0
cpu0_L1I TOTAL     ACCESS:    2943892  HIT:    2943892  MISS:          0
cpu0_L1I LOAD      ACCESS:    2943892  HIT:    2943892  MISS:          0
cpu0_L1I RFO       ACCESS:          0  HIT:          0  MISS:          0
cpu0_L1I PREFETCH  ACCESS:          0  HIT:          0  MISS:          0
cpu0_L1I WRITEBACK ACCESS:          0  HIT:          0  MISS:          0
cpu0_STLB TOTAL     ACCESS:     282836  HIT:     282836  MISS:          0
cpu0_STLB LOAD      ACCESS:     225096  HIT:     225096  MISS:          0
cpu0_STLB RFO       ACCESS:      57740  HIT:      57740  MISS:          0
cpu0_STLB PREFETCH  ACCESS:          0  HIT:          0  MISS:          0
cpu0_STLB WRITEBACK ACCESS:          0  HIT:          0  MISS:          0
cpu0_L1D TOTAL     ACCESS:   13088788  HIT:   12490664  MISS:     598124
cpu0_L1D LOAD      ACCESS:    8863462  HIT:    8373190  MISS:     490272
cpu0_L1D RFO       ACCESS:    4225326  HIT:    4117474  MISS:     107852
cpu0_L1D PREFETCH  ACCESS:          0  HIT:          0  MISS:          0
cpu0_L1D WRITEBACK ACCESS:          0  HIT:          0  MISS:          0
cpu0_L2C TOTAL     ACCESS:     733429  HIT:     517193  MISS:     216236
cpu0_L2C LOAD      ACCESS:     490266  HIT:     353004  MISS:     137262
cpu0_L2C RFO       ACCESS:     107840  HIT:      28867  MISS:      78973
cpu0_L2C PREFETCH  ACCESS:          0  HIT:          0  MISS:          0
cpu0_L2C WRITEBACK ACCESS:     135323  HIT:     135322  MISS:          1
LLC TOTAL     ACCESS:     318462  HIT:     296985  MISS:      21477
LLC LOAD      ACCESS:     137244  HIT:     127120  MISS:      10124
LLC RFO       ACCESS:      78968  HIT:      67615  MISS:      11353
LLC PREFETCH  ACCESS:          0  HIT:          0  MISS:          0
LLC WRITEBACK ACCESS:     102250  HIT:     102250  MISS:          0
Heartbeat CPU 0 instructions: 104000004 cycles: 53864256 heartbeat IPC: 1.22482 cumulative IPC: 1.33284 (Simulation time: 0 hr 54 min 11 sec) 

Region of Interest Statistics
cpu0_DTLB TOTAL     ACCESS:   13308205  HIT:   13008413  MISS:     299792
cpu0_DTLB LOAD      ACCESS:   10909010  HIT:   10671571  MISS:     237439
cpu0_DTLB RFO       ACCESS:    2399195  HIT:    2336842  MISS:      62353
cpu0_DTLB PREFETCH  ACCESS:          0  HIT:          0  MISS:          0
cpu0_DTLB WRITEBACK ACCESS:          0  HIT:          0  MISS:          0
cpu0_ITLB TOTAL     ACCESS:    3303668  HIT:    3303668  MISS:          0
cpu0_ITLB LOAD      ACCESS:    3303668  HIT:    3303668  MISS:          0
cpu0_ITLB RFO       ACCESS:          0  HIT:          0  MISS:          0
cpu0_ITLB PREFETCH  ACCESS:          0  HIT:          0  MISS:          0
cpu0_ITLB WRITEBACK ACCESS:          0  HIT:          0  MISS:          0
cpu0_L1I TOTAL     ACCESS:    3057610  HIT:    3057610  MISS:          0
cpu0_L1I LOAD      ACCESS:    3057610  HIT:    3057610  MISS:          0
cpu0_L1I RFO       ACCESS:          0  HIT:          0  MISS:          0
cpu0_L1I PREFETCH  ACCESS:          0  HIT:          0  MISS:          0
cpu0_L1I WRITEBACK ACCESS:          0  HIT:          0  MISS:          0
cpu0_STLB TOTAL     ACCESS:     299792  HIT:     299792  MISS:          0
cpu0_STLB LOAD      ACCESS:     237439  HIT:     237439  MISS:          0
cpu0_STLB RFO       ACCESS:      62353  HIT:      62353  MISS:          0
cpu0_STLB PREFETCH  ACCESS:          0  HIT:          0  MISS:          0
cpu0_STLB WRITEBACK ACCESS:          0  HIT:          0  MISS:          0
cpu0_L1D TOTAL     ACCESS:   13595148  HIT:   12975304  MISS:     619844
cpu0_L1D LOAD      ACCESS:    9205534  HIT:    8700278  MISS:     505256
cpu0_L1D RFO       ACCESS:    4389614  HIT:    4275026  MISS:     114588
cpu0_L1D PREFETCH  ACCESS:          0  HIT:          0  MISS:          0
cpu0_L1D WRITEBACK ACCESS:          0  HIT:          0  MISS:          0
cpu0_L2C TOTAL     ACCESS:     762578  HIT:     534517  MISS:     228061
cpu0_L2C LOAD      ACCESS:     505250  HIT:     361626  MISS:     143624
cpu0_L2C RFO       ACCESS:     114576  HIT:      30142  MISS:      84434
cpu0_L2C PREFETCH  ACCESS:          0  HIT:          0  MISS:          0
cpu0_L2C WRITEBACK ACCESS:     142752  HIT:     142749  MISS:          3
LLC TOTAL     ACCESS:     334630  HIT:     311682  MISS:      22948
LLC LOAD      ACCESS:     143603  HIT:     132859  MISS:      10744
LLC RFO       ACCESS:      84427  HIT:      72223  MISS:      12204
LLC PREFETCH  ACCESS:          0  HIT:          0  MISS:          0
LLC WRITEBACK ACCESS:     106600  HIT:     106600  MISS:          0
Heartbeat CPU 0 instructions: 106000001 cycles: 55528040 heartbeat IPC: 1.20208 cumulative IPC: 1.32768 (Simulation time: 0 hr 55 min 13 sec) 

Region of Interest Statistics
cpu0_DTLB TOTAL     ACCESS:   13785319  HIT:   13478119  MISS:     307200
cpu0_DTLB LOAD      ACCESS:   11296865  HIT:   11052102  MISS:     244763
cpu0_DTLB RFO       ACCESS:    2488454  HIT:    2426017  MISS:      62437
cpu0_DTLB PREFETCH  ACCESS:          0  HIT:          0  MISS:          0
cpu0_DTLB WRITEBACK ACCESS:          0  HIT:          0  MISS:          0
cpu0_ITLB TOTAL     ACCESS:    3435627  HIT:    3435627  MISS:          0
cpu0_ITLB LOAD      ACCESS:    3435627  HIT:    3435627  MISS:          0
cpu0_ITLB RFO       ACCESS:          0  HIT:          0  MISS:          0
cpu0_ITLB PREFETCH  ACCESS:          0  HIT:          0  MISS:          0
cpu0_ITLB WRITEBACK ACCESS:          0  HIT:          0  MISS:          0
cpu0_L1I TOTAL     ACCESS:    3184735  HIT:    3184735  MISS:          0
cpu0_L1I LOAD      ACCESS:    3184735  HIT:    3184735  MISS:          0
cpu0_L1I RFO       ACCESS:          0  HIT:          0  MISS:          0
cpu0_L1I PREFETCH  ACCESS:          0  HIT:          0  MISS:          0
cpu0_L1I WRITEBACK ACCESS:          0  HIT:          0  MISS:          0
cpu0_STLB TOTAL     ACCESS:     307200  HIT:     307200  MISS:          0
cpu0_STLB LOAD      ACCESS:     244763  HIT:     244763  MISS:          0
cpu0_STLB RFO       ACCESS:      62437  HIT:      62437  MISS:          0
cpu0_STLB PREFETCH  ACCESS:          0  HIT:          0  MISS:          0
cpu0_STLB WRITEBACK ACCESS:          0  HIT:          0  MISS:          0
cpu0_L1D TOTAL     ACCESS:   14124241  HIT:   13495513  MISS:     628728
cpu0_L1D LOAD      ACCESS:    9558682  HIT:    9044560  MISS:     514122
cpu0_L1D RFO       ACCESS:    4565559  HIT:    4450953  MISS:     114606
cpu0_L1D PREFETCH  ACCESS:          0  HIT:          0  MISS:          0
cpu0_L1D WRITEBACK ACCESS:          0  HIT:          0  MISS:          0
cpu0_L2C TOTAL     ACCESS:     771846  HIT:     539102  MISS:     232744
cpu0_L2C LOAD      ACCESS:     514116  HIT:     365809  MISS:     148307
cpu0_L2C RFO       ACCESS:     114594  HIT:      30160  MISS:      84434
cpu0_L2C PREFETCH  ACCESS:          0  HIT:          0  MISS:          0
cpu0_L2C WRITEBACK ACCESS:     143136  HIT:     143133  MISS:          3
[...]
cpu0_DTLB LOAD      ACCESS:  260596328  HIT:  253326367  MISS:    7269961
cpu0_DTLB RFO       ACCESS:   95553202  HIT:   91946352  MISS:    3606850
cpu0_DTLB PREFETCH  ACCESS:          0  HIT:          0  MISS:          0
cpu0_DTLB WRITEBACK ACCESS:          0  HIT:          0  MISS:          0
cpu0_ITLB TOTAL     ACCESS:   93218322  HIT:   93218319  MISS:          3
cpu0_ITLB LOAD      ACCESS:   93218322  HIT:   93218319  MISS:          3
cpu0_ITLB RFO       ACCESS:          0  HIT:          0  MISS:          0
cpu0_ITLB PREFETCH  ACCESS:          0  HIT:          0  MISS:          0
cpu0_ITLB WRITEBACK ACCESS:          0  HIT:          0  MISS:          0
cpu0_L1I TOTAL     ACCESS:   67753821  HIT:   67753625  MISS:        196
cpu0_L1I LOAD      ACCESS:   67753821  HIT:   67753625  MISS:        196
cpu0_L1I RFO       ACCESS:          0  HIT:          0  MISS:          0
cpu0_L1I PREFETCH  ACCESS:          0  HIT:          0  MISS:          0
cpu0_L1I WRITEBACK ACCESS:          0  HIT:          0  MISS:          0
cpu0_STLB TOTAL     ACCESS:   10876814  HIT:   10874471  MISS:       2343
cpu0_STLB LOAD      ACCESS:    7269964  HIT:    7268727  MISS:       1237
cpu0_STLB RFO       ACCESS:    3606850  HIT:    3605744  MISS:       1106
cpu0_STLB PREFETCH  ACCESS:          0  HIT:          0  MISS:          0
cpu0_STLB WRITEBACK ACCESS:          0  HIT:          0  MISS:          0
cpu0_L1D TOTAL     ACCESS:  404217286  HIT:  384723374  MISS:   19493912
cpu0_L1D LOAD      ACCESS:  244360002  HIT:  228552420  MISS:   15807582
cpu0_L1D RFO       ACCESS:  159854966  HIT:  156168927  MISS:    3686039
cpu0_L1D PREFETCH  ACCESS:          0  HIT:          0  MISS:          0
cpu0_L1D WRITEBACK ACCESS:          0  HIT:          0  MISS:          0
cpu0_L2C TOTAL     ACCESS:   24303454  HIT:   16624502  MISS:    7678952
cpu0_L2C LOAD      ACCESS:   15805171  HIT:   10606509  MISS:    5198662
cpu0_L2C RFO       ACCESS:    3684457  HIT:    1206399  MISS:    2478058
cpu0_L2C PREFETCH  ACCESS:          0  HIT:          0  MISS:          0
cpu0_L2C WRITEBACK ACCESS:    4813535  HIT:    4811353  MISS:       2182
LLC TOTAL     ACCESS:   10479531  HIT:    9312531  MISS:    1167000
LLC LOAD      ACCESS:    5198217  HIT:    4627123  MISS:     571094
LLC RFO       ACCESS:    2477821  HIT:    1883560  MISS:     594261
LLC PREFETCH  ACCESS:          0  HIT:          0  MISS:          0
LLC WRITEBACK ACCESS:    2803443  HIT:    2801834  MISS:       1609
Heartbeat CPU 0 instructions: 1550000003 cycles: 1132446784 heartbeat IPC: 2.4155 cumulative IPC: 1.34037 (Simulation time: 14 hr 7 min 38 sec) 

Region of Interest Statistics
cpu0_DTLB TOTAL     ACCESS:  356694567  HIT:  345817595  MISS:   10876972
cpu0_DTLB LOAD      ACCESS:  260709323  HIT:  253439309  MISS:    7270014
cpu0_DTLB RFO       ACCESS:   95985244  HIT:   92378286  MISS:    3606958
cpu0_DTLB PREFETCH  ACCESS:          0  HIT:          0  MISS:          0
cpu0_DTLB WRITEBACK ACCESS:          0  HIT:          0  MISS:          0
cpu0_ITLB TOTAL     ACCESS:   93218322  HIT:   93218319  MISS:          3
cpu0_ITLB LOAD      ACCESS:   93218322  HIT:   93218319  MISS:          3
cpu0_ITLB RFO       ACCESS:          0  HIT:          0  MISS:          0
cpu0_ITLB PREFETCH  ACCESS:          0  HIT:          0  MISS:          0
cpu0_ITLB WRITEBACK ACCESS:          0  HIT:          0  MISS:          0
cpu0_L1I TOTAL     ACCESS:   67753821  HIT:   67753625  MISS:        196
cpu0_L1I LOAD      ACCESS:   67753821  HIT:   67753625  MISS:        196
cpu0_L1I RFO       ACCESS:          0  HIT:          0  MISS:          0
cpu0_L1I PREFETCH  ACCESS:          0  HIT:          0  MISS:          0
cpu0_L1I WRITEBACK ACCESS:          0  HIT:          0  MISS:          0
cpu0_STLB TOTAL     ACCESS:   10876975  HIT:   10874616  MISS:       2359
cpu0_STLB LOAD      ACCESS:    7270017  HIT:    7268780  MISS:       1237
cpu0_STLB RFO       ACCESS:    3606958  HIT:    3605836  MISS:       1122
cpu0_STLB PREFETCH  ACCESS:          0  HIT:          0  MISS:          0
cpu0_STLB WRITEBACK ACCESS:          0  HIT:          0  MISS:          0
cpu0_L1D TOTAL     ACCESS:  404740462  HIT:  385229229  MISS:   19511233
cpu0_L1D LOAD      ACCESS:  244649719  HIT:  228831578  MISS:   15818141
cpu0_L1D RFO       ACCESS:  160088409  HIT:  156395609  MISS:    3692800
cpu0_L1D PREFETCH  ACCESS:          0  HIT:          0  MISS:          0
cpu0_L1D WRITEBACK ACCESS:          0  HIT:          0  MISS:          0
cpu0_L2C TOTAL     ACCESS:   24334691  HIT:   16645448  MISS:    7689243
cpu0_L2C LOAD      ACCESS:   15815709  HIT:   10613550  MISS:    5202159
cpu0_L2C RFO       ACCESS:    3691218  HIT:    1206399  MISS:    2484819
cpu0_L2C PREFETCH  ACCESS:          0  HIT:          0  MISS:          0
cpu0_L2C WRITEBACK ACCESS:    4827472  HIT:    4825258  MISS:       2214
LLC TOTAL     ACCESS:   10496739  HIT:    9321679  MISS:    1175060
LLC LOAD      ACCESS:    5201714  HIT:    4629299  MISS:     572415
LLC RFO       ACCESS:    2484582  HIT:    1883585  MISS:     600997
LLC PREFETCH  ACCESS:          0  HIT:          0  MISS:          0
LLC WRITEBACK ACCESS:    2810392  HIT:    2808780  MISS:       1612
Finished CPU 0 instructions: 1500000001 cycles: 1119097450 cumulative IPC: 1.34037 (Simulation time: 14 hr 7 min 38 sec) 

ChampSim completed all CPUs

Region of Interest Statistics

CPU 0 cumulative IPC: 1.34037 instructions: 1500000001 cycles: 1119097450
cpu0_DTLB TOTAL     ACCESS:  356694567  HIT:  345817595  MISS:   10876972
cpu0_DTLB LOAD      ACCESS:  260709323  HIT:  253439309  MISS:    7270014
cpu0_DTLB RFO       ACCESS:   95985244  HIT:   92378286  MISS:    3606958
cpu0_DTLB PREFETCH  ACCESS:          0  HIT:          0  MISS:          0
cpu0_DTLB WRITEBACK ACCESS:          0  HIT:          0  MISS:          0
cpu0_DTLB TRANSLATION ACCESS:          0  HIT:          0  MISS:          0
cpu0_DTLB PREFETCH  REQUESTED:          0  ISSUED:          0  USEFUL:          0  USELESS:          0
cpu0_DTLB AVERAGE MISS LATENCY: 9.11051 cycles
cpu0_ITLB TOTAL     ACCESS:   93218322  HIT:   93218319  MISS:          3
cpu0_ITLB LOAD      ACCESS:   93218322  HIT:   93218319  MISS:          3
cpu0_ITLB RFO       ACCESS:          0  HIT:          0  MISS:          0
cpu0_ITLB PREFETCH  ACCESS:          0  HIT:          0  MISS:          0
cpu0_ITLB WRITEBACK ACCESS:          0  HIT:          0  MISS:          0
cpu0_ITLB TRANSLATION ACCESS:          0  HIT:          0  MISS:          0
cpu0_ITLB PREFETCH  REQUESTED:          0  ISSUED:          0  USEFUL:          0  USELESS:          0
cpu0_ITLB AVERAGE MISS LATENCY: 359.667 cycles
cpu0_L1I TOTAL     ACCESS:   67753821  HIT:   67753625  MISS:        196
cpu0_L1I LOAD      ACCESS:   67753821  HIT:   67753625  MISS:        196
cpu0_L1I RFO       ACCESS:          0  HIT:          0  MISS:          0
cpu0_L1I PREFETCH  ACCESS:          0  HIT:          0  MISS:          0
cpu0_L1I WRITEBACK ACCESS:          0  HIT:          0  MISS:          0
cpu0_L1I TRANSLATION ACCESS:          0  HIT:          0  MISS:          0
cpu0_L1I PREFETCH  REQUESTED:          0  ISSUED:          0  USEFUL:          0  USELESS:          0
cpu0_L1I AVERAGE MISS LATENCY: 230.883 cycles
cpu0_STLB TOTAL     ACCESS:   10876975  HIT:   10874616  MISS:       2359
cpu0_STLB LOAD      ACCESS:    7270017  HIT:    7268780  MISS:       1237
cpu0_STLB RFO       ACCESS:    3606958  HIT:    3605836  MISS:       1122
cpu0_STLB PREFETCH  ACCESS:          0  HIT:          0  MISS:          0
cpu0_STLB WRITEBACK ACCESS:          0  HIT:          0  MISS:          0
cpu0_STLB TRANSLATION ACCESS:          0  HIT:          0  MISS:          0
cpu0_STLB PREFETCH  REQUESTED:          0  ISSUED:          0  USEFUL:          0  USELESS:          0
cpu0_STLB AVERAGE MISS LATENCY: 144.522 cycles
cpu0_L1D TOTAL     ACCESS:  404740464  HIT:  385229231  MISS:   19511233
cpu0_L1D LOAD      ACCESS:  244649720  HIT:  228831579  MISS:   15818141
cpu0_L1D RFO       ACCESS:  160088410  HIT:  156395610  MISS:    3692800
cpu0_L1D PREFETCH  ACCESS:          0  HIT:          0  MISS:          0
cpu0_L1D WRITEBACK ACCESS:          0  HIT:          0  MISS:          0
cpu0_L1D TRANSLATION ACCESS:       2334  HIT:       2042  MISS:        292
cpu0_L1D PREFETCH  REQUESTED:          0  ISSUED:          0  USEFUL:          0  USELESS:          0
cpu0_L1D AVERAGE MISS LATENCY: 43.9801 cycles
cpu0_L2C TOTAL     ACCESS:   24334691  HIT:   16645448  MISS:    7689243
cpu0_L2C LOAD      ACCESS:   15815709  HIT:   10613550  MISS:    5202159
cpu0_L2C RFO       ACCESS:    3691218  HIT:    1206399  MISS:    2484819
cpu0_L2C PREFETCH  ACCESS:          0  HIT:          0  MISS:          0
cpu0_L2C WRITEBACK ACCESS:    4827472  HIT:    4825258  MISS:       2214
cpu0_L2C TRANSLATION ACCESS:        292  HIT:        241  MISS:         51
cpu0_L2C PREFETCH  REQUESTED:          0  ISSUED:          0  USEFUL:          0  USELESS:          0
cpu0_L2C AVERAGE MISS LATENCY: 83.376 cycles
LLC TOTAL     ACCESS:   10496739  HIT:    9321679  MISS:    1175060
LLC LOAD      ACCESS:    5201714  HIT:    4629299  MISS:     572415
LLC RFO       ACCESS:    2484582  HIT:    1883585  MISS:     600997
LLC PREFETCH  ACCESS:          0  HIT:          0  MISS:          0
LLC WRITEBACK ACCESS:    2810392  HIT:    2808780  MISS:       1612
LLC TRANSLATION ACCESS:         51  HIT:         15  MISS:         36
LLC PREFETCH  REQUESTED:          0  ISSUED:          0  USEFUL:          0  USELESS:          0
LLC AVERAGE MISS LATENCY: 408.198 cycles
~~~~~~~~~~Reuse Distance Profiler output~~~~~~~~~~
0	0	0
1	0	0
2	0	0
3	0	0
4	0	0
5	0	0
6	0	0
7	0	0
8	0	0
9	0	0
10	0	0
11	0	0
12	0	0
13	0	0
14	0	0
15	0	0
16	0	0
17	0	0
18	0	0
19	0	0
20	0	0
21	0	0
22	0	0
23	0	0
24	0	0
25	0	0
26	0	0
27	0	0
28	0	0
29	0	0
30	0	0
31	0	0
32	0	0
33	0	0
34	0	0
35	0	0
36	0	0
37	0	0
38	0	0
39	0	0
40	0	0
41	0	0
42	0	0
43	0	0
44	0	0
45	0	0
46	0	0
47	0	0
48	0	0
49	0	0
50	0	0
51	0	0
52	0	0
53	0	0
54	0	0
55	0	0
56	0	0
57	0	0
58	0	0
59	0	0
60	0	0
61	0	0
62	0	0
63	0	0
64	0	0
66	0	0
68	0	0
70	0	0
72	0	0
74	0	0
76	0	0
78	0	0
80	0	0
82	0	0
84	0	0
86	0	0
88	0	0
90	0	0
92	0	0
94	0	0
96	0	0
98	0	0
100	0	0
102	0	0
104	0	0
106	0	0
108	0	0
110	0	0
112	0	0
114	0	0
116	0	0
118	0	0
120	0	0
122	0	0
124	0	0
126	0	0
128	0	0
132	0	0
136	0	0
140	0	0
144	0	0
148	0	0
152	0	0
156	0	0
160	0	0
164	0	0
168	0	0
172	0	0
176	0	0
180	0	0
184	0	0
188	0	0
192	0	0
196	0	0
200	0	0
204	0	0
208	0	0
212	0	0
216	0	0
220	0	0
224	0	0
228	0	0
232	0	0
236	0	0
240	0	0
244	0	0
248	0	0
252	0	0
256	0	0
264	0	0
272	0	0
280	0	0
288	0	0
296	0	0
304	0	0
312	0	0
320	0	0
328	0	0
336	0	0
344	0	0
352	0	0
360	0	0
368	0	0
376	0	0
384	0	0
392	0	0
400	0	0
408	0	0
416	0	0
424	0	0
432	0	0
440	0	0
448	0	0
456	0	0
464	0	0
472	0	0
480	0	0
488	0	0
496	0	0
504	0	0
512	0	0
528	0	0
544	0	0
560	0	0
576	0	0
592	0	0
608	0	0
624	0	0
640	0	0
656	0	0
672	0	0
688	0	0
704	0	0
720	0	0
736	0	0
752	0	0
768	0	0
784	0	0
800	0	0
816	0	0
832	0	0
848	0	0
864	0	0
880	0	0
896	0	0
912	0	0
928	0	0
944	0	0
960	0	0
976	0	0
992	0	0
1008	0	0
1024	0	0
1056	0	0
1088	0	0
1120	0	0
1152	0	0
1184	0	0
1216	0	0
1248	0	0
1280	0	0
1312	0	0
1344	0	0
1376	0	0
1408	0	0
1440	0	0
1472	0	0
1504	0	0
1536	0	0
1568	0	0
1600	0	0
1632	0	0
1664	0	0
1696	0	0
1728	0	0
1760	0	0
1792	0	0
1824	0	0
1856	0	0
1888	0	0
1920	0	0
1952	0	0
1984	0	0
2016	0	0
2048	0	0
2112	0	0
2176	0	0
2240	0	0
2304	0	0
2368	0	0
2432	0	0
2496	0	0
2560	0	0
2624	0	0
2688	0	0
2752	0	0
2816	0	0
2880	0	0
2944	0	0
3008	0	0
3072	0	0
3136	0	0
3200	0	0
3264	0	0
3328	0	0
3392	0	0
3456	0	0
3520	0	0
3584	0	0
3648	0	0
3712	0	0
3776	0	0
3840	0	0
3904	0	0
3968	0	0
4032	0	0
4096	0	0
4224	0	0
4352	0	0
4480	0	0
4608	0	0
4736	0	0
4864	0	0
4992	0	0
5120	0	0
5248	0	0
5376	0	0
5504	0	0
5632	0	0
5760	0	0
5888	0	0
6016	0	0
6144	0	0
6272	0	0
6400	0	0
6528	0	0
6656	0	0
6784	0	0
6912	0	0
7040	0	0
7168	0	0
7296	0	0
7424	0	0
7552	0	0
7680	0	0
7808	0	0
7936	0	0
8064	0	0
8192	0	0
8448	0	0
8704	0	0
8960	0	0
9216	0	0
9472	0	0
9728	0	0
9984	0	0
10240	0	0
10496	0	0
10752	0	0
11008	0	0
11264	0	0
11520	0	0
11776	0	0
12032	0	0
12288	0	0
12544	0	0
12800	0	0
13056	0	0
13312	0	0
13568	0	0
13824	0	0
14080	0	0
14336	0	0
14592	0	0
14848	0	0
15104	0	0
15360	0	0
15616	0	0
15872	0	0
16128	0	0
16384	0	0
16896	0	0
17408	0	0
17920	0	0
18432	0	0
18944	0	0
19456	0	0
19968	0	0
20480	0	0
20992	0	0
21504	0	0
22016	0	0
22528	0	0
23040	0	0
23552	0	0
24064	0	0
24576	0	0
25088	0	0
25600	0	0
26112	0	0
26624	0	0
27136	0	0
27648	0	0
28160	0	0
28672	0	0
29184	0	0
29696	0	0
30208	0	0
30720	0	0
31232	0	0
31744	0	0
32256	0	0
32768	0	0
33792	0	0
34816	0	0
35840	0	0
36864	0	0
37888	0	0
38912	0	0
39936	0	0
40960	0	0
41984	0	0
43008	0	0
44032	0	0
45056	0	0
46080	0	0
47104	0	0
48128	0	0
49152	0	0
50176	0	0
51200	0	0
52224	0	0
53248	0	0
54272	0	0
55296	0	0
56320	0	0
57344	0	0
58368	0	0
59392	0	0
60416	0	0
61440	0	0
62464	0	0
63488	0	0
64512	0	0
65536	0	0
67584	0	0
69632	0	0
71680	0	0
73728	0	0
75776	0	0
77824	0	0
79872	0	0
81920	0	0
83968	0	0
86016	0	0
88064	0	0
90112	0	0
92160	0	0
94208	0	0
96256	0	0
98304	0	0
100352	0	0
102400	0	0
104448	0	0
106496	0	0
108544	0	0
110592	0	0
112640	0	0
114688	0	0
116736	0	0
118784	0	0
120832	0	0
122880	0	0
124928	0	0
126976	0	0
129024	0	0
131072	0	0
135168	0	0
139264	0	0
143360	0	0
147456	0	0
151552	0	0
155648	0	0
159744	0	0
163840	0	0
167936	0	0
172032	0	0
176128	0	0
180224	0	0
184320	0	0
188416	0	0
192512	0	0
196608	0	0
200704	0	0
204800	0	0
208896	0	0
212992	0	0
217088	0	0
221184	0	0
225280	0	0
229376	0	0
233472	0	0
237568	0	0
241664	0	0
245760	0	0
249856	0	0
253952	0	0
258048	0	0
262144	0	0
270336	0	0
278528	0	0
286720	0	0
294912	0	0
303104	0	0
311296	0	0
319488	0	0
327680	0	0
335872	0	0
344064	0	0
352256	0	0
360448	0	0
368640	0	0
376832	0	0
385024	0	0
393216	0	0
401408	0	0
409600	0	0
417792	0	0
425984	0	0
434176	0	0
442368	0	0
450560	0	0
458752	0	0
466944	0	0
475136	0	0
483328	0	0
491520	0	0
499712	0	0
507904	0	0
516096	0	0
524288	0	0
540672	0	0
557056	0	0
573440	0	0
589824	0	0
606208	0	0
622592	0	0
638976	0	0
655360	0	0
671744	0	0
688128	0	0
704512	0	0
720896	0	0
737280	0	0
753664	0	0
770048	0	0
786432	0	0
802816	0	0
819200	0	0
835584	0	0
851968	0	0
868352	0	0
884736	0	0
901120	0	0
917504	0	0
933888	0	0
950272	0	0
966656	0	0
983040	0	0
999424	0	0
1015808	0	0
1032192	0	0
1048576	0	0
1081344	0	0
1114112	0	0
1146880	0	0
1179648	0	0
1212416	0	0
1245184	0	0
1277952	0	0
1310720	0	0
1343488	0	0
1376256	0	0
1409024	0	0
1441792	0	0
1474560	0	0
1507328	0	0
1540096	0	0
1572864	0	0
1605632	0	0
1638400	0	0
1671168	0	0
1703936	0	0
1736704	0	0
1769472	0	0
1802240	0	0
1835008	0	0
1867776	0	0
1900544	0	0
1933312	0	0
1966080	0	0
1998848	0	0
2031616	0	0
2064384	0	0
2097152	0	0
2162688	0	0
2228224	0	0
2293760	0	0
2359296	0	0
2424832	0	0
2490368	0	0
2555904	0	0
2621440	0	0
2686976	0	0
2752512	0	0
2818048	0	0
2883584	0	0
2949120	0	0
3014656	0	0
3080192	0	0
3145728	0	0
3211264	0	0
3276800	0	0
3342336	0	0
3407872	0	0
3473408	0	0
3538944	0	0
3604480	0	0
3670016	0	0
3735552	0	0
3801088	0	0
3866624	0	0
3932160	0	0
3997696	0	0
4063232	0	0
4128768	0	0
4194304	0	0
4325376	0	0
4456448	0	0
4587520	0	0
4718592	0	0
4849664	0	0
4980736	0	0
5111808	0	0
5242880	0	0
5373952	0	0
5505024	0	0
5636096	0	0
5767168	0	0
5898240	0	0
6029312	0	0
6160384	0	0
6291456	0	0
6422528	0	0
6553600	0	0
6684672	0	0
6815744	0	0
6946816	0	0
7077888	0	0
7208960	0	0
7340032	0	0
7471104	0	0
7602176	0	0
7733248	0	0
7864320	0	0
7995392	0	0
8126464	0	0
8257536	0	0
8388608	0	0
8650752	0	0
8912896	0	0
9175040	0	0
9437184	0	0
9699328	0	0
9961472	0	0
10223616	0	0
10485760	0	0
10747904	0	0
11010048	0	0
11272192	0	0
11534336	0	0
11796480	0	0
12058624	0	0
12320768	0	0
12582912	0	0
12845056	0	0
13107200	0	0
13369344	0	0
13631488	0	0
13893632	0	0
14155776	0	0
14417920	0	0
14680064	0	0
14942208	0	0
15204352	0	0
15466496	0	0
15728640	0	0
15990784	0	0
16252928	0	0
16515072	0	0
16777216	0	0
17301504	0	0
17825792	0	0
18350080	0	0
18874368	0	0
19398656	0	0
19922944	0	0
20447232	0	0
20971520	0	0
21495808	0	0
22020096	0	0
22544384	0	0
23068672	0	0
23592960	0	0
24117248	0	0
24641536	0	0
25165824	0	0
25690112	0	0
26214400	0	0
26738688	0	0
27262976	0	0
27787264	0	0
28311552	0	0
28835840	0	0
29360128	0	0
29884416	0	0
30408704	0	0
30932992	0	0
31457280	0	0
31981568	0	0
32505856	0	0
33030144	0	0
33554432	0	0
34603008	0	0
35651584	0	0
36700160	0	0
37748736	0	0
38797312	0	0
39845888	0	0
40894464	0	0
41943040	0	0
42991616	0	0
44040192	0	0
45088768	0	0
46137344	0	0
47185920	0	0
48234496	0	0
49283072	0	0
50331648	0	0
51380224	0	0
52428800	0	0
53477376	0	0
54525952	0	0
55574528	0	0
56623104	0	0
57671680	0	0
58720256	0	0
59768832	0	0
60817408	0	0
61865984	0	0
62914560	0	0
63963136	0	0
65011712	0	0
66060288	0	0
67108864	0	0
69206016	0	0
71303168	0	0
73400320	0	0
75497472	0	0
77594624	0	0
79691776	0	0
81788928	0	0
83886080	0	0
85983232	0	0
88080384	0	0
90177536	0	0
92274688	0	0
94371840	0	0
96468992	0	0
98566144	0	0
100663296	0	0
102760448	0	0
104857600	0	0
106954752	0	0
109051904	0	0
111149056	0	0
113246208	0	0
115343360	0	0
117440512	0	0
119537664	0	0
121634816	0	0
123731968	0	0
125829120	0	0
127926272	0	0
130023424	0	0
132120576	0	0
134217728	0	0
138412032	0	0
142606336	0	0
146800640	0	0
150994944	0	0
155189248	0	0
159383552	0	0
163577856	0	0
167772160	0	0
171966464	0	0
176160768	0	0
180355072	0	0
184549376	0	0
188743680	0	0
192937984	0	0
197132288	0	0
201326592	0	0
205520896	0	0
209715200	0	0
213909504	0	0
218103808	0	0
222298112	0	0
226492416	0	0
230686720	0	0
234881024	0	0
239075328	0	0
243269632	0	0
247463936	0	0
251658240	0	0
255852544	0	0
260046848	0	0
264241152	0	0
268435456	0	0
276824064	0	0
285212672	0	0
293601280	0	0
301989888	0	0
310378496	0	0
318767104	0	0
327155712	0	0
335544320	0	0
343932928	0	0
352321536	0	0
360710144	0	0
369098752	0	0
377487360	0	0
385875968	0	0
394264576	0	0
402653184	0	0
411041792	0	0
419430400	0	0
427819008	0	0
436207616	0	0
444596224	0	0
452984832	0	0
461373440	0	0
469762048	0	0
478150656	0	0
486539264	0	0
494927872	0	0
503316480	0	0
511705088	0	0
520093696	0	0
528482304	0	0
536870912	0	0
553648128	0	0
570425344	0	0
587202560	0	0
603979776	0	0
620756992	0	0
637534208	0	0
654311424	0	0
671088640	0	0
687865856	0	0
704643072	0	0
721420288	0	0
738197504	0	0
754974720	0	0
771751936	0	0
788529152	0	0
805306368	0	0
822083584	0	0
838860800	0	0
855638016	0	0
872415232	0	0
889192448	0	0
905969664	0	0
922746880	0	0
939524096	0	0
956301312	0	0
973078528	0	0
989855744	0	0
1006632960	0	0
1023410176	0	0
1040187392	0	0
1056964608	0	0
1073741824	0	0
1107296256	0	0
1140850688	0	0
1174405120	0	0
1207959552	0	0
1241513984	0	0
1275068416	0	0
1308622848	0	0
1342177280	0	0
1375731712	0	0
1409286144	0	0
1442840576	0	0
1476395008	0	0
1509949440	0	0
1543503872	0	0
1577058304	0	0
1610612736	0	0
1644167168	0	0
1677721600	0	0
1711276032	0	0
1744830464	0	0
1778384896	0	0
1811939328	0	0
1845493760	0	0
1879048192	0	0
1912602624	0	0
1946157056	0	0
1979711488	0	0
2013265920	0	0
2046820352	0	0
2080374784	0	0
2113929216	0	0
2147483648	0	0
2214592512	0	0
2281701376	0	0
2348810240	0	0
2415919104	0	0
2483027968	0	0
2550136832	0	0
2617245696	0	0
2684354560	0	0
2751463424	0	0
2818572288	0	0
2885681152	0	0
2952790016	0	0
3019898880	0	0
3087007744	0	0
3154116608	0	0
3221225472	0	0
3288334336	0	0
3355443200	0	0
3422552064	0	0
3489660928	0	0
3556769792	0	0
3623878656	0	0
3690987520	0	0
3758096384	0	0
3825205248	0	0
3892314112	0	0
3959422976	0	0
4026531840	0	0
4093640704	0	0
4160749568	0	0
4227858432	0	0
~~~~~~~~~~Reuse Distance Profiler output end~~~~~~~~~~

Sampler size:0

DRAM Statistics
 CHANNEL 0
 RQ ROW_BUFFER_HIT:     178590  ROW_BUFFER_MISS:     991079
 DBUS AVG_CONGESTED_CYCLE:     3.9721
 WQ ROW_BUFFER_HIT:     109589  ROW_BUFFER_MISS:     711723  FULL:          0


CPU 0 Branch Prediction Accuracy: 91.5769% MPKI: 12.5234 Average ROB Occupancy at Mispredict: 35.0382
Branch type MPKI
BRANCH_DIRECT_JUMP: 1.93333e-05
BRANCH_INDIRECT: 0
BRANCH_CONDITIONAL: 12.5233
BRANCH_DIRECT_CALL: 5.26667e-05
BRANCH_INDIRECT_CALL: 0
BRANCH_RETURN: 5.2e-05

