
*** ChampSim Multicore Out-of-Order Simulator ***

Warmup Instructions: 50000000
Simulation Instructions: 1500000000
Number of CPUs: 1
Off-chip DRAM Size: 4 GiB Channels: 1 Width: 64-bit Data Rate: 3200 MT/s

VirtualMemory physical capacity: 8588881920 num_ppages: 2096895
VirtualMemory page size: 4096 log2_page_size: 12

CPU 0 runs /s/traces/champsim_traces/403.gcc-48B.champsimtrace.xz
CPU 0 Bimodal branch predictor
Basic BTB sets: 1024 ways: 8 indirect buffer size: 4096 RAS size: 64
Initializing LRU.
Initializing LRU.
Initializing LRU.
Initializing LRU.
Initializing rdLRU.
Initializing LRU.
Initializing LRU.
Heartbeat CPU 0 instructions: 2000001 cycles: 500063 heartbeat IPC: 3.9995 cumulative IPC: 3.9995 (Simulation time: 0 hr 1 min 2 sec) 
Heartbeat CPU 0 instructions: 4000002 cycles: 1000074 heartbeat IPC: 3.99991 cumulative IPC: 3.99971 (Simulation time: 0 hr 2 min 2 sec) 
Heartbeat CPU 0 instructions: 6000002 cycles: 1500074 heartbeat IPC: 4 cumulative IPC: 3.9998 (Simulation time: 0 hr 3 min 0 sec) 
Heartbeat CPU 0 instructions: 8000002 cycles: 2000074 heartbeat IPC: 4 cumulative IPC: 3.99985 (Simulation time: 0 hr 3 min 54 sec) 
Heartbeat CPU 0 instructions: 10000003 cycles: 2500146 heartbeat IPC: 3.99943 cumulative IPC: 3.99977 (Simulation time: 0 hr 4 min 48 sec) 
Heartbeat CPU 0 instructions: 12000003 cycles: 3000146 heartbeat IPC: 4 cumulative IPC: 3.99981 (Simulation time: 0 hr 5 min 41 sec) 
Heartbeat CPU 0 instructions: 14000000 cycles: 3500153 heartbeat IPC: 3.99994 cumulative IPC: 3.99983 (Simulation time: 0 hr 6 min 36 sec) 
Heartbeat CPU 0 instructions: 16000001 cycles: 4000161 heartbeat IPC: 3.99994 cumulative IPC: 3.99984 (Simulation time: 0 hr 7 min 29 sec) 
Heartbeat CPU 0 instructions: 18000002 cycles: 4500169 heartbeat IPC: 3.99994 cumulative IPC: 3.99985 (Simulation time: 0 hr 8 min 25 sec) 
Heartbeat CPU 0 instructions: 20000003 cycles: 5000177 heartbeat IPC: 3.99994 cumulative IPC: 3.99986 (Simulation time: 0 hr 9 min 20 sec) 
Heartbeat CPU 0 instructions: 22000003 cycles: 5500177 heartbeat IPC: 4 cumulative IPC: 3.99987 (Simulation time: 0 hr 10 min 18 sec) 
Heartbeat CPU 0 instructions: 24000003 cycles: 6000185 heartbeat IPC: 3.99994 cumulative IPC: 3.99988 (Simulation time: 0 hr 11 min 15 sec) 
Heartbeat CPU 0 instructions: 26000003 cycles: 6500185 heartbeat IPC: 4 cumulative IPC: 3.99989 (Simulation time: 0 hr 12 min 11 sec) 
Heartbeat CPU 0 instructions: 28000003 cycles: 7000191 heartbeat IPC: 3.99995 cumulative IPC: 3.99989 (Simulation time: 0 hr 13 min 4 sec) 
Heartbeat CPU 0 instructions: 30000003 cycles: 7500258 heartbeat IPC: 3.99946 cumulative IPC: 3.99986 (Simulation time: 0 hr 14 min 0 sec) 
Heartbeat CPU 0 instructions: 32000000 cycles: 8000265 heartbeat IPC: 3.99994 cumulative IPC: 3.99987 (Simulation time: 0 hr 14 min 56 sec) 
Heartbeat CPU 0 instructions: 34000000 cycles: 8500265 heartbeat IPC: 4 cumulative IPC: 3.99988 (Simulation time: 0 hr 15 min 52 sec) 
Heartbeat CPU 0 instructions: 36000001 cycles: 9000273 heartbeat IPC: 3.99994 cumulative IPC: 3.99988 (Simulation time: 0 hr 16 min 46 sec) 
Heartbeat CPU 0 instructions: 38000002 cycles: 9500281 heartbeat IPC: 3.99994 cumulative IPC: 3.99988 (Simulation time: 0 hr 17 min 41 sec) 
Heartbeat CPU 0 instructions: 40000003 cycles: 10000289 heartbeat IPC: 3.99994 cumulative IPC: 3.99988 (Simulation time: 0 hr 18 min 37 sec) 
Heartbeat CPU 0 instructions: 42000002 cycles: 10500297 heartbeat IPC: 3.99993 cumulative IPC: 3.99989 (Simulation time: 0 hr 19 min 31 sec) 
Heartbeat CPU 0 instructions: 44000002 cycles: 11000297 heartbeat IPC: 4 cumulative IPC: 3.99989 (Simulation time: 0 hr 20 min 22 sec) 
Heartbeat CPU 0 instructions: 46000002 cycles: 11500297 heartbeat IPC: 4 cumulative IPC: 3.9999 (Simulation time: 0 hr 21 min 13 sec) 
Heartbeat CPU 0 instructions: 48000002 cycles: 12000297 heartbeat IPC: 4 cumulative IPC: 3.9999 (Simulation time: 0 hr 22 min 7 sec) 
Heartbeat CPU 0 instructions: 50000000 cycles: 12500367 heartbeat IPC: 3.99944 cumulative IPC: 3.99988 (Simulation time: 0 hr 23 min 3 sec) 

Warmup complete CPU 0 instructions: 50000004 cycles: 12500368 (Simulation time: 0 hr 23 min 3 sec) 

Heartbeat CPU 0 instructions: 52000003 cycles: 13839051 heartbeat IPC: 1.49401 cumulative IPC: 1.494 (Simulation time: 0 hr 24 min 44 sec) 

Region of Interest Statistics
cpu0_DTLB TOTAL     ACCESS:     474153  HIT:     473763  MISS:        390
cpu0_DTLB LOAD      ACCESS:     261424  HIT:     261046  MISS:        378
cpu0_DTLB RFO       ACCESS:     212729  HIT:     212717  MISS:         12
cpu0_DTLB PREFETCH  ACCESS:          0  HIT:          0  MISS:          0
cpu0_DTLB WRITEBACK ACCESS:          0  HIT:          0  MISS:          0
cpu0_ITLB TOTAL     ACCESS:     136466  HIT:     136466  MISS:          0
cpu0_ITLB LOAD      ACCESS:     136466  HIT:     136466  MISS:          0
cpu0_ITLB RFO       ACCESS:          0  HIT:          0  MISS:          0
cpu0_ITLB PREFETCH  ACCESS:          0  HIT:          0  MISS:          0
cpu0_ITLB WRITEBACK ACCESS:          0  HIT:          0  MISS:          0
cpu0_L1I TOTAL     ACCESS:     357110  HIT:     357110  MISS:          0
cpu0_L1I LOAD      ACCESS:     357110  HIT:     357110  MISS:          0
cpu0_L1I RFO       ACCESS:          0  HIT:          0  MISS:          0
cpu0_L1I PREFETCH  ACCESS:          0  HIT:          0  MISS:          0
cpu0_L1I WRITEBACK ACCESS:          0  HIT:          0  MISS:          0
cpu0_STLB TOTAL     ACCESS:        390  HIT:        355  MISS:         35
cpu0_STLB LOAD      ACCESS:        378  HIT:        344  MISS:         34
cpu0_STLB RFO       ACCESS:         12  HIT:         11  MISS:          1
cpu0_STLB PREFETCH  ACCESS:          0  HIT:          0  MISS:          0
cpu0_STLB WRITEBACK ACCESS:          0  HIT:          0  MISS:          0
cpu0_L1D TOTAL     ACCESS:     600867  HIT:     598914  MISS:       1953
cpu0_L1D LOAD      ACCESS:     266652  HIT:     264789  MISS:       1863
cpu0_L1D RFO       ACCESS:     334180  HIT:     334097  MISS:         83
cpu0_L1D PREFETCH  ACCESS:          0  HIT:          0  MISS:          0
cpu0_L1D WRITEBACK ACCESS:          0  HIT:          0  MISS:          0
cpu0_L2C TOTAL     ACCESS:       2163  HIT:       1647  MISS:        516
cpu0_L2C LOAD      ACCESS:       1863  HIT:       1423  MISS:        440
cpu0_L2C RFO       ACCESS:         83  HIT:          7  MISS:         76
cpu0_L2C PREFETCH  ACCESS:          0  HIT:          0  MISS:          0
cpu0_L2C WRITEBACK ACCESS:        210  HIT:        210  MISS:          0
LLC TOTAL     ACCESS:        697  HIT:        182  MISS:        515
LLC LOAD      ACCESS:        440  HIT:          1  MISS:        439
LLC RFO       ACCESS:         76  HIT:          0  MISS:         76
LLC PREFETCH  ACCESS:          0  HIT:          0  MISS:          0
LLC WRITEBACK ACCESS:        181  HIT:        181  MISS:          0
Heartbeat CPU 0 instructions: 54000001 cycles: 15183515 heartbeat IPC: 1.48758 cumulative IPC: 1.49079 (Simulation time: 0 hr 26 min 15 sec) 

Region of Interest Statistics
cpu0_DTLB TOTAL     ACCESS:     949464  HIT:     948779  MISS:        685
cpu0_DTLB LOAD      ACCESS:     524681  HIT:     524022  MISS:        659
cpu0_DTLB RFO       ACCESS:     424783  HIT:     424757  MISS:         26
cpu0_DTLB PREFETCH  ACCESS:          0  HIT:          0  MISS:          0
cpu0_DTLB WRITEBACK ACCESS:          0  HIT:          0  MISS:          0
cpu0_ITLB TOTAL     ACCESS:     271990  HIT:     271990  MISS:          0
cpu0_ITLB LOAD      ACCESS:     271990  HIT:     271990  MISS:          0
cpu0_ITLB RFO       ACCESS:          0  HIT:          0  MISS:          0
cpu0_ITLB PREFETCH  ACCESS:          0  HIT:          0  MISS:          0
cpu0_ITLB WRITEBACK ACCESS:          0  HIT:          0  MISS:          0
cpu0_L1I TOTAL     ACCESS:     714444  HIT:     714444  MISS:          0
cpu0_L1I LOAD      ACCESS:     714444  HIT:     714444  MISS:          0
cpu0_L1I RFO       ACCESS:          0  HIT:          0  MISS:          0
cpu0_L1I PREFETCH  ACCESS:          0  HIT:          0  MISS:          0
cpu0_L1I WRITEBACK ACCESS:          0  HIT:          0  MISS:          0
cpu0_STLB TOTAL     ACCESS:        685  HIT:        602  MISS:         83
cpu0_STLB LOAD      ACCESS:        659  HIT:        578  MISS:         81
cpu0_STLB RFO       ACCESS:         26  HIT:         24  MISS:          2
cpu0_STLB PREFETCH  ACCESS:          0  HIT:          0  MISS:          0
cpu0_STLB WRITEBACK ACCESS:          0  HIT:          0  MISS:          0
cpu0_L1D TOTAL     ACCESS:    1201538  HIT:    1197642  MISS:       3896
cpu0_L1D LOAD      ACCESS:     534332  HIT:     530604  MISS:       3728
cpu0_L1D RFO       ACCESS:     667123  HIT:     666968  MISS:        155
cpu0_L1D PREFETCH  ACCESS:          0  HIT:          0  MISS:          0
cpu0_L1D WRITEBACK ACCESS:          0  HIT:          0  MISS:          0
cpu0_L2C TOTAL     ACCESS:       4302  HIT:       3271  MISS:       1031
cpu0_L2C LOAD      ACCESS:       3728  HIT:       2837  MISS:        891
cpu0_L2C RFO       ACCESS:        155  HIT:         15  MISS:        140
cpu0_L2C PREFETCH  ACCESS:          0  HIT:          0  MISS:          0
cpu0_L2C WRITEBACK ACCESS:        406  HIT:        406  MISS:          0
LLC TOTAL     ACCESS:       1334  HIT:        306  MISS:       1028
LLC LOAD      ACCESS:        891  HIT:          3  MISS:        888
LLC RFO       ACCESS:        140  HIT:          0  MISS:        140
LLC PREFETCH  ACCESS:          0  HIT:          0  MISS:          0
LLC WRITEBACK ACCESS:        303  HIT:        303  MISS:          0
Heartbeat CPU 0 instructions: 56000002 cycles: 16539057 heartbeat IPC: 1.47543 cumulative IPC: 1.48563 (Simulation time: 0 hr 27 min 50 sec) 

Region of Interest Statistics
cpu0_DTLB TOTAL     ACCESS:    1423038  HIT:    1421720  MISS:       1318
cpu0_DTLB LOAD      ACCESS:     785554  HIT:     784282  MISS:       1272
cpu0_DTLB RFO       ACCESS:     637484  HIT:     637438  MISS:         46
cpu0_DTLB PREFETCH  ACCESS:          0  HIT:          0  MISS:          0
cpu0_DTLB WRITEBACK ACCESS:          0  HIT:          0  MISS:          0
cpu0_ITLB TOTAL     ACCESS:     409091  HIT:     409091  MISS:          0
cpu0_ITLB LOAD      ACCESS:     409091  HIT:     409091  MISS:          0
cpu0_ITLB RFO       ACCESS:          0  HIT:          0  MISS:          0
cpu0_ITLB PREFETCH  ACCESS:          0  HIT:          0  MISS:          0
cpu0_ITLB WRITEBACK ACCESS:          0  HIT:          0  MISS:          0
cpu0_L1I TOTAL     ACCESS:    1070073  HIT:    1070073  MISS:          0
cpu0_L1I LOAD      ACCESS:    1070073  HIT:    1070073  MISS:          0
cpu0_L1I RFO       ACCESS:          0  HIT:          0  MISS:          0
cpu0_L1I PREFETCH  ACCESS:          0  HIT:          0  MISS:          0
cpu0_L1I WRITEBACK ACCESS:          0  HIT:          0  MISS:          0
cpu0_STLB TOTAL     ACCESS:       1318  HIT:       1183  MISS:        135
cpu0_STLB LOAD      ACCESS:       1272  HIT:       1141  MISS:        131
cpu0_STLB RFO       ACCESS:         46  HIT:         42  MISS:          4
cpu0_STLB PREFETCH  ACCESS:          0  HIT:          0  MISS:          0
cpu0_STLB WRITEBACK ACCESS:          0  HIT:          0  MISS:          0
cpu0_L1D TOTAL     ACCESS:    1802439  HIT:    1796600  MISS:       5839
cpu0_L1D LOAD      ACCESS:     800790  HIT:     795220  MISS:       5570
cpu0_L1D RFO       ACCESS:    1001514  HIT:    1001268  MISS:        246
cpu0_L1D PREFETCH  ACCESS:          0  HIT:          0  MISS:          0
cpu0_L1D WRITEBACK ACCESS:          0  HIT:          0  MISS:          0
cpu0_L2C TOTAL     ACCESS:       6483  HIT:       4852  MISS:       1631
cpu0_L2C LOAD      ACCESS:       5570  HIT:       4165  MISS:       1405
cpu0_L2C RFO       ACCESS:        246  HIT:         21  MISS:        225
cpu0_L2C PREFETCH  ACCESS:          0  HIT:          0  MISS:          0
cpu0_L2C WRITEBACK ACCESS:        644  HIT:        643  MISS:          1
LLC TOTAL     ACCESS:       2110  HIT:        485  MISS:       1625
LLC LOAD      ACCESS:       1405  HIT:          5  MISS:       1400
LLC RFO       ACCESS:        225  HIT:          0  MISS:        225
LLC PREFETCH  ACCESS:          0  HIT:          0  MISS:          0
LLC WRITEBACK ACCESS:        480  HIT:        480  MISS:          0
Heartbeat CPU 0 instructions: 58000002 cycles: 17879747 heartbeat IPC: 1.49177 cumulative IPC: 1.48716 (Simulation time: 0 hr 29 min 30 sec) 

Region of Interest Statistics
cpu0_DTLB TOTAL     ACCESS:    1897701  HIT:    1895851  MISS:       1850
cpu0_DTLB LOAD      ACCESS:    1046841  HIT:    1045047  MISS:       1794
cpu0_DTLB RFO       ACCESS:     850860  HIT:     850804  MISS:         56
cpu0_DTLB PREFETCH  ACCESS:          0  HIT:          0  MISS:          0
cpu0_DTLB WRITEBACK ACCESS:          0  HIT:          0  MISS:          0
cpu0_ITLB TOTAL     ACCESS:     546072  HIT:     546072  MISS:          0
cpu0_ITLB LOAD      ACCESS:     546072  HIT:     546072  MISS:          0
cpu0_ITLB RFO       ACCESS:          0  HIT:          0  MISS:          0
cpu0_ITLB PREFETCH  ACCESS:          0  HIT:          0  MISS:          0
cpu0_ITLB WRITEBACK ACCESS:          0  HIT:          0  MISS:          0
cpu0_L1I TOTAL     ACCESS:    1427239  HIT:    1427239  MISS:          0
cpu0_L1I LOAD      ACCESS:    1427239  HIT:    1427239  MISS:          0
cpu0_L1I RFO       ACCESS:          0  HIT:          0  MISS:          0
cpu0_L1I PREFETCH  ACCESS:          0  HIT:          0  MISS:          0
cpu0_L1I WRITEBACK ACCESS:          0  HIT:          0  MISS:          0
cpu0_STLB TOTAL     ACCESS:       1850  HIT:       1674  MISS:        176
cpu0_STLB LOAD      ACCESS:       1794  HIT:       1623  MISS:        171
cpu0_STLB RFO       ACCESS:         56  HIT:         51  MISS:          5
cpu0_STLB PREFETCH  ACCESS:          0  HIT:          0  MISS:          0
cpu0_STLB WRITEBACK ACCESS:          0  HIT:          0  MISS:          0
cpu0_L1D TOTAL     ACCESS:    2404831  HIT:    2397162  MISS:       7669
cpu0_L1D LOAD      ACCESS:    1067950  HIT:    1060635  MISS:       7315
cpu0_L1D RFO       ACCESS:    1336705  HIT:    1336380  MISS:        325
cpu0_L1D PREFETCH  ACCESS:          0  HIT:          0  MISS:          0
cpu0_L1D WRITEBACK ACCESS:          0  HIT:          0  MISS:          0
cpu0_L2C TOTAL     ACCESS:       8511  HIT:       6362  MISS:       2149
cpu0_L2C LOAD      ACCESS:       7315  HIT:       5465  MISS:       1850
cpu0_L2C RFO       ACCESS:        325  HIT:         27  MISS:        298
cpu0_L2C PREFETCH  ACCESS:          0  HIT:          0  MISS:          0
cpu0_L2C WRITEBACK ACCESS:        842  HIT:        841  MISS:          1
LLC TOTAL     ACCESS:       2760  HIT:        619  MISS:       2141
LLC LOAD      ACCESS:       1850  HIT:          7  MISS:       1843
LLC RFO       ACCESS:        298  HIT:          0  MISS:        298
LLC PREFETCH  ACCESS:          0  HIT:          0  MISS:          0
LLC WRITEBACK ACCESS:        612  HIT:        612  MISS:          0
Heartbeat CPU 0 instructions: 60000000 cycles: 19209619 heartbeat IPC: 1.5039 cumulative IPC: 1.49048 (Simulation time: 0 hr 31 min 9 sec) 

Region of Interest Statistics
cpu0_DTLB TOTAL     ACCESS:    2370484  HIT:    2368376  MISS:       2108
cpu0_DTLB LOAD      ACCESS:    1305922  HIT:    1303875  MISS:       2047
cpu0_DTLB RFO       ACCESS:    1064562  HIT:    1064501  MISS:         61
cpu0_DTLB PREFETCH  ACCESS:          0  HIT:          0  MISS:          0
cpu0_DTLB WRITEBACK ACCESS:          0  HIT:          0  MISS:          0
cpu0_ITLB TOTAL     ACCESS:     680359  HIT:     680359  MISS:          0
cpu0_ITLB LOAD      ACCESS:     680359  HIT:     680359  MISS:          0
cpu0_ITLB RFO       ACCESS:          0  HIT:          0  MISS:          0
cpu0_ITLB PREFETCH  ACCESS:          0  HIT:          0  MISS:          0
cpu0_ITLB WRITEBACK ACCESS:          0  HIT:          0  MISS:          0
cpu0_L1I TOTAL     ACCESS:    1793628  HIT:    1793628  MISS:          0
cpu0_L1I LOAD      ACCESS:    1793628  HIT:    1793628  MISS:          0
cpu0_L1I RFO       ACCESS:          0  HIT:          0  MISS:          0
cpu0_L1I PREFETCH  ACCESS:          0  HIT:          0  MISS:          0
cpu0_L1I WRITEBACK ACCESS:          0  HIT:          0  MISS:          0
cpu0_STLB TOTAL     ACCESS:       2108  HIT:       1898  MISS:        210
cpu0_STLB LOAD      ACCESS:       2047  HIT:       1842  MISS:        205
cpu0_STLB RFO       ACCESS:         61  HIT:         56  MISS:          5
cpu0_STLB PREFETCH  ACCESS:          0  HIT:          0  MISS:          0
cpu0_STLB WRITEBACK ACCESS:          0  HIT:          0  MISS:          0
cpu0_L1D TOTAL     ACCESS:    3002696  HIT:    2993451  MISS:       9245
cpu0_L1D LOAD      ACCESS:    1329623  HIT:    1320776  MISS:       8847
cpu0_L1D RFO       ACCESS:    1672864  HIT:    1672499  MISS:        365
cpu0_L1D PREFETCH  ACCESS:          0  HIT:          0  MISS:          0
cpu0_L1D WRITEBACK ACCESS:          0  HIT:          0  MISS:          0
cpu0_L2C TOTAL     ACCESS:      10218  HIT:       7647  MISS:       2571
cpu0_L2C LOAD      ACCESS:       8847  HIT:       6614  MISS:       2233
cpu0_L2C RFO       ACCESS:        365  HIT:         28  MISS:        337
cpu0_L2C PREFETCH  ACCESS:          0  HIT:          0  MISS:          0
cpu0_L2C WRITEBACK ACCESS:        973  HIT:        972  MISS:          1
LLC TOTAL     ACCESS:       3302  HIT:        740  MISS:       2562
LLC LOAD      ACCESS:       2233  HIT:          9  MISS:       2224
LLC RFO       ACCESS:        337  HIT:          0  MISS:        337
LLC PREFETCH  ACCESS:          0  HIT:          0  MISS:          0
LLC WRITEBACK ACCESS:        732  HIT:        731  MISS:          1
Heartbeat CPU 0 instructions: 62000002 cycles: 20553809 heartbeat IPC: 1.48789 cumulative IPC: 1.49005 (Simulation time: 0 hr 32 min 42 sec) 

Region of Interest Statistics
cpu0_DTLB TOTAL     ACCESS:    2840770  HIT:    2838078  MISS:       2692
cpu0_DTLB LOAD      ACCESS:    1565006  HIT:    1562385  MISS:       2621
cpu0_DTLB RFO       ACCESS:    1275764  HIT:    1275693  MISS:         71
cpu0_DTLB PREFETCH  ACCESS:          0  HIT:          0  MISS:          0
cpu0_DTLB WRITEBACK ACCESS:          0  HIT:          0  MISS:          0
cpu0_ITLB TOTAL     ACCESS:     817684  HIT:     817684  MISS:          0
cpu0_ITLB LOAD      ACCESS:     817684  HIT:     817684  MISS:          0
cpu0_ITLB RFO       ACCESS:          0  HIT:          0  MISS:          0
cpu0_ITLB PREFETCH  ACCESS:          0  HIT:          0  MISS:          0
cpu0_ITLB WRITEBACK ACCESS:          0  HIT:          0  MISS:          0
cpu0_L1I TOTAL     ACCESS:    2147700  HIT:    2147700  MISS:          0
cpu0_L1I LOAD      ACCESS:    2147700  HIT:    2147700  MISS:          0
cpu0_L1I RFO       ACCESS:          0  HIT:          0  MISS:          0
cpu0_L1I PREFETCH  ACCESS:          0  HIT:          0  MISS:          0
cpu0_L1I WRITEBACK ACCESS:          0  HIT:          0  MISS:          0
cpu0_STLB TOTAL     ACCESS:       2692  HIT:       2442  MISS:        250
cpu0_STLB LOAD      ACCESS:       2621  HIT:       2378  MISS:        243
cpu0_STLB RFO       ACCESS:         71  HIT:         64  MISS:          7
cpu0_STLB PREFETCH  ACCESS:          0  HIT:          0  MISS:          0
cpu0_STLB WRITEBACK ACCESS:          0  HIT:          0  MISS:          0
cpu0_L1D TOTAL     ACCESS:    3599272  HIT:    3588266  MISS:      11006
cpu0_L1D LOAD      ACCESS:    1593783  HIT:    1583285  MISS:      10498
cpu0_L1D RFO       ACCESS:    2005240  HIT:    2004773  MISS:        467
cpu0_L1D PREFETCH  ACCESS:          0  HIT:          0  MISS:          0
cpu0_L1D WRITEBACK ACCESS:          0  HIT:          0  MISS:          0
cpu0_L2C TOTAL     ACCESS:      12196  HIT:       9082  MISS:       3114
cpu0_L2C LOAD      ACCESS:      10498  HIT:       7811  MISS:       2687
cpu0_L2C RFO       ACCESS:        467  HIT:         41  MISS:        426
cpu0_L2C PREFETCH  ACCESS:          0  HIT:          0  MISS:          0
cpu0_L2C WRITEBACK ACCESS:       1190  HIT:       1189  MISS:          1
LLC TOTAL     ACCESS:       3982  HIT:        876  MISS:       3106
LLC LOAD      ACCESS:       2687  HIT:         10  MISS:       2677
LLC RFO       ACCESS:        426  HIT:          0  MISS:        426
LLC PREFETCH  ACCESS:          0  HIT:          0  MISS:          0
LLC WRITEBACK ACCESS:        869  HIT:        866  MISS:          3
Heartbeat CPU 0 instructions: 64000002 cycles: 21895157 heartbeat IPC: 1.49104 cumulative IPC: 1.49019 (Simulation time: 0 hr 34 min 15 sec) 

Region of Interest Statistics
cpu0_DTLB TOTAL     ACCESS:    3313147  HIT:    3310087  MISS:       3060
cpu0_DTLB LOAD      ACCESS:    1825488  HIT:    1822506  MISS:       2982
cpu0_DTLB RFO       ACCESS:    1487659  HIT:    1487581  MISS:         78
cpu0_DTLB PREFETCH  ACCESS:          0  HIT:          0  MISS:          0
cpu0_DTLB WRITEBACK ACCESS:          0  HIT:          0  MISS:          0
cpu0_ITLB TOTAL     ACCESS:     952402  HIT:     952402  MISS:          0
cpu0_ITLB LOAD      ACCESS:     952402  HIT:     952402  MISS:          0
cpu0_ITLB RFO       ACCESS:          0  HIT:          0  MISS:          0
cpu0_ITLB PREFETCH  ACCESS:          0  HIT:          0  MISS:          0
cpu0_ITLB WRITEBACK ACCESS:          0  HIT:          0  MISS:          0
cpu0_L1I TOTAL     ACCESS:    2507906  HIT:    2507905  MISS:          1
cpu0_L1I LOAD      ACCESS:    2507906  HIT:    2507905  MISS:          1
cpu0_L1I RFO       ACCESS:          0  HIT:          0  MISS:          0
cpu0_L1I PREFETCH  ACCESS:          0  HIT:          0  MISS:          0
cpu0_L1I WRITEBACK ACCESS:          0  HIT:          0  MISS:          0
cpu0_STLB TOTAL     ACCESS:       3060  HIT:       2782  MISS:        278
cpu0_STLB LOAD      ACCESS:       2982  HIT:       2711  MISS:        271
cpu0_STLB RFO       ACCESS:         78  HIT:         71  MISS:          7
cpu0_STLB PREFETCH  ACCESS:          0  HIT:          0  MISS:          0
cpu0_STLB WRITEBACK ACCESS:          0  HIT:          0  MISS:          0
cpu0_L1D TOTAL     ACCESS:    4197958  HIT:    4185387  MISS:      12571
cpu0_L1D LOAD      ACCESS:    1858957  HIT:    1846948  MISS:      12009
cpu0_L1D RFO       ACCESS:    2338724  HIT:    2338209  MISS:        515
cpu0_L1D PREFETCH  ACCESS:          0  HIT:          0  MISS:          0
cpu0_L1D WRITEBACK ACCESS:          0  HIT:          0  MISS:          0
cpu0_L2C TOTAL     ACCESS:      13932  HIT:      10384  MISS:       3548
cpu0_L2C LOAD      ACCESS:      12010  HIT:       8934  MISS:       3076
cpu0_L2C RFO       ACCESS:        515  HIT:         45  MISS:        470
cpu0_L2C PREFETCH  ACCESS:          0  HIT:          0  MISS:          0
cpu0_L2C WRITEBACK ACCESS:       1360  HIT:       1358  MISS:          2
LLC TOTAL     ACCESS:       4509  HIT:        971  MISS:       3538
LLC LOAD      ACCESS:       3076  HIT:         13  MISS:       3063
LLC RFO       ACCESS:        470  HIT:          0  MISS:        470
LLC PREFETCH  ACCESS:          0  HIT:          0  MISS:          0
LLC WRITEBACK ACCESS:        963  HIT:        958  MISS:          5
Heartbeat CPU 0 instructions: 66000000 cycles: 23241063 heartbeat IPC: 1.48599 cumulative IPC: 1.48966 (Simulation time: 0 hr 35 min 42 sec) 

Region of Interest Statistics
cpu0_DTLB TOTAL     ACCESS:    3784231  HIT:    3780654  MISS:       3577
cpu0_DTLB LOAD      ACCESS:    2084942  HIT:    2081458  MISS:       3484
cpu0_DTLB RFO       ACCESS:    1699289  HIT:    1699196  MISS:         93
cpu0_DTLB PREFETCH  ACCESS:          0  HIT:          0  MISS:          0
cpu0_DTLB WRITEBACK ACCESS:          0  HIT:          0  MISS:          0
cpu0_ITLB TOTAL     ACCESS:    1088415  HIT:    1088415  MISS:          0
cpu0_ITLB LOAD      ACCESS:    1088415  HIT:    1088415  MISS:          0
cpu0_ITLB RFO       ACCESS:          0  HIT:          0  MISS:          0
cpu0_ITLB PREFETCH  ACCESS:          0  HIT:          0  MISS:          0
cpu0_ITLB WRITEBACK ACCESS:          0  HIT:          0  MISS:          0
cpu0_L1I TOTAL     ACCESS:    2865783  HIT:    2865782  MISS:          1
cpu0_L1I LOAD      ACCESS:    2865783  HIT:    2865782  MISS:          1
cpu0_L1I RFO       ACCESS:          0  HIT:          0  MISS:          0
cpu0_L1I PREFETCH  ACCESS:          0  HIT:          0  MISS:          0
cpu0_L1I WRITEBACK ACCESS:          0  HIT:          0  MISS:          0
cpu0_STLB TOTAL     ACCESS:       3577  HIT:       3248  MISS:        329
cpu0_STLB LOAD      ACCESS:       3484  HIT:       3164  MISS:        320
cpu0_STLB RFO       ACCESS:         93  HIT:         84  MISS:          9
cpu0_STLB PREFETCH  ACCESS:          0  HIT:          0  MISS:          0
cpu0_STLB WRITEBACK ACCESS:          0  HIT:          0  MISS:          0
cpu0_L1D TOTAL     ACCESS:    4794229  HIT:    4779914  MISS:      14315
cpu0_L1D LOAD      ACCESS:    2122195  HIT:    2108529  MISS:      13666
cpu0_L1D RFO       ACCESS:    2671706  HIT:    2671113  MISS:        593
cpu0_L1D PREFETCH  ACCESS:          0  HIT:          0  MISS:          0
cpu0_L1D WRITEBACK ACCESS:          0  HIT:          0  MISS:          0
cpu0_L2C TOTAL     ACCESS:      15873  HIT:      11816  MISS:       4057
cpu0_L2C LOAD      ACCESS:      13667  HIT:      10155  MISS:       3512
cpu0_L2C RFO       ACCESS:        593  HIT:         50  MISS:        543
cpu0_L2C PREFETCH  ACCESS:          0  HIT:          0  MISS:          0
cpu0_L2C WRITEBACK ACCESS:       1557  HIT:       1555  MISS:          2
LLC TOTAL     ACCESS:       5145  HIT:       1096  MISS:       4049
LLC LOAD      ACCESS:       3512  HIT:         13  MISS:       3499
LLC RFO       ACCESS:        543  HIT:          0  MISS:        543
LLC PREFETCH  ACCESS:          0  HIT:          0  MISS:          0
LLC WRITEBACK ACCESS:       1090  HIT:       1083  MISS:          7
Heartbeat CPU 0 instructions: 68000000 cycles: 24563188 heartbeat IPC: 1.51272 cumulative IPC: 1.49219 (Simulation time: 0 hr 37 min 18 sec) 

Region of Interest Statistics
cpu0_DTLB TOTAL     ACCESS:    4258228  HIT:    4254159  MISS:       4069
cpu0_DTLB LOAD      ACCESS:    2346981  HIT:    2343010  MISS:       3971
cpu0_DTLB RFO       ACCESS:    1911247  HIT:    1911149  MISS:         98
cpu0_DTLB PREFETCH  ACCESS:          0  HIT:          0  MISS:          0
cpu0_DTLB WRITEBACK ACCESS:          0  HIT:          0  MISS:          0
cpu0_ITLB TOTAL     ACCESS:    1224493  HIT:    1224493  MISS:          0
cpu0_ITLB LOAD      ACCESS:    1224493  HIT:    1224493  MISS:          0
cpu0_ITLB RFO       ACCESS:          0  HIT:          0  MISS:          0
cpu0_ITLB PREFETCH  ACCESS:          0  HIT:          0  MISS:          0
cpu0_ITLB WRITEBACK ACCESS:          0  HIT:          0  MISS:          0
cpu0_L1I TOTAL     ACCESS:    3224678  HIT:    3224677  MISS:          1
cpu0_L1I LOAD      ACCESS:    3224678  HIT:    3224677  MISS:          1
cpu0_L1I RFO       ACCESS:          0  HIT:          0  MISS:          0
cpu0_L1I PREFETCH  ACCESS:          0  HIT:          0  MISS:          0
cpu0_L1I WRITEBACK ACCESS:          0  HIT:          0  MISS:          0
cpu0_STLB TOTAL     ACCESS:       4069  HIT:       3707  MISS:        362
cpu0_STLB LOAD      ACCESS:       3971  HIT:       3619  MISS:        352
cpu0_STLB RFO       ACCESS:         98  HIT:         88  MISS:         10
cpu0_STLB PREFETCH  ACCESS:          0  HIT:          0  MISS:          0
cpu0_STLB WRITEBACK ACCESS:          0  HIT:          0  MISS:          0
cpu0_L1D TOTAL     ACCESS:    5387463  HIT:    5371356  MISS:      16107
cpu0_L1D LOAD      ACCESS:    2381245  HIT:    2365863  MISS:      15382
cpu0_L1D RFO       ACCESS:    3005857  HIT:    3005195  MISS:        662
cpu0_L1D PREFETCH  ACCESS:          0  HIT:          0  MISS:          0
cpu0_L1D WRITEBACK ACCESS:          0  HIT:          0  MISS:          0
cpu0_L2C TOTAL     ACCESS:      17848  HIT:      13294  MISS:       4554
cpu0_L2C LOAD      ACCESS:      15383  HIT:      11438  MISS:       3945
cpu0_L2C RFO       ACCESS:        662  HIT:         55  MISS:        607
cpu0_L2C PREFETCH  ACCESS:          0  HIT:          0  MISS:          0
cpu0_L2C WRITEBACK ACCESS:       1740  HIT:       1738  MISS:          2
LLC TOTAL     ACCESS:       5777  HIT:       1231  MISS:       4546
LLC LOAD      ACCESS:       3945  HIT:         14  MISS:       3931
LLC RFO       ACCESS:        607  HIT:          0  MISS:        607
LLC PREFETCH  ACCESS:          0  HIT:          0  MISS:          0
LLC WRITEBACK ACCESS:       1225  HIT:       1217  MISS:          8
Heartbeat CPU 0 instructions: 70000002 cycles: 25908578 heartbeat IPC: 1.48656 cumulative IPC: 1.49162 (Simulation time: 0 hr 38 min 59 sec) 

Region of Interest Statistics
cpu0_DTLB TOTAL     ACCESS:    4729120  HIT:    4724536  MISS:       4584
cpu0_DTLB LOAD      ACCESS:    2605865  HIT:    2601383  MISS:       4482
cpu0_DTLB RFO       ACCESS:    2123255  HIT:    2123153  MISS:        102
cpu0_DTLB PREFETCH  ACCESS:          0  HIT:          0  MISS:          0
cpu0_DTLB WRITEBACK ACCESS:          0  HIT:          0  MISS:          0
cpu0_ITLB TOTAL     ACCESS:    1361006  HIT:    1361006  MISS:          0
cpu0_ITLB LOAD      ACCESS:    1361006  HIT:    1361006  MISS:          0
cpu0_ITLB RFO       ACCESS:          0  HIT:          0  MISS:          0
cpu0_ITLB PREFETCH  ACCESS:          0  HIT:          0  MISS:          0
cpu0_ITLB WRITEBACK ACCESS:          0  HIT:          0  MISS:          0
cpu0_L1I TOTAL     ACCESS:    3582373  HIT:    3582372  MISS:          1
cpu0_L1I LOAD      ACCESS:    3582373  HIT:    3582372  MISS:          1
cpu0_L1I RFO       ACCESS:          0  HIT:          0  MISS:          0
cpu0_L1I PREFETCH  ACCESS:          0  HIT:          0  MISS:          0
cpu0_L1I WRITEBACK ACCESS:          0  HIT:          0  MISS:          0
cpu0_STLB TOTAL     ACCESS:       4584  HIT:       4173  MISS:        411
cpu0_STLB LOAD      ACCESS:       4482  HIT:       4082  MISS:        400
cpu0_STLB RFO       ACCESS:        102  HIT:         91  MISS:         11
cpu0_STLB PREFETCH  ACCESS:          0  HIT:          0  MISS:          0
cpu0_STLB WRITEBACK ACCESS:          0  HIT:          0  MISS:          0
cpu0_L1D TOTAL     ACCESS:    5984001  HIT:    5966111  MISS:      17890
cpu0_L1D LOAD      ACCESS:    2644206  HIT:    2627136  MISS:      17070
cpu0_L1D RFO       ACCESS:    3339385  HIT:    3338641  MISS:        744
cpu0_L1D PREFETCH  ACCESS:          0  HIT:          0  MISS:          0
cpu0_L1D WRITEBACK ACCESS:          0  HIT:          0  MISS:          0
cpu0_L2C TOTAL     ACCESS:      19832  HIT:      14736  MISS:       5096
cpu0_L2C LOAD      ACCESS:      17071  HIT:      12661  MISS:       4410
cpu0_L2C RFO       ACCESS:        744  HIT:         60  MISS:        684
cpu0_L2C PREFETCH  ACCESS:          0  HIT:          0  MISS:          0
cpu0_L2C WRITEBACK ACCESS:       1941  HIT:       1939  MISS:          2
LLC TOTAL     ACCESS:       6492  HIT:       1406  MISS:       5086
LLC LOAD      ACCESS:       4410  HIT:         18  MISS:       4392
LLC RFO       ACCESS:        684  HIT:          0  MISS:        684
LLC PREFETCH  ACCESS:          0  HIT:          0  MISS:          0
LLC WRITEBACK ACCESS:       1398  HIT:       1388  MISS:         10
Heartbeat CPU 0 instructions: 72000002 cycles: 27235259 heartbeat IPC: 1.50752 cumulative IPC: 1.49305 (Simulation time: 0 hr 40 min 36 sec) 

Region of Interest Statistics
cpu0_DTLB TOTAL     ACCESS:    5200699  HIT:    5195898  MISS:       4801
cpu0_DTLB LOAD      ACCESS:    2864907  HIT:    2860210  MISS:       4697
cpu0_DTLB RFO       ACCESS:    2335792  HIT:    2335688  MISS:        104
cpu0_DTLB PREFETCH  ACCESS:          0  HIT:          0  MISS:          0
cpu0_DTLB WRITEBACK ACCESS:          0  HIT:          0  MISS:          0
cpu0_ITLB TOTAL     ACCESS:    1494765  HIT:    1494765  MISS:          0
cpu0_ITLB LOAD      ACCESS:    1494765  HIT:    1494765  MISS:          0
cpu0_ITLB RFO       ACCESS:          0  HIT:          0  MISS:          0
cpu0_ITLB PREFETCH  ACCESS:          0  HIT:          0  MISS:          0
cpu0_ITLB WRITEBACK ACCESS:          0  HIT:          0  MISS:          0
cpu0_L1I TOTAL     ACCESS:    3947120  HIT:    3947119  MISS:          1
cpu0_L1I LOAD      ACCESS:    3947120  HIT:    3947119  MISS:          1
cpu0_L1I RFO       ACCESS:          0  HIT:          0  MISS:          0
cpu0_L1I PREFETCH  ACCESS:          0  HIT:          0  MISS:          0
cpu0_L1I WRITEBACK ACCESS:          0  HIT:          0  MISS:          0
cpu0_STLB TOTAL     ACCESS:       4801  HIT:       4369  MISS:        432
cpu0_STLB LOAD      ACCESS:       4697  HIT:       4276  MISS:        421
cpu0_STLB RFO       ACCESS:        104  HIT:         93  MISS:         11
cpu0_STLB PREFETCH  ACCESS:          0  HIT:          0  MISS:          0
cpu0_STLB WRITEBACK ACCESS:          0  HIT:          0  MISS:          0
cpu0_L1D TOTAL     ACCESS:    6581291  HIT:    6561905  MISS:      19386
cpu0_L1D LOAD      ACCESS:    2907144  HIT:    2888624  MISS:      18520
cpu0_L1D RFO       ACCESS:    3673716  HIT:    3672929  MISS:        787
cpu0_L1D PREFETCH  ACCESS:          0  HIT:          0  MISS:          0
cpu0_L1D WRITEBACK ACCESS:          0  HIT:          0  MISS:          0
cpu0_L2C TOTAL     ACCESS:      21448  HIT:      15969  MISS:       5479
cpu0_L2C LOAD      ACCESS:      18521  HIT:      13769  MISS:       4752
cpu0_L2C RFO       ACCESS:        787  HIT:         62  MISS:        725
cpu0_L2C PREFETCH  ACCESS:          0  HIT:          0  MISS:          0
cpu0_L2C WRITEBACK ACCESS:       2061  HIT:       2059  MISS:          2
LLC TOTAL     ACCESS:       6987  HIT:       1518  MISS:       5469
LLC LOAD      ACCESS:       4752  HIT:         19  MISS:       4733
LLC RFO       ACCESS:        725  HIT:          0  MISS:        725
LLC PREFETCH  ACCESS:          0  HIT:          0  MISS:          0
LLC WRITEBACK ACCESS:       1510  HIT:       1499  MISS:         11
Heartbeat CPU 0 instructions: 74000002 cycles: 28575227 heartbeat IPC: 1.49257 cumulative IPC: 1.49301 (Simulation time: 0 hr 42 min 10 sec) 

Region of Interest Statistics
cpu0_DTLB TOTAL     ACCESS:    5670308  HIT:    5665126  MISS:       5182
cpu0_DTLB LOAD      ACCESS:    3122635  HIT:    3117564  MISS:       5071
cpu0_DTLB RFO       ACCESS:    2547673  HIT:    2547562  MISS:        111
cpu0_DTLB PREFETCH  ACCESS:          0  HIT:          0  MISS:          0
cpu0_DTLB WRITEBACK ACCESS:          0  HIT:          0  MISS:          0
cpu0_ITLB TOTAL     ACCESS:    1629767  HIT:    1629767  MISS:          0
cpu0_ITLB LOAD      ACCESS:    1629767  HIT:    1629767  MISS:          0
cpu0_ITLB RFO       ACCESS:          0  HIT:          0  MISS:          0
cpu0_ITLB PREFETCH  ACCESS:          0  HIT:          0  MISS:          0
cpu0_ITLB WRITEBACK ACCESS:          0  HIT:          0  MISS:          0
cpu0_L1I TOTAL     ACCESS:    4307777  HIT:    4307776  MISS:          1
cpu0_L1I LOAD      ACCESS:    4307777  HIT:    4307776  MISS:          1
cpu0_L1I RFO       ACCESS:          0  HIT:          0  MISS:          0
cpu0_L1I PREFETCH  ACCESS:          0  HIT:          0  MISS:          0
cpu0_L1I WRITEBACK ACCESS:          0  HIT:          0  MISS:          0
cpu0_STLB TOTAL     ACCESS:       5182  HIT:       4702  MISS:        480
cpu0_STLB LOAD      ACCESS:       5071  HIT:       4604  MISS:        467
cpu0_STLB RFO       ACCESS:        111  HIT:         98  MISS:         13
cpu0_STLB PREFETCH  ACCESS:          0  HIT:          0  MISS:          0
cpu0_STLB WRITEBACK ACCESS:          0  HIT:          0  MISS:          0
cpu0_L1D TOTAL     ACCESS:    7176641  HIT:    7155497  MISS:      21144
cpu0_L1D LOAD      ACCESS:    3169297  HIT:    3149108  MISS:      20189
cpu0_L1D RFO       ACCESS:    4006865  HIT:    4005994  MISS:        871
cpu0_L1D PREFETCH  ACCESS:          0  HIT:          0  MISS:          0
cpu0_L1D WRITEBACK ACCESS:          0  HIT:          0  MISS:          0
cpu0_L2C TOTAL     ACCESS:      23387  HIT:      17416  MISS:       5971
cpu0_L2C LOAD      ACCESS:      20190  HIT:      15024  MISS:       5166
cpu0_L2C RFO       ACCESS:        871  HIT:         68  MISS:        803
cpu0_L2C PREFETCH  ACCESS:          0  HIT:          0  MISS:          0
cpu0_L2C WRITEBACK ACCESS:       2242  HIT:       2240  MISS:          2
LLC TOTAL     ACCESS:       7642  HIT:       1684  MISS:       5958
LLC LOAD      ACCESS:       5166  HIT:         23  MISS:       5143
LLC RFO       ACCESS:        803  HIT:          0  MISS:        803
LLC PREFETCH  ACCESS:          0  HIT:          0  MISS:          0
LLC WRITEBACK ACCESS:       1673  HIT:       1661  MISS:         12
Heartbeat CPU 0 instructions: 76000000 cycles: 29922963 heartbeat IPC: 1.48397 cumulative IPC: 1.49231 (Simulation time: 0 hr 43 min 45 sec) 

Region of Interest Statistics
cpu0_DTLB TOTAL     ACCESS:    6141956  HIT:    6136473  MISS:       5483
cpu0_DTLB LOAD      ACCESS:    3383852  HIT:    3378487  MISS:       5365
cpu0_DTLB RFO       ACCESS:    2758104  HIT:    2757986  MISS:        118
cpu0_DTLB PREFETCH  ACCESS:          0  HIT:          0  MISS:          0
cpu0_DTLB WRITEBACK ACCESS:          0  HIT:          0  MISS:          0
cpu0_ITLB TOTAL     ACCESS:    1764539  HIT:    1764539  MISS:          0
cpu0_ITLB LOAD      ACCESS:    1764539  HIT:    1764539  MISS:          0
cpu0_ITLB RFO       ACCESS:          0  HIT:          0  MISS:          0
cpu0_ITLB PREFETCH  ACCESS:          0  HIT:          0  MISS:          0
cpu0_ITLB WRITEBACK ACCESS:          0  HIT:          0  MISS:          0
cpu0_L1I TOTAL     ACCESS:    4663340  HIT:    4663339  MISS:          1
cpu0_L1I LOAD      ACCESS:    4663340  HIT:    4663339  MISS:          1
cpu0_L1I RFO       ACCESS:          0  HIT:          0  MISS:          0
cpu0_L1I PREFETCH  ACCESS:          0  HIT:          0  MISS:          0
cpu0_L1I WRITEBACK ACCESS:          0  HIT:          0  MISS:          0
cpu0_STLB TOTAL     ACCESS:       5483  HIT:       4965  MISS:        518
cpu0_STLB LOAD      ACCESS:       5365  HIT:       4861  MISS:        504
cpu0_STLB RFO       ACCESS:        118  HIT:        104  MISS:         14
cpu0_STLB PREFETCH  ACCESS:          0  HIT:          0  MISS:          0
cpu0_STLB WRITEBACK ACCESS:          0  HIT:          0  MISS:          0
cpu0_L1D TOTAL     ACCESS:    7774100  HIT:    7751334  MISS:      22766
cpu0_L1D LOAD      ACCESS:    3435820  HIT:    3414078  MISS:      21742
cpu0_L1D RFO       ACCESS:    4337763  HIT:    4336832  MISS:        931
cpu0_L1D PREFETCH  ACCESS:          0  HIT:          0  MISS:          0
cpu0_L1D WRITEBACK ACCESS:          0  HIT:          0  MISS:          0
cpu0_L2C TOTAL     ACCESS:      25189  HIT:      18774  MISS:       6415
cpu0_L2C LOAD      ACCESS:      21743  HIT:      16188  MISS:       5555
cpu0_L2C RFO       ACCESS:        931  HIT:         73  MISS:        858
cpu0_L2C PREFETCH  ACCESS:          0  HIT:          0  MISS:          0
cpu0_L2C WRITEBACK ACCESS:       2422  HIT:       2420  MISS:          2
LLC TOTAL     ACCESS:       8212  HIT:       1812  MISS:       6400
LLC LOAD      ACCESS:       5555  HIT:         25  MISS:       5530
LLC RFO       ACCESS:        858  HIT:          0  MISS:        858
LLC PREFETCH  ACCESS:          0  HIT:          0  MISS:          0
LLC WRITEBACK ACCESS:       1799  HIT:       1787  MISS:         12
Heartbeat CPU 0 instructions: 78000003 cycles: 31252170 heartbeat IPC: 1.50466 cumulative IPC: 1.49319 (Simulation time: 0 hr 45 min 21 sec) 

Region of Interest Statistics
cpu0_DTLB TOTAL     ACCESS:    6616335  HIT:    6610614  MISS:       5721
cpu0_DTLB LOAD      ACCESS:    3643455  HIT:    3637852  MISS:       5603
cpu0_DTLB RFO       ACCESS:    2972880  HIT:    2972762  MISS:        118
cpu0_DTLB PREFETCH  ACCESS:          0  HIT:          0  MISS:          0
cpu0_DTLB WRITEBACK ACCESS:          0  HIT:          0  MISS:          0
cpu0_ITLB TOTAL     ACCESS:    1899558  HIT:    1899558  MISS:          0
cpu0_ITLB LOAD      ACCESS:    1899558  HIT:    1899558  MISS:          0
cpu0_ITLB RFO       ACCESS:          0  HIT:          0  MISS:          0
cpu0_ITLB PREFETCH  ACCESS:          0  HIT:          0  MISS:          0
cpu0_ITLB WRITEBACK ACCESS:          0  HIT:          0  MISS:          0
cpu0_L1I TOTAL     ACCESS:    5029324  HIT:    5029323  MISS:          1
cpu0_L1I LOAD      ACCESS:    5029324  HIT:    5029323  MISS:          1
cpu0_L1I RFO       ACCESS:          0  HIT:          0  MISS:          0
cpu0_L1I PREFETCH  ACCESS:          0  HIT:          0  MISS:          0
cpu0_L1I WRITEBACK ACCESS:          0  HIT:          0  MISS:          0
cpu0_STLB TOTAL     ACCESS:       5721  HIT:       5176  MISS:        545
cpu0_STLB LOAD      ACCESS:       5603  HIT:       5072  MISS:        531
cpu0_STLB RFO       ACCESS:        118  HIT:        104  MISS:         14
cpu0_STLB PREFETCH  ACCESS:          0  HIT:          0  MISS:          0
cpu0_STLB WRITEBACK ACCESS:          0  HIT:          0  MISS:          0
cpu0_L1D TOTAL     ACCESS:    8375504  HIT:    8351122  MISS:      24382
cpu0_L1D LOAD      ACCESS:    3699983  HIT:    3676677  MISS:      23306
cpu0_L1D RFO       ACCESS:    4674977  HIT:    4674001  MISS:        976
cpu0_L1D PREFETCH  ACCESS:          0  HIT:          0  MISS:          0
cpu0_L1D WRITEBACK ACCESS:          0  HIT:          0  MISS:          0
cpu0_L2C TOTAL     ACCESS:      26955  HIT:      20110  MISS:       6845
cpu0_L2C LOAD      ACCESS:      23307  HIT:      17367  MISS:       5940
cpu0_L2C RFO       ACCESS:        976  HIT:         73  MISS:        903
cpu0_L2C PREFETCH  ACCESS:          0  HIT:          0  MISS:          0
cpu0_L2C WRITEBACK ACCESS:       2572  HIT:       2570  MISS:          2
LLC TOTAL     ACCESS:       8769  HIT:       1939  MISS:       6830
LLC LOAD      ACCESS:       5940  HIT:         27  MISS:       5913
LLC RFO       ACCESS:        903  HIT:          0  MISS:        903
LLC PREFETCH  ACCESS:          0  HIT:          0  MISS:          0
LLC WRITEBACK ACCESS:       1926  HIT:       1912  MISS:         14
Heartbeat CPU 0 instructions: 80000003 cycles: 32590289 heartbeat IPC: 1.49464 cumulative IPC: 1.49329 (Simulation time: 0 hr 46 min 59 sec) 

Region of Interest Statistics
cpu0_DTLB TOTAL     ACCESS:    7089031  HIT:    7082862  MISS:       6169
cpu0_DTLB LOAD      ACCESS:    3903101  HIT:    3897054  MISS:       6047
cpu0_DTLB RFO       ACCESS:    3185930  HIT:    3185808  MISS:        122
cpu0_DTLB PREFETCH  ACCESS:          0  HIT:          0  MISS:          0
cpu0_DTLB WRITEBACK ACCESS:          0  HIT:          0  MISS:          0
cpu0_ITLB TOTAL     ACCESS:    2035031  HIT:    2035031  MISS:          0
cpu0_ITLB LOAD      ACCESS:    2035031  HIT:    2035031  MISS:          0
cpu0_ITLB RFO       ACCESS:          0  HIT:          0  MISS:          0
cpu0_ITLB PREFETCH  ACCESS:          0  HIT:          0  MISS:          0
cpu0_ITLB WRITEBACK ACCESS:          0  HIT:          0  MISS:          0
cpu0_L1I TOTAL     ACCESS:    5389997  HIT:    5389996  MISS:          1
cpu0_L1I LOAD      ACCESS:    5389997  HIT:    5389996  MISS:          1
cpu0_L1I RFO       ACCESS:          0  HIT:          0  MISS:          0
cpu0_L1I PREFETCH  ACCESS:          0  HIT:          0  MISS:          0
cpu0_L1I WRITEBACK ACCESS:          0  HIT:          0  MISS:          0
cpu0_STLB TOTAL     ACCESS:       6169  HIT:       5586  MISS:        583
cpu0_STLB LOAD      ACCESS:       6047  HIT:       5479  MISS:        568
cpu0_STLB RFO       ACCESS:        122  HIT:        107  MISS:         15
cpu0_STLB PREFETCH  ACCESS:          0  HIT:          0  MISS:          0
cpu0_STLB WRITEBACK ACCESS:          0  HIT:          0  MISS:          0
cpu0_L1D TOTAL     ACCESS:    8974818  HIT:    8948511  MISS:      26307
cpu0_L1D LOAD      ACCESS:    3964710  HIT:    3939550  MISS:      25160
cpu0_L1D RFO       ACCESS:    5009526  HIT:    5008485  MISS:       1041
cpu0_L1D PREFETCH  ACCESS:          0  HIT:          0  MISS:          0
cpu0_L1D WRITEBACK ACCESS:          0  HIT:          0  MISS:          0
cpu0_L2C TOTAL     ACCESS:      29027  HIT:      21706  MISS:       7321
cpu0_L2C LOAD      ACCESS:      25161  HIT:      18805  MISS:       6356
cpu0_L2C RFO       ACCESS:       1041  HIT:         78  MISS:        963
cpu0_L2C PREFETCH  ACCESS:          0  HIT:          0  MISS:          0
cpu0_L2C WRITEBACK ACCESS:       2719  HIT:       2717  MISS:          2
LLC TOTAL     ACCESS:       9369  HIT:       2062  MISS:       7307
LLC LOAD      ACCESS:       6356  HIT:         27  MISS:       6329
LLC RFO       ACCESS:        963  HIT:          0  MISS:        963
LLC PREFETCH  ACCESS:          0  HIT:          0  MISS:          0
LLC WRITEBACK ACCESS:       2050  HIT:       2035  MISS:         15
Heartbeat CPU 0 instructions: 82000001 cycles: 33936833 heartbeat IPC: 1.48528 cumulative IPC: 1.49278 (Simulation time: 0 hr 48 min 35 sec) 

Region of Interest Statistics
cpu0_DTLB TOTAL     ACCESS:    7560595  HIT:    7554009  MISS:       6586
cpu0_DTLB LOAD      ACCESS:    4162787  HIT:    4156334  MISS:       6453
cpu0_DTLB RFO       ACCESS:    3397808  HIT:    3397675  MISS:        133
cpu0_DTLB PREFETCH  ACCESS:          0  HIT:          0  MISS:          0
cpu0_DTLB WRITEBACK ACCESS:          0  HIT:          0  MISS:          0
cpu0_ITLB TOTAL     ACCESS:    2170879  HIT:    2170879  MISS:          0
cpu0_ITLB LOAD      ACCESS:    2170879  HIT:    2170879  MISS:          0
cpu0_ITLB RFO       ACCESS:          0  HIT:          0  MISS:          0
cpu0_ITLB PREFETCH  ACCESS:          0  HIT:          0  MISS:          0
cpu0_ITLB WRITEBACK ACCESS:          0  HIT:          0  MISS:          0
cpu0_L1I TOTAL     ACCESS:    5747434  HIT:    5747433  MISS:          1
cpu0_L1I LOAD      ACCESS:    5747434  HIT:    5747433  MISS:          1
cpu0_L1I RFO       ACCESS:          0  HIT:          0  MISS:          0
cpu0_L1I PREFETCH  ACCESS:          0  HIT:          0  MISS:          0
cpu0_L1I WRITEBACK ACCESS:          0  HIT:          0  MISS:          0
cpu0_STLB TOTAL     ACCESS:       6586  HIT:       5967  MISS:        619
cpu0_STLB LOAD      ACCESS:       6453  HIT:       5850  MISS:        603
cpu0_STLB RFO       ACCESS:        133  HIT:        117  MISS:         16
cpu0_STLB PREFETCH  ACCESS:          0  HIT:          0  MISS:          0
cpu0_STLB WRITEBACK ACCESS:          0  HIT:          0  MISS:          0
cpu0_L1D TOTAL     ACCESS:    9573067  HIT:    9544755  MISS:      28312
cpu0_L1D LOAD      ACCESS:    4229814  HIT:    4202739  MISS:      27075
cpu0_L1D RFO       ACCESS:    5342635  HIT:    5341511  MISS:       1124
cpu0_L1D PREFETCH  ACCESS:          0  HIT:          0  MISS:          0
cpu0_L1D WRITEBACK ACCESS:          0  HIT:          0  MISS:          0
cpu0_L2C TOTAL     ACCESS:      31231  HIT:      23396  MISS:       7835
cpu0_L2C LOAD      ACCESS:      27076  HIT:      20284  MISS:       6792
cpu0_L2C RFO       ACCESS:       1124  HIT:         83  MISS:       1041
cpu0_L2C PREFETCH  ACCESS:          0  HIT:          0  MISS:          0
cpu0_L2C WRITEBACK ACCESS:       2918  HIT:       2916  MISS:          2
LLC TOTAL     ACCESS:      10079  HIT:       2260  MISS:       7819
LLC LOAD      ACCESS:       6792  HIT:         31  MISS:       6761
LLC RFO       ACCESS:       1041  HIT:          0  MISS:       1041
LLC PREFETCH  ACCESS:          0  HIT:          0  MISS:          0
LLC WRITEBACK ACCESS:       2246  HIT:       2229  MISS:         17
Heartbeat CPU 0 instructions: 84000004 cycles: 35295088 heartbeat IPC: 1.47248 cumulative IPC: 1.49157 (Simulation time: 0 hr 50 min 9 sec) 

Region of Interest Statistics
cpu0_DTLB TOTAL     ACCESS:    8031992  HIT:    8024888  MISS:       7104
cpu0_DTLB LOAD      ACCESS:    4422209  HIT:    4415256  MISS:       6953
cpu0_DTLB RFO       ACCESS:    3609783  HIT:    3609632  MISS:        151
cpu0_DTLB PREFETCH  ACCESS:          0  HIT:          0  MISS:          0
cpu0_DTLB WRITEBACK ACCESS:          0  HIT:          0  MISS:          0
cpu0_ITLB TOTAL     ACCESS:    2306702  HIT:    2306702  MISS:          0
cpu0_ITLB LOAD      ACCESS:    2306702  HIT:    2306702  MISS:          0
cpu0_ITLB RFO       ACCESS:          0  HIT:          0  MISS:          0
cpu0_ITLB PREFETCH  ACCESS:          0  HIT:          0  MISS:          0
cpu0_ITLB WRITEBACK ACCESS:          0  HIT:          0  MISS:          0
cpu0_L1I TOTAL     ACCESS:    6105068  HIT:    6105066  MISS:          2
cpu0_L1I LOAD      ACCESS:    6105068  HIT:    6105066  MISS:          2
cpu0_L1I RFO       ACCESS:          0  HIT:          0  MISS:          0
cpu0_L1I PREFETCH  ACCESS:          0  HIT:          0  MISS:          0
cpu0_L1I WRITEBACK ACCESS:          0  HIT:          0  MISS:          0
cpu0_STLB TOTAL     ACCESS:       7104  HIT:       6430  MISS:        674
cpu0_STLB LOAD      ACCESS:       6953  HIT:       6299  MISS:        654
cpu0_STLB RFO       ACCESS:        151  HIT:        131  MISS:         20
cpu0_STLB PREFETCH  ACCESS:          0  HIT:          0  MISS:          0
cpu0_STLB WRITEBACK ACCESS:          0  HIT:          0  MISS:          0
cpu0_L1D TOTAL     ACCESS:   10171069  HIT:   10140689  MISS:      30380
cpu0_L1D LOAD      ACCESS:    4494638  HIT:    4465599  MISS:      29039
cpu0_L1D RFO       ACCESS:    5675758  HIT:    5674541  MISS:       1217
cpu0_L1D PREFETCH  ACCESS:          0  HIT:          0  MISS:          0
cpu0_L1D WRITEBACK ACCESS:          0  HIT:          0  MISS:          0
cpu0_L2C TOTAL     ACCESS:      33521  HIT:      25095  MISS:       8426
cpu0_L2C LOAD      ACCESS:      29041  HIT:      21740  MISS:       7301
cpu0_L2C RFO       ACCESS:       1217  HIT:         94  MISS:       1123
cpu0_L2C PREFETCH  ACCESS:          0  HIT:          0  MISS:          0
cpu0_L2C WRITEBACK ACCESS:       3139  HIT:       3137  MISS:          2
LLC TOTAL     ACCESS:      10856  HIT:       2446  MISS:       8410
LLC LOAD      ACCESS:       7301  HIT:         35  MISS:       7266
LLC RFO       ACCESS:       1123  HIT:          0  MISS:       1123
LLC PREFETCH  ACCESS:          0  HIT:          0  MISS:          0
LLC WRITEBACK ACCESS:       2432  HIT:       2411  MISS:         21
Heartbeat CPU 0 instructions: 86000000 cycles: 36638262 heartbeat IPC: 1.48901 cumulative IPC: 1.49143 (Simulation time: 0 hr 51 min 43 sec) 

Region of Interest Statistics
cpu0_DTLB TOTAL     ACCESS:    8504012  HIT:    8496511  MISS:       7501
cpu0_DTLB LOAD      ACCESS:    4681419  HIT:    4674076  MISS:       7343
cpu0_DTLB RFO       ACCESS:    3822593  HIT:    3822435  MISS:        158
cpu0_DTLB PREFETCH  ACCESS:          0  HIT:          0  MISS:          0
cpu0_DTLB WRITEBACK ACCESS:          0  HIT:          0  MISS:          0
cpu0_ITLB TOTAL     ACCESS:    2442250  HIT:    2442250  MISS:          0
cpu0_ITLB LOAD      ACCESS:    2442250  HIT:    2442250  MISS:          0
cpu0_ITLB RFO       ACCESS:          0  HIT:          0  MISS:          0
cpu0_ITLB PREFETCH  ACCESS:          0  HIT:          0  MISS:          0
cpu0_ITLB WRITEBACK ACCESS:          0  HIT:          0  MISS:          0
cpu0_L1I TOTAL     ACCESS:    6465769  HIT:    6465767  MISS:          2
cpu0_L1I LOAD      ACCESS:    6465769  HIT:    6465767  MISS:          2
cpu0_L1I RFO       ACCESS:          0  HIT:          0  MISS:          0
cpu0_L1I PREFETCH  ACCESS:          0  HIT:          0  MISS:          0
cpu0_L1I WRITEBACK ACCESS:          0  HIT:          0  MISS:          0
cpu0_STLB TOTAL     ACCESS:       7501  HIT:       6782  MISS:        719
cpu0_STLB LOAD      ACCESS:       7343  HIT:       6645  MISS:        698
cpu0_STLB RFO       ACCESS:        158  HIT:        137  MISS:         21
cpu0_STLB PREFETCH  ACCESS:          0  HIT:          0  MISS:          0
cpu0_STLB WRITEBACK ACCESS:          0  HIT:          0  MISS:          0
cpu0_L1D TOTAL     ACCESS:   10768951  HIT:   10736802  MISS:      32149
cpu0_L1D LOAD      ACCESS:    4757924  HIT:    4727191  MISS:      30733
cpu0_L1D RFO       ACCESS:    6010309  HIT:    6009022  MISS:       1287
cpu0_L1D PREFETCH  ACCESS:          0  HIT:          0  MISS:          0
cpu0_L1D WRITEBACK ACCESS:          0  HIT:          0  MISS:          0
cpu0_L2C TOTAL     ACCESS:      35470  HIT:      26551  MISS:       8919
cpu0_L2C LOAD      ACCESS:      30735  HIT:      23004  MISS:       7731
cpu0_L2C RFO       ACCESS:       1287  HIT:        101  MISS:       1186
cpu0_L2C PREFETCH  ACCESS:          0  HIT:          0  MISS:          0
cpu0_L2C WRITEBACK ACCESS:       3319  HIT:       3317  MISS:          2
LLC TOTAL     ACCESS:      11507  HIT:       2608  MISS:       8899
LLC LOAD      ACCESS:       7731  HIT:         40  MISS:       7691
LLC RFO       ACCESS:       1186  HIT:          0  MISS:       1186
LLC PREFETCH  ACCESS:          0  HIT:          0  MISS:          0
LLC WRITEBACK ACCESS:       2590  HIT:       2568  MISS:         22
Heartbeat CPU 0 instructions: 88000004 cycles: 37980446 heartbeat IPC: 1.49011 cumulative IPC: 1.49136 (Simulation time: 0 hr 53 min 20 sec) 

Region of Interest Statistics
cpu0_DTLB TOTAL     ACCESS:    8976122  HIT:    8968286  MISS:       7836
cpu0_DTLB LOAD      ACCESS:    4940997  HIT:    4933326  MISS:       7671
cpu0_DTLB RFO       ACCESS:    4035125  HIT:    4034960  MISS:        165
cpu0_DTLB PREFETCH  ACCESS:          0  HIT:          0  MISS:          0
cpu0_DTLB WRITEBACK ACCESS:          0  HIT:          0  MISS:          0
cpu0_ITLB TOTAL     ACCESS:    2577236  HIT:    2577236  MISS:          0
cpu0_ITLB LOAD      ACCESS:    2577236  HIT:    2577236  MISS:          0
cpu0_ITLB RFO       ACCESS:          0  HIT:          0  MISS:          0
cpu0_ITLB PREFETCH  ACCESS:          0  HIT:          0  MISS:          0
cpu0_ITLB WRITEBACK ACCESS:          0  HIT:          0  MISS:          0
cpu0_L1I TOTAL     ACCESS:    6826540  HIT:    6826538  MISS:          2
cpu0_L1I LOAD      ACCESS:    6826540  HIT:    6826538  MISS:          2
cpu0_L1I RFO       ACCESS:          0  HIT:          0  MISS:          0
cpu0_L1I PREFETCH  ACCESS:          0  HIT:          0  MISS:          0
cpu0_L1I WRITEBACK ACCESS:          0  HIT:          0  MISS:          0
cpu0_STLB TOTAL     ACCESS:       7836  HIT:       7083  MISS:        753
cpu0_STLB LOAD      ACCESS:       7671  HIT:       6940  MISS:        731
cpu0_STLB RFO       ACCESS:        165  HIT:        143  MISS:         22
cpu0_STLB PREFETCH  ACCESS:          0  HIT:          0  MISS:          0
cpu0_STLB WRITEBACK ACCESS:          0  HIT:          0  MISS:          0
cpu0_L1D TOTAL     ACCESS:   11367426  HIT:   11333375  MISS:      34051
cpu0_L1D LOAD      ACCESS:    5022517  HIT:    4989949  MISS:      32568
cpu0_L1D RFO       ACCESS:    6344157  HIT:    6342806  MISS:       1351
cpu0_L1D PREFETCH  ACCESS:          0  HIT:          0  MISS:          0
cpu0_L1D WRITEBACK ACCESS:          0  HIT:          0  MISS:          0
cpu0_L2C TOTAL     ACCESS:      37560  HIT:      28178  MISS:       9382
cpu0_L2C LOAD      ACCESS:      32570  HIT:      24434  MISS:       8136
cpu0_L2C RFO       ACCESS:       1351  HIT:        107  MISS:       1244
cpu0_L2C PREFETCH  ACCESS:          0  HIT:          0  MISS:          0
cpu0_L2C WRITEBACK ACCESS:       3507  HIT:       3505  MISS:          2
LLC TOTAL     ACCESS:      12116  HIT:       2755  MISS:       9361
LLC LOAD      ACCESS:       8136  HIT:         41  MISS:       8095
LLC RFO       ACCESS:       1244  HIT:          0  MISS:       1244
LLC PREFETCH  ACCESS:          0  HIT:          0  MISS:          0
LLC WRITEBACK ACCESS:       2736  HIT:       2714  MISS:         22
Heartbeat CPU 0 instructions: 90000001 cycles: 39319789 heartbeat IPC: 1.49327 cumulative IPC: 1.49146 (Simulation time: 0 hr 54 min 55 sec) 

Region of Interest Statistics
cpu0_DTLB TOTAL     ACCESS:    9448373  HIT:    9440173  MISS:       8200
cpu0_DTLB LOAD      ACCESS:    5201094  HIT:    5193060  MISS:       8034
cpu0_DTLB RFO       ACCESS:    4247279  HIT:    4247113  MISS:        166
cpu0_DTLB PREFETCH  ACCESS:          0  HIT:          0  MISS:          0
cpu0_DTLB WRITEBACK ACCESS:          0  HIT:          0  MISS:          0
cpu0_ITLB TOTAL     ACCESS:    2710951  HIT:    2710951  MISS:          0
cpu0_ITLB LOAD      ACCESS:    2710951  HIT:    2710951  MISS:          0
cpu0_ITLB RFO       ACCESS:          0  HIT:          0  MISS:          0
cpu0_ITLB PREFETCH  ACCESS:          0  HIT:          0  MISS:          0
cpu0_ITLB WRITEBACK ACCESS:          0  HIT:          0  MISS:          0
cpu0_L1I TOTAL     ACCESS:    7189367  HIT:    7189365  MISS:          2
cpu0_L1I LOAD      ACCESS:    7189367  HIT:    7189365  MISS:          2
cpu0_L1I RFO       ACCESS:          0  HIT:          0  MISS:          0
cpu0_L1I PREFETCH  ACCESS:          0  HIT:          0  MISS:          0
cpu0_L1I WRITEBACK ACCESS:          0  HIT:          0  MISS:          0
cpu0_STLB TOTAL     ACCESS:       8200  HIT:       7423  MISS:        777
cpu0_STLB LOAD      ACCESS:       8034  HIT:       7279  MISS:        755
cpu0_STLB RFO       ACCESS:        166  HIT:        144  MISS:         22
cpu0_STLB PREFETCH  ACCESS:          0  HIT:          0  MISS:          0
cpu0_STLB WRITEBACK ACCESS:          0  HIT:          0  MISS:          0
cpu0_L1D TOTAL     ACCESS:   11965787  HIT:   11929819  MISS:      35968
cpu0_L1D LOAD      ACCESS:    5287482  HIT:    5253049  MISS:      34433
cpu0_L1D RFO       ACCESS:    6677529  HIT:    6676131  MISS:       1398
cpu0_L1D PREFETCH  ACCESS:          0  HIT:          0  MISS:          0
cpu0_L1D WRITEBACK ACCESS:          0  HIT:          0  MISS:          0
cpu0_L2C TOTAL     ACCESS:      39629  HIT:      29834  MISS:       9795
cpu0_L2C LOAD      ACCESS:      34435  HIT:      25931  MISS:       8504
cpu0_L2C RFO       ACCESS:       1398  HIT:        109  MISS:       1289
cpu0_L2C PREFETCH  ACCESS:          0  HIT:          0  MISS:          0
cpu0_L2C WRITEBACK ACCESS:       3659  HIT:       3657  MISS:          2
LLC TOTAL     ACCESS:      12659  HIT:       2888  MISS:       9771
LLC LOAD      ACCESS:       8504  HIT:         44  MISS:       8460
LLC RFO       ACCESS:       1289  HIT:          0  MISS:       1289
LLC PREFETCH  ACCESS:          0  HIT:          0  MISS:          0
LLC WRITEBACK ACCESS:       2866  HIT:       2844  MISS:         22
Heartbeat CPU 0 instructions: 92000004 cycles: 40656053 heartbeat IPC: 1.49671 cumulative IPC: 1.49171 (Simulation time: 0 hr 56 min 25 sec) 

Region of Interest Statistics
cpu0_DTLB TOTAL     ACCESS:    9918171  HIT:    9909626  MISS:       8545
cpu0_DTLB LOAD      ACCESS:    5457514  HIT:    5449139  MISS:       8375
cpu0_DTLB RFO       ACCESS:    4460657  HIT:    4460487  MISS:        170
cpu0_DTLB PREFETCH  ACCESS:          0  HIT:          0  MISS:          0
cpu0_DTLB WRITEBACK ACCESS:          0  HIT:          0  MISS:          0
cpu0_ITLB TOTAL     ACCESS:    2845104  HIT:    2845104  MISS:          0
cpu0_ITLB LOAD      ACCESS:    2845104  HIT:    2845104  MISS:          0
cpu0_ITLB RFO       ACCESS:          0  HIT:          0  MISS:          0
cpu0_ITLB PREFETCH  ACCESS:          0  HIT:          0  MISS:          0
cpu0_ITLB WRITEBACK ACCESS:          0  HIT:          0  MISS:          0
cpu0_L1I TOTAL     ACCESS:    7556088  HIT:    7556086  MISS:          2
cpu0_L1I LOAD      ACCESS:    7556088  HIT:    7556086  MISS:          2
cpu0_L1I RFO       ACCESS:          0  HIT:          0  MISS:          0
cpu0_L1I PREFETCH  ACCESS:          0  HIT:          0  MISS:          0
cpu0_L1I WRITEBACK ACCESS:          0  HIT:          0  MISS:          0
cpu0_STLB TOTAL     ACCESS:       8545  HIT:       7726  MISS:        819
cpu0_STLB LOAD      ACCESS:       8375  HIT:       7579  MISS:        796
cpu0_STLB RFO       ACCESS:        170  HIT:        147  MISS:         23
cpu0_STLB PREFETCH  ACCESS:          0  HIT:          0  MISS:          0
cpu0_STLB WRITEBACK ACCESS:          0  HIT:          0  MISS:          0
cpu0_L1D TOTAL     ACCESS:   12561273  HIT:   12523596  MISS:      37677
cpu0_L1D LOAD      ACCESS:    5547524  HIT:    5511449  MISS:      36075
cpu0_L1D RFO       ACCESS:    7012931  HIT:    7011471  MISS:       1460
cpu0_L1D PREFETCH  ACCESS:          0  HIT:          0  MISS:          0
cpu0_L1D WRITEBACK ACCESS:          0  HIT:          0  MISS:          0
cpu0_L2C TOTAL     ACCESS:      41491  HIT:      31244  MISS:      10247
cpu0_L2C LOAD      ACCESS:      36077  HIT:      27177  MISS:       8900
cpu0_L2C RFO       ACCESS:       1460  HIT:        115  MISS:       1345
cpu0_L2C PREFETCH  ACCESS:          0  HIT:          0  MISS:          0
cpu0_L2C WRITEBACK ACCESS:       3812  HIT:       3810  MISS:          2
LLC TOTAL     ACCESS:      13242  HIT:       3022  MISS:      10220
LLC LOAD      ACCESS:       8900  HIT:         48  MISS:       8852
LLC RFO       ACCESS:       1345  HIT:          0  MISS:       1345
LLC PREFETCH  ACCESS:          0  HIT:          0  MISS:          0
LLC WRITEBACK ACCESS:       2997  HIT:       2974  MISS:         23
Heartbeat CPU 0 instructions: 94000000 cycles: 42006015 heartbeat IPC: 1.48152 cumulative IPC: 1.49124 (Simulation time: 0 hr 57 min 57 sec) 

Region of Interest Statistics
cpu0_DTLB TOTAL     ACCESS:   10389607  HIT:   10380575  MISS:       9032
cpu0_DTLB LOAD      ACCESS:    5717643  HIT:    5708789  MISS:       8854
cpu0_DTLB RFO       ACCESS:    4671964  HIT:    4671786  MISS:        178
cpu0_DTLB PREFETCH  ACCESS:          0  HIT:          0  MISS:          0
cpu0_DTLB WRITEBACK ACCESS:          0  HIT:          0  MISS:          0
cpu0_ITLB TOTAL     ACCESS:    2980499  HIT:    2980499  MISS:          0
cpu0_ITLB LOAD      ACCESS:    2980499  HIT:    2980499  MISS:          0
cpu0_ITLB RFO       ACCESS:          0  HIT:          0  MISS:          0
cpu0_ITLB PREFETCH  ACCESS:          0  HIT:          0  MISS:          0
cpu0_ITLB WRITEBACK ACCESS:          0  HIT:          0  MISS:          0
cpu0_L1I TOTAL     ACCESS:    7912909  HIT:    7912907  MISS:          2
cpu0_L1I LOAD      ACCESS:    7912909  HIT:    7912907  MISS:          2
cpu0_L1I RFO       ACCESS:          0  HIT:          0  MISS:          0
cpu0_L1I PREFETCH  ACCESS:          0  HIT:          0  MISS:          0
cpu0_L1I WRITEBACK ACCESS:          0  HIT:          0  MISS:          0
cpu0_STLB TOTAL     ACCESS:       9032  HIT:       8155  MISS:        877
cpu0_STLB LOAD      ACCESS:       8854  HIT:       8002  MISS:        852
cpu0_STLB RFO       ACCESS:        178  HIT:        153  MISS:         25
cpu0_STLB PREFETCH  ACCESS:          0  HIT:          0  MISS:          0
cpu0_STLB WRITEBACK ACCESS:          0  HIT:          0  MISS:          0
cpu0_L1D TOTAL     ACCESS:   13158751  HIT:   13119083  MISS:      39668
cpu0_L1D LOAD      ACCESS:    5812667  HIT:    5774706  MISS:      37961
cpu0_L1D RFO       ACCESS:    7345208  HIT:    7343649  MISS:       1559
cpu0_L1D PREFETCH  ACCESS:          0  HIT:          0  MISS:          0
cpu0_L1D WRITEBACK ACCESS:          0  HIT:          0  MISS:          0
cpu0_L2C TOTAL     ACCESS:      43722  HIT:      32915  MISS:      10807
cpu0_L2C LOAD      ACCESS:      37963  HIT:      28593  MISS:       9370
cpu0_L2C RFO       ACCESS:       1559  HIT:        124  MISS:       1435
cpu0_L2C PREFETCH  ACCESS:          0  HIT:          0  MISS:          0
cpu0_L2C WRITEBACK ACCESS:       4052  HIT:       4050  MISS:          2
LLC TOTAL     ACCESS:      13978  HIT:       3197  MISS:      10781
LLC LOAD      ACCESS:       9370  HIT:         50  MISS:       9320
LLC RFO       ACCESS:       1435  HIT:          0  MISS:       1435
LLC PREFETCH  ACCESS:          0  HIT:          0  MISS:          0
LLC WRITEBACK ACCESS:       3173  HIT:       3147  MISS:         26
Heartbeat CPU 0 instructions: 96000000 cycles: 43340159 heartbeat IPC: 1.49909 cumulative IPC: 1.49158 (Simulation time: 0 hr 59 min 28 sec) 

Region of Interest Statistics
cpu0_DTLB TOTAL     ACCESS:   10862967  HIT:   10853598  MISS:       9369
cpu0_DTLB LOAD      ACCESS:    5979288  HIT:    5970098  MISS:       9190
cpu0_DTLB RFO       ACCESS:    4883679  HIT:    4883500  MISS:        179
cpu0_DTLB PREFETCH  ACCESS:          0  HIT:          0  MISS:          0
cpu0_DTLB WRITEBACK ACCESS:          0  HIT:          0  MISS:          0
cpu0_ITLB TOTAL     ACCESS:    3114865  HIT:    3114865  MISS:          0
cpu0_ITLB LOAD      ACCESS:    3114865  HIT:    3114865  MISS:          0
cpu0_ITLB RFO       ACCESS:          0  HIT:          0  MISS:          0
cpu0_ITLB PREFETCH  ACCESS:          0  HIT:          0  MISS:          0
cpu0_ITLB WRITEBACK ACCESS:          0  HIT:          0  MISS:          0
cpu0_L1I TOTAL     ACCESS:    8271880  HIT:    8271878  MISS:          2
cpu0_L1I LOAD      ACCESS:    8271880  HIT:    8271878  MISS:          2
cpu0_L1I RFO       ACCESS:          0  HIT:          0  MISS:          0
cpu0_L1I PREFETCH  ACCESS:          0  HIT:          0  MISS:          0
cpu0_L1I WRITEBACK ACCESS:          0  HIT:          0  MISS:          0
cpu0_STLB TOTAL     ACCESS:       9369  HIT:       8464  MISS:        905
cpu0_STLB LOAD      ACCESS:       9190  HIT:       8310  MISS:        880
cpu0_STLB RFO       ACCESS:        179  HIT:        154  MISS:         25
cpu0_STLB PREFETCH  ACCESS:          0  HIT:          0  MISS:          0
cpu0_STLB WRITEBACK ACCESS:          0  HIT:          0  MISS:          0
cpu0_L1D TOTAL     ACCESS:   13756945  HIT:   13715557  MISS:      41388
cpu0_L1D LOAD      ACCESS:    6078271  HIT:    6038649  MISS:      39622
cpu0_L1D RFO       ACCESS:    7677770  HIT:    7676159  MISS:       1611
cpu0_L1D PREFETCH  ACCESS:          0  HIT:          0  MISS:          0
cpu0_L1D WRITEBACK ACCESS:          0  HIT:          0  MISS:          0
cpu0_L2C TOTAL     ACCESS:      45586  HIT:      34367  MISS:      11219
cpu0_L2C LOAD      ACCESS:      39624  HIT:      29894  MISS:       9730
cpu0_L2C RFO       ACCESS:       1611  HIT:        124  MISS:       1487
cpu0_L2C PREFETCH  ACCESS:          0  HIT:          0  MISS:          0
cpu0_L2C WRITEBACK ACCESS:       4196  HIT:       4194  MISS:          2
LLC TOTAL     ACCESS:      14505  HIT:       3312  MISS:      11193
LLC LOAD      ACCESS:       9730  HIT:         50  MISS:       9680
LLC RFO       ACCESS:       1487  HIT:          0  MISS:       1487
LLC PREFETCH  ACCESS:          0  HIT:          0  MISS:          0
LLC WRITEBACK ACCESS:       3288  HIT:       3262  MISS:         26
Heartbeat CPU 0 instructions: 98000003 cycles: 44654811 heartbeat IPC: 1.52132 cumulative IPC: 1.4928 (Simulation time: 1 hr 1 min 2 sec) 

Region of Interest Statistics
cpu0_DTLB TOTAL     ACCESS:   11341192  HIT:   11331516  MISS:       9676
cpu0_DTLB LOAD      ACCESS:    6244638  HIT:    6235146  MISS:       9492
cpu0_DTLB RFO       ACCESS:    5096554  HIT:    5096370  MISS:        184
cpu0_DTLB PREFETCH  ACCESS:          0  HIT:          0  MISS:          0
cpu0_DTLB WRITEBACK ACCESS:          0  HIT:          0  MISS:          0
cpu0_ITLB TOTAL     ACCESS:    3250820  HIT:    3250820  MISS:          0
cpu0_ITLB LOAD      ACCESS:    3250820  HIT:    3250820  MISS:          0
cpu0_ITLB RFO       ACCESS:          0  HIT:          0  MISS:          0
cpu0_ITLB PREFETCH  ACCESS:          0  HIT:          0  MISS:          0
cpu0_ITLB WRITEBACK ACCESS:          0  HIT:          0  MISS:          0
cpu0_L1I TOTAL     ACCESS:    8630806  HIT:    8630804  MISS:          2
cpu0_L1I LOAD      ACCESS:    8630806  HIT:    8630804  MISS:          2
cpu0_L1I RFO       ACCESS:          0  HIT:          0  MISS:          0
cpu0_L1I PREFETCH  ACCESS:          0  HIT:          0  MISS:          0
cpu0_L1I WRITEBACK ACCESS:          0  HIT:          0  MISS:          0
cpu0_STLB TOTAL     ACCESS:       9676  HIT:       8738  MISS:        938
cpu0_STLB LOAD      ACCESS:       9492  HIT:       8580  MISS:        912
cpu0_STLB RFO       ACCESS:        184  HIT:        158  MISS:         26
cpu0_STLB PREFETCH  ACCESS:          0  HIT:          0  MISS:          0
cpu0_STLB WRITEBACK ACCESS:          0  HIT:          0  MISS:          0
cpu0_L1D TOTAL     ACCESS:   14353151  HIT:   14310107  MISS:      43044
cpu0_L1D LOAD      ACCESS:    6339417  HIT:    6298211  MISS:      41206
cpu0_L1D RFO       ACCESS:    8012797  HIT:    8011121  MISS:       1676
cpu0_L1D PREFETCH  ACCESS:          0  HIT:          0  MISS:          0
cpu0_L1D WRITEBACK ACCESS:          0  HIT:          0  MISS:          0
cpu0_L2C TOTAL     ACCESS:      47429  HIT:      35712  MISS:      11717
cpu0_L2C LOAD      ACCESS:      41208  HIT:      31042  MISS:      10166
cpu0_L2C RFO       ACCESS:       1676  HIT:        128  MISS:       1548
cpu0_L2C PREFETCH  ACCESS:          0  HIT:          0  MISS:          0
cpu0_L2C WRITEBACK ACCESS:       4383  HIT:       4380  MISS:          3
LLC TOTAL     ACCESS:      15142  HIT:       3451  MISS:      11691
LLC LOAD      ACCESS:      10166  HIT:         50  MISS:      10116
LLC RFO       ACCESS:       1548  HIT:          0  MISS:       1548
LLC PREFETCH  ACCESS:          0  HIT:          0  MISS:          0
LLC WRITEBACK ACCESS:       3428  HIT:       3401  MISS:         27
Heartbeat CPU 0 instructions: 100000001 cycles: 46001747 heartbeat IPC: 1.48485 cumulative IPC: 1.49248 (Simulation time: 1 hr 2 min 37 sec) 

Region of Interest Statistics
cpu0_DTLB TOTAL     ACCESS:   11815982  HIT:   11805882  MISS:      10100
cpu0_DTLB LOAD      ACCESS:    6506233  HIT:    6496327  MISS:       9906
cpu0_DTLB RFO       ACCESS:    5309749  HIT:    5309555  MISS:        194
cpu0_DTLB PREFETCH  ACCESS:          0  HIT:          0  MISS:          0
cpu0_DTLB WRITEBACK ACCESS:          0  HIT:          0  MISS:          0
cpu0_ITLB TOTAL     ACCESS:    3387090  HIT:    3387090  MISS:          0
cpu0_ITLB LOAD      ACCESS:    3387090  HIT:    3387090  MISS:          0
cpu0_ITLB RFO       ACCESS:          0  HIT:          0  MISS:          0
cpu0_ITLB PREFETCH  ACCESS:          0  HIT:          0  MISS:          0
cpu0_ITLB WRITEBACK ACCESS:          0  HIT:          0  MISS:          0
cpu0_L1I TOTAL     ACCESS:    8988603  HIT:    8988601  MISS:          2
cpu0_L1I LOAD      ACCESS:    8988603  HIT:    8988601  MISS:          2
cpu0_L1I RFO       ACCESS:          0  HIT:          0  MISS:          0
cpu0_L1I PREFETCH  ACCESS:          0  HIT:          0  MISS:          0
cpu0_L1I WRITEBACK ACCESS:          0  HIT:          0  MISS:          0
cpu0_STLB TOTAL     ACCESS:      10100  HIT:       9126  MISS:        974
cpu0_STLB LOAD      ACCESS:       9906  HIT:       8960  MISS:        946
cpu0_STLB RFO       ACCESS:        194  HIT:        166  MISS:         28
cpu0_STLB PREFETCH  ACCESS:          0  HIT:          0  MISS:          0
cpu0_STLB WRITEBACK ACCESS:          0  HIT:          0  MISS:          0
cpu0_L1D TOTAL     ACCESS:   14954853  HIT:   14909868  MISS:      44985
cpu0_L1D LOAD      ACCESS:    6606488  HIT:    6563438  MISS:      43050
cpu0_L1D RFO       ACCESS:    8347392  HIT:    8345627  MISS:       1765
cpu0_L1D PREFETCH  ACCESS:          0  HIT:          0  MISS:          0
cpu0_L1D WRITEBACK ACCESS:          0  HIT:          0  MISS:          0
cpu0_L2C TOTAL     ACCESS:      49579  HIT:      37307  MISS:      12272
cpu0_L2C LOAD      ACCESS:      43052  HIT:      32410  MISS:      10642
cpu0_L2C RFO       ACCESS:       1765  HIT:        139  MISS:       1626
cpu0_L2C PREFETCH  ACCESS:          0  HIT:          0  MISS:          0
cpu0_L2C WRITEBACK ACCESS:       4592  HIT:       4589  MISS:          3
LLC TOTAL     ACCESS:      15919  HIT:       3670  MISS:      12249
LLC LOAD      ACCESS:      10642  HIT:         52  MISS:      10590
LLC RFO       ACCESS:       1626  HIT:          0  MISS:       1626
LLC PREFETCH  ACCESS:          0  HIT:          0  MISS:          0
LLC WRITEBACK ACCESS:       3650  HIT:       3618  MISS:         32
Heartbeat CPU 0 instructions: 102000003 cycles: 47333616 heartbeat IPC: 1.50165 cumulative IPC: 1.49283 (Simulation time: 1 hr 4 min 13 sec) 

Region of Interest Statistics
cpu0_DTLB TOTAL     ACCESS:   12291814  HIT:   12281388  MISS:      10426
cpu0_DTLB LOAD      ACCESS:    6768732  HIT:    6758502  MISS:      10230
cpu0_DTLB RFO       ACCESS:    5523082  HIT:    5522886  MISS:        196
cpu0_DTLB PREFETCH  ACCESS:          0  HIT:          0  MISS:          0
cpu0_DTLB WRITEBACK ACCESS:          0  HIT:          0  MISS:          0
cpu0_ITLB TOTAL     ACCESS:    3522891  HIT:    3522891  MISS:          0
cpu0_ITLB LOAD      ACCESS:    3522891  HIT:    3522891  MISS:          0
cpu0_ITLB RFO       ACCESS:          0  HIT:          0  MISS:          0
cpu0_ITLB PREFETCH  ACCESS:          0  HIT:          0  MISS:          0
cpu0_ITLB WRITEBACK ACCESS:          0  HIT:          0  MISS:          0
cpu0_L1I TOTAL     ACCESS:    9347935  HIT:    9347933  MISS:          2
cpu0_L1I LOAD      ACCESS:    9347935  HIT:    9347933  MISS:          2
cpu0_L1I RFO       ACCESS:          0  HIT:          0  MISS:          0
cpu0_L1I PREFETCH  ACCESS:          0  HIT:          0  MISS:          0
cpu0_L1I WRITEBACK ACCESS:          0  HIT:          0  MISS:          0
cpu0_STLB TOTAL     ACCESS:      10426  HIT:       9425  MISS:       1001
cpu0_STLB LOAD      ACCESS:      10230  HIT:       9257  MISS:        973
cpu0_STLB RFO       ACCESS:        196  HIT:        168  MISS:         28
cpu0_STLB PREFETCH  ACCESS:          0  HIT:          0  MISS:          0
cpu0_STLB WRITEBACK ACCESS:          0  HIT:          0  MISS:          0
cpu0_L1D TOTAL     ACCESS:   15557169  HIT:   15510575  MISS:      46594
cpu0_L1D LOAD      ACCESS:    6873642  HIT:    6829048  MISS:      44594
cpu0_L1D RFO       ACCESS:    8682527  HIT:    8680702  MISS:       1825
cpu0_L1D PREFETCH  ACCESS:          0  HIT:          0  MISS:          0
cpu0_L1D WRITEBACK ACCESS:          0  HIT:          0  MISS:          0
cpu0_L2C TOTAL     ACCESS:      51370  HIT:      38629  MISS:      12741
cpu0_L2C LOAD      ACCESS:      44596  HIT:      33544  MISS:      11052
cpu0_L2C RFO       ACCESS:       1825  HIT:        140  MISS:       1685
cpu0_L2C PREFETCH  ACCESS:          0  HIT:          0  MISS:          0
cpu0_L2C WRITEBACK ACCESS:       4774  HIT:       4771  MISS:          3
LLC TOTAL     ACCESS:      16549  HIT:       3830  MISS:      12719
LLC LOAD      ACCESS:      11052  HIT:         54  MISS:      10998
LLC RFO       ACCESS:       1685  HIT:          0  MISS:       1685
LLC PREFETCH  ACCESS:          0  HIT:          0  MISS:          0
LLC WRITEBACK ACCESS:       3811  HIT:       3776  MISS:         35
Heartbeat CPU 0 instructions: 104000001 cycles: 48675168 heartbeat IPC: 1.49081 cumulative IPC: 1.49275 (Simulation time: 1 hr 5 min 50 sec) 

Region of Interest Statistics
cpu0_DTLB TOTAL     ACCESS:   12765355  HIT:   12754517  MISS:      10838
cpu0_DTLB LOAD      ACCESS:    7031109  HIT:    7020477  MISS:      10632
cpu0_DTLB RFO       ACCESS:    5734246  HIT:    5734040  MISS:        206
cpu0_DTLB PREFETCH  ACCESS:          0  HIT:          0  MISS:          0
cpu0_DTLB WRITEBACK ACCESS:          0  HIT:          0  MISS:          0
cpu0_ITLB TOTAL     ACCESS:    3659088  HIT:    3659088  MISS:          0
cpu0_ITLB LOAD      ACCESS:    3659088  HIT:    3659088  MISS:          0
cpu0_ITLB RFO       ACCESS:          0  HIT:          0  MISS:          0
cpu0_ITLB PREFETCH  ACCESS:          0  HIT:          0  MISS:          0
cpu0_ITLB WRITEBACK ACCESS:          0  HIT:          0  MISS:          0
cpu0_L1I TOTAL     ACCESS:    9702918  HIT:    9702916  MISS:          2
cpu0_L1I LOAD      ACCESS:    9702918  HIT:    9702916  MISS:          2
cpu0_L1I RFO       ACCESS:          0  HIT:          0  MISS:          0
cpu0_L1I PREFETCH  ACCESS:          0  HIT:          0  MISS:          0
cpu0_L1I WRITEBACK ACCESS:          0  HIT:          0  MISS:          0
cpu0_STLB TOTAL     ACCESS:      10838  HIT:       9803  MISS:       1035
cpu0_STLB LOAD      ACCESS:      10632  HIT:       9627  MISS:       1005
cpu0_STLB RFO       ACCESS:        206  HIT:        176  MISS:         30
cpu0_STLB PREFETCH  ACCESS:          0  HIT:          0  MISS:          0
cpu0_STLB WRITEBACK ACCESS:          0  HIT:          0  MISS:          0
cpu0_L1D TOTAL     ACCESS:   16156897  HIT:   16108425  MISS:      48472
cpu0_L1D LOAD      ACCESS:    7141362  HIT:    7094975  MISS:      46387
cpu0_L1D RFO       ACCESS:    9014501  HIT:    9012596  MISS:       1905
cpu0_L1D PREFETCH  ACCESS:          0  HIT:          0  MISS:          0
cpu0_L1D WRITEBACK ACCESS:          0  HIT:          0  MISS:          0
cpu0_L2C TOTAL     ACCESS:      53457  HIT:      40193  MISS:      13264
cpu0_L2C LOAD      ACCESS:      46389  HIT:      34883  MISS:      11506
cpu0_L2C RFO       ACCESS:       1905  HIT:        151  MISS:       1754
cpu0_L2C PREFETCH  ACCESS:          0  HIT:          0  MISS:          0
cpu0_L2C WRITEBACK ACCESS:       4983  HIT:       4980  MISS:          3
LLC TOTAL     ACCESS:      17262  HIT:       4019  MISS:      13243
LLC LOAD      ACCESS:      11506  HIT:         55  MISS:      11451
LLC RFO       ACCESS:       1754  HIT:          0  MISS:       1754
LLC PREFETCH  ACCESS:          0  HIT:          0  MISS:          0
LLC WRITEBACK ACCESS:       4001  HIT:       3964  MISS:         37
Heartbeat CPU 0 instructions: 106000002 cycles: 50010015 heartbeat IPC: 1.4983 cumulative IPC: 1.49295 (Simulation time: 1 hr 7 min 24 sec) 

Region of Interest Statistics
cpu0_DTLB TOTAL     ACCESS:   13236008  HIT:   13224641  MISS:      11367
cpu0_DTLB LOAD      ACCESS:    7290533  HIT:    7279379  MISS:      11154
cpu0_DTLB RFO       ACCESS:    5945475  HIT:    5945262  MISS:        213
cpu0_DTLB PREFETCH  ACCESS:          0  HIT:          0  MISS:          0
cpu0_DTLB WRITEBACK ACCESS:          0  HIT:          0  MISS:          0
cpu0_ITLB TOTAL     ACCESS:    3796732  HIT:    3796732  MISS:          0
cpu0_ITLB LOAD      ACCESS:    3796732  HIT:    3796732  MISS:          0
cpu0_ITLB RFO       ACCESS:          0  HIT:          0  MISS:          0
cpu0_ITLB PREFETCH  ACCESS:          0  HIT:          0  MISS:          0
cpu0_ITLB WRITEBACK ACCESS:          0  HIT:          0  MISS:          0
cpu0_L1I TOTAL     ACCESS:   10056358  HIT:   10056356  MISS:          2
cpu0_L1I LOAD      ACCESS:   10056358  HIT:   10056356  MISS:          2
cpu0_L1I RFO       ACCESS:          0  HIT:          0  MISS:          0
cpu0_L1I PREFETCH  ACCESS:          0  HIT:          0  MISS:          0
cpu0_L1I WRITEBACK ACCESS:          0  HIT:          0  MISS:          0
cpu0_STLB TOTAL     ACCESS:      11367  HIT:      10303  MISS:       1064
cpu0_STLB LOAD      ACCESS:      11154  HIT:      10121  MISS:       1033
cpu0_STLB RFO       ACCESS:        213  HIT:        182  MISS:         31
cpu0_STLB PREFETCH  ACCESS:          0  HIT:          0  MISS:          0
cpu0_STLB WRITEBACK ACCESS:          0  HIT:          0  MISS:          0
cpu0_L1D TOTAL     ACCESS:   16754028  HIT:   16703758  MISS:      50270
cpu0_L1D LOAD      ACCESS:    7406177  HIT:    7358085  MISS:      48092
cpu0_L1D RFO       ACCESS:    9346788  HIT:    9344794  MISS:       1994
cpu0_L1D PREFETCH  ACCESS:          0  HIT:          0  MISS:          0
cpu0_L1D WRITEBACK ACCESS:          0  HIT:          0  MISS:          0
cpu0_L2C TOTAL     ACCESS:      55472  HIT:      41684  MISS:      13788
cpu0_L2C LOAD      ACCESS:      48094  HIT:      36148  MISS:      11946
cpu0_L2C RFO       ACCESS:       1994  HIT:        156  MISS:       1838
cpu0_L2C PREFETCH  ACCESS:          0  HIT:          0  MISS:          0
cpu0_L2C WRITEBACK ACCESS:       5200  HIT:       5197  MISS:          3
LLC TOTAL     ACCESS:      17975  HIT:       4209  MISS:      13766
[...]
cpu0_DTLB LOAD      ACCESS:  196806162  HIT:  195906120  MISS:     900042
cpu0_DTLB RFO       ACCESS:  156332176  HIT:  156316263  MISS:      15913
cpu0_DTLB PREFETCH  ACCESS:          0  HIT:          0  MISS:          0
cpu0_DTLB WRITEBACK ACCESS:          0  HIT:          0  MISS:          0
cpu0_ITLB TOTAL     ACCESS:  103302946  HIT:  103302935  MISS:         11
cpu0_ITLB LOAD      ACCESS:  103302946  HIT:  103302935  MISS:         11
cpu0_ITLB RFO       ACCESS:          0  HIT:          0  MISS:          0
cpu0_ITLB PREFETCH  ACCESS:          0  HIT:          0  MISS:          0
cpu0_ITLB WRITEBACK ACCESS:          0  HIT:          0  MISS:          0
cpu0_L1I TOTAL     ACCESS:  259919537  HIT:  259919407  MISS:        130
cpu0_L1I LOAD      ACCESS:  259919537  HIT:  259919407  MISS:        130
cpu0_L1I RFO       ACCESS:          0  HIT:          0  MISS:          0
cpu0_L1I PREFETCH  ACCESS:          0  HIT:          0  MISS:          0
cpu0_L1I WRITEBACK ACCESS:          0  HIT:          0  MISS:          0
cpu0_STLB TOTAL     ACCESS:     915966  HIT:     795302  MISS:     120664
cpu0_STLB LOAD      ACCESS:     900053  HIT:     781169  MISS:     118884
cpu0_STLB RFO       ACCESS:      15913  HIT:      14133  MISS:       1780
cpu0_STLB PREFETCH  ACCESS:          0  HIT:          0  MISS:          0
cpu0_STLB WRITEBACK ACCESS:          0  HIT:          0  MISS:          0
cpu0_L1D TOTAL     ACCESS:  448851175  HIT:  446125109  MISS:    2726066
cpu0_L1D LOAD      ACCESS:  201019162  HIT:  198413046  MISS:    2606116
cpu0_L1D RFO       ACCESS:  247712098  HIT:  247596941  MISS:     115157
cpu0_L1D PREFETCH  ACCESS:          0  HIT:          0  MISS:          0
cpu0_L1D WRITEBACK ACCESS:          0  HIT:          0  MISS:          0
cpu0_L2C TOTAL     ACCESS:    3085311  HIT:    1723678  MISS:    1361633
cpu0_L2C LOAD      ACCESS:    2606195  HIT:    1355728  MISS:    1250467
cpu0_L2C RFO       ACCESS:     115157  HIT:       5038  MISS:     110119
cpu0_L2C PREFETCH  ACCESS:          0  HIT:          0  MISS:          0
cpu0_L2C WRITEBACK ACCESS:     359166  HIT:     358416  MISS:        750
LLC TOTAL     ACCESS:    1654937  HIT:     333799  MISS:    1321138
LLC LOAD      ACCESS:    1250467  HIT:      66658  MISS:    1183809
LLC RFO       ACCESS:     110119  HIT:        862  MISS:     109257
LLC PREFETCH  ACCESS:          0  HIT:          0  MISS:          0
LLC WRITEBACK ACCESS:     294054  HIT:     266238  MISS:      27816
Heartbeat CPU 0 instructions: 1550000001 cycles: 1157178387 heartbeat IPC: 1.49365 cumulative IPC: 1.31041 (Simulation time: 17 hr 22 min 55 sec) 

Region of Interest Statistics
cpu0_DTLB TOTAL     ACCESS:  353614586  HIT:  352697895  MISS:     916691
cpu0_DTLB LOAD      ACCESS:  197071026  HIT:  196170250  MISS:     900776
cpu0_DTLB RFO       ACCESS:  156543560  HIT:  156527645  MISS:      15915
cpu0_DTLB PREFETCH  ACCESS:          0  HIT:          0  MISS:          0
cpu0_DTLB WRITEBACK ACCESS:          0  HIT:          0  MISS:          0
cpu0_ITLB TOTAL     ACCESS:  103439360  HIT:  103439349  MISS:         11
cpu0_ITLB LOAD      ACCESS:  103439360  HIT:  103439349  MISS:         11
cpu0_ITLB RFO       ACCESS:          0  HIT:          0  MISS:          0
cpu0_ITLB PREFETCH  ACCESS:          0  HIT:          0  MISS:          0
cpu0_ITLB WRITEBACK ACCESS:          0  HIT:          0  MISS:          0
cpu0_L1I TOTAL     ACCESS:  260274918  HIT:  260274788  MISS:        130
cpu0_L1I LOAD      ACCESS:  260274918  HIT:  260274788  MISS:        130
cpu0_L1I RFO       ACCESS:          0  HIT:          0  MISS:          0
cpu0_L1I PREFETCH  ACCESS:          0  HIT:          0  MISS:          0
cpu0_L1I WRITEBACK ACCESS:          0  HIT:          0  MISS:          0
cpu0_STLB TOTAL     ACCESS:     916702  HIT:     796030  MISS:     120672
cpu0_STLB LOAD      ACCESS:     900787  HIT:     781895  MISS:     118892
cpu0_STLB RFO       ACCESS:      15915  HIT:      14135  MISS:       1780
cpu0_STLB PREFETCH  ACCESS:          0  HIT:          0  MISS:          0
cpu0_STLB WRITEBACK ACCESS:          0  HIT:          0  MISS:          0
cpu0_L1D TOTAL     ACCESS:  449454910  HIT:  446726928  MISS:    2727982
cpu0_L1D LOAD      ACCESS:  201290783  HIT:  198682786  MISS:    2607997
cpu0_L1D RFO       ACCESS:  248044204  HIT:  247929014  MISS:     115190
cpu0_L1D PREFETCH  ACCESS:          0  HIT:          0  MISS:          0
cpu0_L1D WRITEBACK ACCESS:          0  HIT:          0  MISS:          0
cpu0_L2C TOTAL     ACCESS:    3087346  HIT:    1725231  MISS:    1362115
cpu0_L2C LOAD      ACCESS:    2608075  HIT:    1357157  MISS:    1250918
cpu0_L2C RFO       ACCESS:     115190  HIT:       5040  MISS:     110150
cpu0_L2C PREFETCH  ACCESS:          0  HIT:          0  MISS:          0
cpu0_L2C WRITEBACK ACCESS:     359286  HIT:     358536  MISS:        750
LLC TOTAL     ACCESS:    1655488  HIT:     333883  MISS:    1321605
LLC LOAD      ACCESS:    1250918  HIT:      66675  MISS:    1184243
LLC RFO       ACCESS:     110150  HIT:        862  MISS:     109288
LLC PREFETCH  ACCESS:          0  HIT:          0  MISS:          0
LLC WRITEBACK ACCESS:     294123  HIT:     266305  MISS:      27818
Finished CPU 0 instructions: 1500000002 cycles: 1144678020 cumulative IPC: 1.31041 (Simulation time: 17 hr 22 min 55 sec) 

ChampSim completed all CPUs

Region of Interest Statistics

CPU 0 cumulative IPC: 1.31041 instructions: 1500000002 cycles: 1144678020
cpu0_DTLB TOTAL     ACCESS:  353614586  HIT:  352697895  MISS:     916691
cpu0_DTLB LOAD      ACCESS:  197071026  HIT:  196170250  MISS:     900776
cpu0_DTLB RFO       ACCESS:  156543560  HIT:  156527645  MISS:      15915
cpu0_DTLB PREFETCH  ACCESS:          0  HIT:          0  MISS:          0
cpu0_DTLB WRITEBACK ACCESS:          0  HIT:          0  MISS:          0
cpu0_DTLB TRANSLATION ACCESS:          0  HIT:          0  MISS:          0
cpu0_DTLB PREFETCH  REQUESTED:          0  ISSUED:          0  USEFUL:          0  USELESS:          0
cpu0_DTLB AVERAGE MISS LATENCY: 12.6506 cycles
cpu0_ITLB TOTAL     ACCESS:  103439360  HIT:  103439349  MISS:         11
cpu0_ITLB LOAD      ACCESS:  103439360  HIT:  103439349  MISS:         11
cpu0_ITLB RFO       ACCESS:          0  HIT:          0  MISS:          0
cpu0_ITLB PREFETCH  ACCESS:          0  HIT:          0  MISS:          0
cpu0_ITLB WRITEBACK ACCESS:          0  HIT:          0  MISS:          0
cpu0_ITLB TRANSLATION ACCESS:          0  HIT:          0  MISS:          0
cpu0_ITLB PREFETCH  REQUESTED:          0  ISSUED:          0  USEFUL:          0  USELESS:          0
cpu0_ITLB AVERAGE MISS LATENCY: 256.182 cycles
cpu0_L1I TOTAL     ACCESS:  260274918  HIT:  260274788  MISS:        130
cpu0_L1I LOAD      ACCESS:  260274918  HIT:  260274788  MISS:        130
cpu0_L1I RFO       ACCESS:          0  HIT:          0  MISS:          0
cpu0_L1I PREFETCH  ACCESS:          0  HIT:          0  MISS:          0
cpu0_L1I WRITEBACK ACCESS:          0  HIT:          0  MISS:          0
cpu0_L1I TRANSLATION ACCESS:          0  HIT:          0  MISS:          0
cpu0_L1I PREFETCH  REQUESTED:          0  ISSUED:          0  USEFUL:          0  USELESS:          0
cpu0_L1I AVERAGE MISS LATENCY: 195.838 cycles
cpu0_STLB TOTAL     ACCESS:     916702  HIT:     796030  MISS:     120672
cpu0_STLB LOAD      ACCESS:     900787  HIT:     781895  MISS:     118892
cpu0_STLB RFO       ACCESS:      15915  HIT:      14135  MISS:       1780
cpu0_STLB PREFETCH  ACCESS:          0  HIT:          0  MISS:          0
cpu0_STLB WRITEBACK ACCESS:          0  HIT:          0  MISS:          0
cpu0_STLB TRANSLATION ACCESS:          0  HIT:          0  MISS:          0
cpu0_STLB PREFETCH  REQUESTED:          0  ISSUED:          0  USEFUL:          0  USELESS:          0
cpu0_STLB AVERAGE MISS LATENCY: 27.6399 cycles
cpu0_L1D TOTAL     ACCESS:  449454910  HIT:  446726928  MISS:    2727982
cpu0_L1D LOAD      ACCESS:  201290783  HIT:  198682786  MISS:    2607997
cpu0_L1D RFO       ACCESS:  248044204  HIT:  247929014  MISS:     115190
cpu0_L1D PREFETCH  ACCESS:          0  HIT:          0  MISS:          0
cpu0_L1D WRITEBACK ACCESS:          0  HIT:          0  MISS:          0
cpu0_L1D TRANSLATION ACCESS:     119923  HIT:     115128  MISS:       4795
cpu0_L1D PREFETCH  REQUESTED:          0  ISSUED:          0  USEFUL:          0  USELESS:          0
cpu0_L1D AVERAGE MISS LATENCY: 105.85 cycles
cpu0_L2C TOTAL     ACCESS:    3087346  HIT:    1725231  MISS:    1362115
cpu0_L2C LOAD      ACCESS:    2608075  HIT:    1357157  MISS:    1250918
cpu0_L2C RFO       ACCESS:     115190  HIT:       5040  MISS:     110150
cpu0_L2C PREFETCH  ACCESS:          0  HIT:          0  MISS:          0
cpu0_L2C WRITEBACK ACCESS:     359286  HIT:     358536  MISS:        750
cpu0_L2C TRANSLATION ACCESS:       4795  HIT:       4498  MISS:        297
cpu0_L2C PREFETCH  REQUESTED:          0  ISSUED:          0  USEFUL:          0  USELESS:          0
cpu0_L2C AVERAGE MISS LATENCY: 189.95 cycles
LLC TOTAL     ACCESS:    1655488  HIT:     333883  MISS:    1321605
LLC LOAD      ACCESS:    1250918  HIT:      66675  MISS:    1184243
LLC RFO       ACCESS:     110150  HIT:        862  MISS:     109288
LLC PREFETCH  ACCESS:          0  HIT:          0  MISS:          0
LLC WRITEBACK ACCESS:     294123  HIT:     266305  MISS:      27818
LLC TRANSLATION ACCESS:        297  HIT:         41  MISS:        256
LLC PREFETCH  REQUESTED:          0  ISSUED:          0  USEFUL:          0  USELESS:          0
LLC AVERAGE MISS LATENCY: 174.141 cycles
~~~~~~~~~~Reuse Distance Profiler output~~~~~~~~~~
0	0	0
1	0	0
2	0	0
3	0	0
4	0	0
5	0	0
6	0	0
7	0	0
8	0	0
9	0	0
10	0	0
11	0	0
12	0	0
13	0	0
14	0	0
15	0	0
16	0	0
17	0	0
18	0	0
19	0	0
20	0	0
21	0	0
22	0	0
23	0	0
24	0	0
25	0	0
26	0	0
27	0	0
28	0	0
29	0	0
30	0	0
31	0	0
32	0	0
33	0	0
34	0	0
35	0	0
36	0	0
37	0	0
38	0	0
39	0	0
40	0	0
41	0	0
42	0	0
43	0	0
44	0	0
45	0	0
46	0	0
47	0	0
48	0	0
49	0	0
50	0	0
51	0	0
52	0	0
53	0	0
54	0	0
55	0	0
56	0	0
57	0	0
58	0	0
59	0	0
60	0	0
61	0	0
62	0	0
63	0	0
64	0	0
66	0	0
68	0	0
70	0	0
72	0	0
74	0	0
76	0	0
78	0	0
80	0	0
82	0	0
84	0	0
86	0	0
88	0	0
90	0	0
92	0	0
94	0	0
96	0	0
98	0	0
100	0	0
102	0	0
104	0	0
106	0	0
108	0	0
110	0	0
112	0	0
114	0	0
116	0	0
118	0	0
120	0	0
122	0	0
124	0	0
126	0	0
128	0	0
132	0	0
136	0	0
140	0	0
144	0	0
148	0	0
152	0	0
156	0	0
160	0	0
164	0	0
168	0	0
172	0	0
176	0	0
180	0	0
184	0	0
188	0	0
192	0	0
196	0	0
200	0	0
204	0	0
208	0	0
212	0	0
216	0	0
220	0	0
224	0	0
228	0	0
232	0	0
236	0	0
240	0	0
244	0	0
248	0	0
252	0	0
256	0	0
264	0	0
272	0	0
280	0	0
288	0	0
296	0	0
304	0	0
312	0	0
320	0	0
328	0	0
336	0	0
344	0	0
352	0	0
360	0	0
368	0	0
376	0	0
384	0	0
392	0	0
400	0	0
408	0	0
416	0	0
424	0	0
432	0	0
440	0	0
448	0	0
456	0	0
464	0	0
472	0	0
480	0	0
488	0	0
496	0	0
504	0	0
512	0	0
528	0	0
544	0	0
560	0	0
576	0	0
592	0	0
608	0	0
624	0	0
640	0	0
656	0	0
672	0	0
688	0	0
704	0	0
720	0	0
736	0	0
752	0	0
768	0	0
784	0	0
800	0	0
816	0	0
832	0	0
848	0	0
864	0	0
880	0	0
896	0	0
912	0	0
928	0	0
944	0	0
960	0	0
976	0	0
992	0	0
1008	0	0
1024	0	0
1056	0	0
1088	0	0
1120	0	0
1152	0	0
1184	0	0
1216	0	0
1248	0	0
1280	0	0
1312	0	0
1344	0	0
1376	0	0
1408	0	0
1440	0	0
1472	0	0
1504	0	0
1536	0	0
1568	0	0
1600	0	0
1632	0	0
1664	0	0
1696	0	0
1728	0	0
1760	0	0
1792	0	0
1824	0	0
1856	0	0
1888	0	0
1920	0	0
1952	0	0
1984	0	0
2016	0	0
2048	0	0
2112	0	0
2176	0	0
2240	0	0
2304	0	0
2368	0	0
2432	0	0
2496	0	0
2560	0	0
2624	0	0
2688	0	0
2752	0	0
2816	0	0
2880	0	0
2944	0	0
3008	0	0
3072	0	0
3136	0	0
3200	0	0
3264	0	0
3328	0	0
3392	0	0
3456	0	0
3520	0	0
3584	0	0
3648	0	0
3712	0	0
3776	0	0
3840	0	0
3904	0	0
3968	0	0
4032	0	0
4096	0	0
4224	0	0
4352	0	0
4480	0	0
4608	0	0
4736	0	0
4864	0	0
4992	0	0
5120	0	0
5248	0	0
5376	0	0
5504	0	0
5632	0	0
5760	0	0
5888	0	0
6016	0	0
6144	0	0
6272	0	0
6400	0	0
6528	0	0
6656	0	0
6784	0	0
6912	0	0
7040	0	0
7168	0	0
7296	0	0
7424	0	0
7552	0	0
7680	0	0
7808	0	0
7936	0	0
8064	0	0
8192	0	0
8448	0	0
8704	0	0
8960	0	0
9216	0	0
9472	0	0
9728	0	0
9984	0	0
10240	0	0
10496	0	0
10752	0	0
11008	0	0
11264	0	0
11520	0	0
11776	0	0
12032	0	0
12288	0	0
12544	0	0
12800	0	0
13056	0	0
13312	0	0
13568	0	0
13824	0	0
14080	0	0
14336	0	0
14592	0	0
14848	0	0
15104	0	0
15360	0	0
15616	0	0
15872	0	0
16128	0	0
16384	0	0
16896	0	0
17408	0	0
17920	0	0
18432	0	0
18944	0	0
19456	0	0
19968	0	0
20480	0	0
20992	0	0
21504	0	0
22016	0	0
22528	0	0
23040	0	0
23552	0	0
24064	0	0
24576	0	0
25088	0	0
25600	0	0
26112	0	0
26624	0	0
27136	0	0
27648	0	0
28160	0	0
28672	0	0
29184	0	0
29696	0	0
30208	0	0
30720	0	0
31232	0	0
31744	0	0
32256	0	0
32768	0	0
33792	0	0
34816	0	0
35840	0	0
36864	0	0
37888	0	0
38912	0	0
39936	0	0
40960	0	0
41984	0	0
43008	0	0
44032	0	0
45056	0	0
46080	0	0
47104	0	0
48128	0	0
49152	0	0
50176	0	0
51200	0	0
52224	0	0
53248	0	0
54272	0	0
55296	0	0
56320	0	0
57344	0	0
58368	0	0
59392	0	0
60416	0	0
61440	0	0
62464	0	0
63488	0	0
64512	0	0
65536	0	0
67584	0	0
69632	0	0
71680	0	0
73728	0	0
75776	0	0
77824	0	0
79872	0	0
81920	0	0
83968	0	0
86016	0	0
88064	0	0
90112	0	0
92160	0	0
94208	0	0
96256	0	0
98304	0	0
100352	0	0
102400	0	0
104448	0	0
106496	0	0
108544	0	0
110592	0	0
112640	0	0
114688	0	0
116736	0	0
118784	0	0
120832	0	0
122880	0	0
124928	0	0
126976	0	0
129024	0	0
131072	0	0
135168	0	0
139264	0	0
143360	0	0
147456	0	0
151552	0	0
155648	0	0
159744	0	0
163840	0	0
167936	0	0
172032	0	0
176128	0	0
180224	0	0
184320	0	0
188416	0	0
192512	0	0
196608	0	0
200704	0	0
204800	0	0
208896	0	0
212992	0	0
217088	0	0
221184	0	0
225280	0	0
229376	0	0
233472	0	0
237568	0	0
241664	0	0
245760	0	0
249856	0	0
253952	0	0
258048	0	0
262144	0	0
270336	0	0
278528	0	0
286720	0	0
294912	0	0
303104	0	0
311296	0	0
319488	0	0
327680	0	0
335872	0	0
344064	0	0
352256	0	0
360448	0	0
368640	0	0
376832	0	0
385024	0	0
393216	0	0
401408	0	0
409600	0	0
417792	0	0
425984	0	0
434176	0	0
442368	0	0
450560	0	0
458752	0	0
466944	0	0
475136	0	0
483328	0	0
491520	0	0
499712	0	0
507904	0	0
516096	0	0
524288	0	0
540672	0	0
557056	0	0
573440	0	0
589824	0	0
606208	0	0
622592	0	0
638976	0	0
655360	0	0
671744	0	0
688128	0	0
704512	0	0
720896	0	0
737280	0	0
753664	0	0
770048	0	0
786432	0	0
802816	0	0
819200	0	0
835584	0	0
851968	0	0
868352	0	0
884736	0	0
901120	0	0
917504	0	0
933888	0	0
950272	0	0
966656	0	0
983040	0	0
999424	0	0
1015808	0	0
1032192	0	0
1048576	0	0
1081344	0	0
1114112	0	0
1146880	0	0
1179648	0	0
1212416	0	0
1245184	0	0
1277952	0	0
1310720	0	0
1343488	0	0
1376256	0	0
1409024	0	0
1441792	0	0
1474560	0	0
1507328	0	0
1540096	0	0
1572864	0	0
1605632	0	0
1638400	0	0
1671168	0	0
1703936	0	0
1736704	0	0
1769472	0	0
1802240	0	0
1835008	0	0
1867776	0	0
1900544	0	0
1933312	0	0
1966080	0	0
1998848	0	0
2031616	0	0
2064384	0	0
2097152	0	0
2162688	0	0
2228224	0	0
2293760	0	0
2359296	0	0
2424832	0	0
2490368	0	0
2555904	0	0
2621440	0	0
2686976	0	0
2752512	0	0
2818048	0	0
2883584	0	0
2949120	0	0
3014656	0	0
3080192	0	0
3145728	0	0
3211264	0	0
3276800	0	0
3342336	0	0
3407872	0	0
3473408	0	0
3538944	0	0
3604480	0	0
3670016	0	0
3735552	0	0
3801088	0	0
3866624	0	0
3932160	0	0
3997696	0	0
4063232	0	0
4128768	0	0
4194304	0	0
4325376	0	0
4456448	0	0
4587520	0	0
4718592	0	0
4849664	0	0
4980736	0	0
5111808	0	0
5242880	0	0
5373952	0	0
5505024	0	0
5636096	0	0
5767168	0	0
5898240	0	0
6029312	0	0
6160384	0	0
6291456	0	0
6422528	0	0
6553600	0	0
6684672	0	0
6815744	0	0
6946816	0	0
7077888	0	0
7208960	0	0
7340032	0	0
7471104	0	0
7602176	0	0
7733248	0	0
7864320	0	0
7995392	0	0
8126464	0	0
8257536	0	0
8388608	0	0
8650752	0	0
8912896	0	0
9175040	0	0
9437184	0	0
9699328	0	0
9961472	0	0
10223616	0	0
10485760	0	0
10747904	0	0
11010048	0	0
11272192	0	0
11534336	0	0
11796480	0	0
12058624	0	0
12320768	0	0
12582912	0	0
12845056	0	0
13107200	0	0
13369344	0	0
13631488	0	0
13893632	0	0
14155776	0	0
14417920	0	0
14680064	0	0
14942208	0	0
15204352	0	0
15466496	0	0
15728640	0	0
15990784	0	0
16252928	0	0
16515072	0	0
16777216	0	0
17301504	0	0
17825792	0	0
18350080	0	0
18874368	0	0
19398656	0	0
19922944	0	0
20447232	0	0
20971520	0	0
21495808	0	0
22020096	0	0
22544384	0	0
23068672	0	0
23592960	0	0
24117248	0	0
24641536	0	0
25165824	0	0
25690112	0	0
26214400	0	0
26738688	0	0
27262976	0	0
27787264	0	0
28311552	0	0
28835840	0	0
29360128	0	0
29884416	0	0
30408704	0	0
30932992	0	0
31457280	0	0
31981568	0	0
32505856	0	0
33030144	0	0
33554432	0	0
34603008	0	0
35651584	0	0
36700160	0	0
37748736	0	0
38797312	0	0
39845888	0	0
40894464	0	0
41943040	0	0
42991616	0	0
44040192	0	0
45088768	0	0
46137344	0	0
47185920	0	0
48234496	0	0
49283072	0	0
50331648	0	0
51380224	0	0
52428800	0	0
53477376	0	0
54525952	0	0
55574528	0	0
56623104	0	0
57671680	0	0
58720256	0	0
59768832	0	0
60817408	0	0
61865984	0	0
62914560	0	0
63963136	0	0
65011712	0	0
66060288	0	0
67108864	0	0
69206016	0	0
71303168	0	0
73400320	0	0
75497472	0	0
77594624	0	0
79691776	0	0
81788928	0	0
83886080	0	0
85983232	0	0
88080384	0	0
90177536	0	0
92274688	0	0
94371840	0	0
96468992	0	0
98566144	0	0
100663296	0	0
102760448	0	0
104857600	0	0
106954752	0	0
109051904	0	0
111149056	0	0
113246208	0	0
115343360	0	0
117440512	0	0
119537664	0	0
121634816	0	0
123731968	0	0
125829120	0	0
127926272	0	0
130023424	0	0
132120576	0	0
134217728	0	0
138412032	0	0
142606336	0	0
146800640	0	0
150994944	0	0
155189248	0	0
159383552	0	0
163577856	0	0
167772160	0	0
171966464	0	0
176160768	0	0
180355072	0	0
184549376	0	0
188743680	0	0
192937984	0	0
197132288	0	0
201326592	0	0
205520896	0	0
209715200	0	0
213909504	0	0
218103808	0	0
222298112	0	0
226492416	0	0
230686720	0	0
234881024	0	0
239075328	0	0
243269632	0	0
247463936	0	0
251658240	0	0
255852544	0	0
260046848	0	0
264241152	0	0
268435456	0	0
276824064	0	0
285212672	0	0
293601280	0	0
301989888	0	0
310378496	0	0
318767104	0	0
327155712	0	0
335544320	0	0
343932928	0	0
352321536	0	0
360710144	0	0
369098752	0	0
377487360	0	0
385875968	0	0
394264576	0	0
402653184	0	0
411041792	0	0
419430400	0	0
427819008	0	0
436207616	0	0
444596224	0	0
452984832	0	0
461373440	0	0
469762048	0	0
478150656	0	0
486539264	0	0
494927872	0	0
503316480	0	0
511705088	0	0
520093696	0	0
528482304	0	0
536870912	0	0
553648128	0	0
570425344	0	0
587202560	0	0
603979776	0	0
620756992	0	0
637534208	0	0
654311424	0	0
671088640	0	0
687865856	0	0
704643072	0	0
721420288	0	0
738197504	0	0
754974720	0	0
771751936	0	0
788529152	0	0
805306368	0	0
822083584	0	0
838860800	0	0
855638016	0	0
872415232	0	0
889192448	0	0
905969664	0	0
922746880	0	0
939524096	0	0
956301312	0	0
973078528	0	0
989855744	0	0
1006632960	0	0
1023410176	0	0
1040187392	0	0
1056964608	0	0
1073741824	0	0
1107296256	0	0
1140850688	0	0
1174405120	0	0
1207959552	0	0
1241513984	0	0
1275068416	0	0
1308622848	0	0
1342177280	0	0
1375731712	0	0
1409286144	0	0
1442840576	0	0
1476395008	0	0
1509949440	0	0
1543503872	0	0
1577058304	0	0
1610612736	0	0
1644167168	0	0
1677721600	0	0
1711276032	0	0
1744830464	0	0
1778384896	0	0
1811939328	0	0
1845493760	0	0
1879048192	0	0
1912602624	0	0
1946157056	0	0
1979711488	0	0
2013265920	0	0
2046820352	0	0
2080374784	0	0
2113929216	0	0
2147483648	0	0
2214592512	0	0
2281701376	0	0
2348810240	0	0
2415919104	0	0
2483027968	0	0
2550136832	0	0
2617245696	0	0
2684354560	0	0
2751463424	0	0
2818572288	0	0
2885681152	0	0
2952790016	0	0
3019898880	0	0
3087007744	0	0
3154116608	0	0
3221225472	0	0
3288334336	0	0
3355443200	0	0
3422552064	0	0
3489660928	0	0
3556769792	0	0
3623878656	0	0
3690987520	0	0
3758096384	0	0
3825205248	0	0
3892314112	0	0
3959422976	0	0
4026531840	0	0
4093640704	0	0
4160749568	0	0
4227858432	0	0
~~~~~~~~~~Reuse Distance Profiler output end~~~~~~~~~~

Sampler size:0

DRAM Statistics
 CHANNEL 0
 RQ ROW_BUFFER_HIT:      78249  ROW_BUFFER_MISS:    1215299
 DBUS AVG_CONGESTED_CYCLE:    3.90261
 WQ ROW_BUFFER_HIT:     108597  ROW_BUFFER_MISS:     175283  FULL:          0


CPU 0 Branch Prediction Accuracy: 99.2314% MPKI: 1.7094 Average ROB Occupancy at Mispredict: 48.9958
Branch type MPKI
BRANCH_DIRECT_JUMP: 3.13333e-05
BRANCH_INDIRECT: 3.93333e-05
BRANCH_CONDITIONAL: 1.70899
BRANCH_DIRECT_CALL: 3.2e-05
BRANCH_INDIRECT_CALL: 0.00027
BRANCH_RETURN: 3.66667e-05

