
*** ChampSim Multicore Out-of-Order Simulator ***

Warmup Instructions: 50000000
Simulation Instructions: 1500000000
Number of CPUs: 1
Off-chip DRAM Size: 4 GiB Channels: 1 Width: 64-bit Data Rate: 3200 MT/s

VirtualMemory physical capacity: 8588881920 num_ppages: 2096895
VirtualMemory page size: 4096 log2_page_size: 12

CPU 0 runs /s/traces/champsim_traces/410.bwaves-2097B.champsimtrace.xz
CPU 0 Bimodal branch predictor
Basic BTB sets: 1024 ways: 8 indirect buffer size: 4096 RAS size: 64
Initializing LRU.
Initializing LRU.
Initializing LRU.
Initializing LRU.
Initializing rdLRU.
Initializing LRU.
Initializing LRU.
Heartbeat CPU 0 instructions: 2000001 cycles: 881389 heartbeat IPC: 2.26915 cumulative IPC: 2.26915 (Simulation time: 0 hr 2 min 11 sec) 
Heartbeat CPU 0 instructions: 4000003 cycles: 1762647 heartbeat IPC: 2.26949 cumulative IPC: 2.26932 (Simulation time: 0 hr 4 min 13 sec) 
Heartbeat CPU 0 instructions: 6000002 cycles: 2643885 heartbeat IPC: 2.26953 cumulative IPC: 2.26939 (Simulation time: 0 hr 6 min 14 sec) 
Heartbeat CPU 0 instructions: 8000003 cycles: 3525136 heartbeat IPC: 2.2695 cumulative IPC: 2.26942 (Simulation time: 0 hr 8 min 10 sec) 
Heartbeat CPU 0 instructions: 10000001 cycles: 4406383 heartbeat IPC: 2.26951 cumulative IPC: 2.26944 (Simulation time: 0 hr 10 min 9 sec) 
Heartbeat CPU 0 instructions: 12000000 cycles: 5287642 heartbeat IPC: 2.26948 cumulative IPC: 2.26944 (Simulation time: 0 hr 12 min 8 sec) 
Heartbeat CPU 0 instructions: 14000000 cycles: 6168905 heartbeat IPC: 2.26947 cumulative IPC: 2.26945 (Simulation time: 0 hr 14 min 5 sec) 
Heartbeat CPU 0 instructions: 16000000 cycles: 7050152 heartbeat IPC: 2.26951 cumulative IPC: 2.26945 (Simulation time: 0 hr 16 min 7 sec) 
Heartbeat CPU 0 instructions: 18000000 cycles: 7931381 heartbeat IPC: 2.26956 cumulative IPC: 2.26947 (Simulation time: 0 hr 18 min 3 sec) 
Heartbeat CPU 0 instructions: 20000003 cycles: 8812660 heartbeat IPC: 2.26943 cumulative IPC: 2.26946 (Simulation time: 0 hr 19 min 57 sec) 
Heartbeat CPU 0 instructions: 22000003 cycles: 9693901 heartbeat IPC: 2.26953 cumulative IPC: 2.26947 (Simulation time: 0 hr 21 min 54 sec) 
Heartbeat CPU 0 instructions: 24000004 cycles: 10575152 heartbeat IPC: 2.2695 cumulative IPC: 2.26947 (Simulation time: 0 hr 23 min 41 sec) 
Heartbeat CPU 0 instructions: 26000000 cycles: 11456415 heartbeat IPC: 2.26947 cumulative IPC: 2.26947 (Simulation time: 0 hr 25 min 37 sec) 
Heartbeat CPU 0 instructions: 28000001 cycles: 12337672 heartbeat IPC: 2.26949 cumulative IPC: 2.26947 (Simulation time: 0 hr 27 min 34 sec) 
Heartbeat CPU 0 instructions: 30000000 cycles: 13218900 heartbeat IPC: 2.26956 cumulative IPC: 2.26948 (Simulation time: 0 hr 29 min 26 sec) 
Heartbeat CPU 0 instructions: 32000002 cycles: 14100145 heartbeat IPC: 2.26952 cumulative IPC: 2.26948 (Simulation time: 0 hr 31 min 18 sec) 
Heartbeat CPU 0 instructions: 34000004 cycles: 14981406 heartbeat IPC: 2.26948 cumulative IPC: 2.26948 (Simulation time: 0 hr 33 min 13 sec) 
Heartbeat CPU 0 instructions: 36000002 cycles: 15862667 heartbeat IPC: 2.26947 cumulative IPC: 2.26948 (Simulation time: 0 hr 35 min 7 sec) 
Heartbeat CPU 0 instructions: 38000000 cycles: 16743916 heartbeat IPC: 2.2695 cumulative IPC: 2.26948 (Simulation time: 0 hr 37 min 2 sec) 
Heartbeat CPU 0 instructions: 40000001 cycles: 17625166 heartbeat IPC: 2.2695 cumulative IPC: 2.26948 (Simulation time: 0 hr 38 min 56 sec) 
Heartbeat CPU 0 instructions: 42000003 cycles: 18506424 heartbeat IPC: 2.26949 cumulative IPC: 2.26948 (Simulation time: 0 hr 40 min 50 sec) 
Heartbeat CPU 0 instructions: 44000000 cycles: 19387661 heartbeat IPC: 2.26953 cumulative IPC: 2.26948 (Simulation time: 0 hr 42 min 41 sec) 
Heartbeat CPU 0 instructions: 46000002 cycles: 20268916 heartbeat IPC: 2.26949 cumulative IPC: 2.26948 (Simulation time: 0 hr 44 min 35 sec) 
Heartbeat CPU 0 instructions: 48000001 cycles: 21150183 heartbeat IPC: 2.26946 cumulative IPC: 2.26948 (Simulation time: 0 hr 46 min 26 sec) 
Heartbeat CPU 0 instructions: 50000004 cycles: 22031434 heartbeat IPC: 2.2695 cumulative IPC: 2.26948 (Simulation time: 0 hr 48 min 19 sec) 

Warmup complete CPU 0 instructions: 50000004 cycles: 22031434 (Simulation time: 0 hr 48 min 19 sec) 

Heartbeat CPU 0 instructions: 52000004 cycles: 27801312 heartbeat IPC: 0.346628 cumulative IPC: 0.346628 (Simulation time: 0 hr 53 min 11 sec) 

Region of Interest Statistics
cpu0_DTLB TOTAL     ACCESS:     697195  HIT:     695282  MISS:       1913
cpu0_DTLB LOAD      ACCESS:     641556  HIT:     639733  MISS:       1823
cpu0_DTLB RFO       ACCESS:      55639  HIT:      55549  MISS:         90
cpu0_DTLB PREFETCH  ACCESS:          0  HIT:          0  MISS:          0
cpu0_DTLB WRITEBACK ACCESS:          0  HIT:          0  MISS:          0
cpu0_ITLB TOTAL     ACCESS:     184988  HIT:     184988  MISS:          0
cpu0_ITLB LOAD      ACCESS:     184988  HIT:     184988  MISS:          0
cpu0_ITLB RFO       ACCESS:          0  HIT:          0  MISS:          0
cpu0_ITLB PREFETCH  ACCESS:          0  HIT:          0  MISS:          0
cpu0_ITLB WRITEBACK ACCESS:          0  HIT:          0  MISS:          0
cpu0_STLB TOTAL     ACCESS:       1913  HIT:       1364  MISS:        549
cpu0_STLB LOAD      ACCESS:       1823  HIT:       1288  MISS:        535
cpu0_STLB RFO       ACCESS:         90  HIT:         76  MISS:         14
cpu0_STLB PREFETCH  ACCESS:          0  HIT:          0  MISS:          0
cpu0_STLB WRITEBACK ACCESS:          0  HIT:          0  MISS:          0
cpu0_L1D TOTAL     ACCESS:     804755  HIT:     766129  MISS:      38626
cpu0_L1D LOAD      ACCESS:     655230  HIT:     617583  MISS:      37647
cpu0_L1D RFO       ACCESS:     148976  HIT:     148035  MISS:        941
cpu0_L1D PREFETCH  ACCESS:          0  HIT:          0  MISS:          0
cpu0_L1D WRITEBACK ACCESS:          0  HIT:          0  MISS:          0
cpu0_L2C TOTAL     ACCESS:      39571  HIT:       2864  MISS:      36707
cpu0_L2C LOAD      ACCESS:      37647  HIT:       1882  MISS:      35765
cpu0_L2C RFO       ACCESS:        941  HIT:          0  MISS:        941
cpu0_L2C PREFETCH  ACCESS:          0  HIT:          0  MISS:          0
cpu0_L2C WRITEBACK ACCESS:        945  HIT:        945  MISS:          0
LLC TOTAL     ACCESS:      37671  HIT:        964  MISS:      36707
LLC LOAD      ACCESS:      35765  HIT:          0  MISS:      35765
LLC RFO       ACCESS:        941  HIT:          0  MISS:        941
LLC PREFETCH  ACCESS:          0  HIT:          0  MISS:          0
LLC WRITEBACK ACCESS:        964  HIT:        964  MISS:          0
Heartbeat CPU 0 instructions: 54000001 cycles: 33569772 heartbeat IPC: 0.346712 cumulative IPC: 0.34667 (Simulation time: 0 hr 58 min 11 sec) 

Region of Interest Statistics
cpu0_DTLB TOTAL     ACCESS:    1394467  HIT:    1390552  MISS:       3915
cpu0_DTLB LOAD      ACCESS:    1283198  HIT:    1279485  MISS:       3713
cpu0_DTLB RFO       ACCESS:     111269  HIT:     111067  MISS:        202
cpu0_DTLB PREFETCH  ACCESS:          0  HIT:          0  MISS:          0
cpu0_DTLB WRITEBACK ACCESS:          0  HIT:          0  MISS:          0
cpu0_ITLB TOTAL     ACCESS:     370028  HIT:     370028  MISS:          0
cpu0_ITLB LOAD      ACCESS:     370028  HIT:     370028  MISS:          0
cpu0_ITLB RFO       ACCESS:          0  HIT:          0  MISS:          0
cpu0_ITLB PREFETCH  ACCESS:          0  HIT:          0  MISS:          0
cpu0_ITLB WRITEBACK ACCESS:          0  HIT:          0  MISS:          0
cpu0_STLB TOTAL     ACCESS:       3915  HIT:       2800  MISS:       1115
cpu0_STLB LOAD      ACCESS:       3713  HIT:       2627  MISS:       1086
cpu0_STLB RFO       ACCESS:        202  HIT:        173  MISS:         29
cpu0_STLB PREFETCH  ACCESS:          0  HIT:          0  MISS:          0
cpu0_STLB WRITEBACK ACCESS:          0  HIT:          0  MISS:          0
cpu0_L1D TOTAL     ACCESS:    1609524  HIT:    1532263  MISS:      77261
cpu0_L1D LOAD      ACCESS:    1310437  HIT:    1235140  MISS:      75297
cpu0_L1D RFO       ACCESS:     297972  HIT:     296090  MISS:       1882
cpu0_L1D PREFETCH  ACCESS:          0  HIT:          0  MISS:          0
cpu0_L1D WRITEBACK ACCESS:          0  HIT:          0  MISS:          0
cpu0_L2C TOTAL     ACCESS:      79149  HIT:       5733  MISS:      73416
cpu0_L2C LOAD      ACCESS:      75297  HIT:       3765  MISS:      71532
cpu0_L2C RFO       ACCESS:       1882  HIT:          0  MISS:       1882
cpu0_L2C PREFETCH  ACCESS:          0  HIT:          0  MISS:          0
cpu0_L2C WRITEBACK ACCESS:       1888  HIT:       1888  MISS:          0
LLC TOTAL     ACCESS:      75237  HIT:       1821  MISS:      73416
LLC LOAD      ACCESS:      71532  HIT:          0  MISS:      71532
LLC RFO       ACCESS:       1882  HIT:          0  MISS:       1882
LLC PREFETCH  ACCESS:          0  HIT:          0  MISS:          0
LLC WRITEBACK ACCESS:       1821  HIT:       1821  MISS:          0
Heartbeat CPU 0 instructions: 56000004 cycles: 39336064 heartbeat IPC: 0.346844 cumulative IPC: 0.346728 (Simulation time: 1 hr 3 min 8 sec) 

Region of Interest Statistics
cpu0_DTLB TOTAL     ACCESS:    2092568  HIT:    2086696  MISS:       5872
cpu0_DTLB LOAD      ACCESS:    1925655  HIT:    1920096  MISS:       5559
cpu0_DTLB RFO       ACCESS:     166913  HIT:     166600  MISS:        313
cpu0_DTLB PREFETCH  ACCESS:          0  HIT:          0  MISS:          0
cpu0_DTLB WRITEBACK ACCESS:          0  HIT:          0  MISS:          0
cpu0_ITLB TOTAL     ACCESS:     555045  HIT:     555045  MISS:          0
cpu0_ITLB LOAD      ACCESS:     555045  HIT:     555045  MISS:          0
cpu0_ITLB RFO       ACCESS:          0  HIT:          0  MISS:          0
cpu0_ITLB PREFETCH  ACCESS:          0  HIT:          0  MISS:          0
cpu0_ITLB WRITEBACK ACCESS:          0  HIT:          0  MISS:          0
cpu0_STLB TOTAL     ACCESS:       5872  HIT:       4208  MISS:       1664
cpu0_STLB LOAD      ACCESS:       5559  HIT:       3939  MISS:       1620
cpu0_STLB RFO       ACCESS:        313  HIT:        269  MISS:         44
cpu0_STLB PREFETCH  ACCESS:          0  HIT:          0  MISS:          0
cpu0_STLB WRITEBACK ACCESS:          0  HIT:          0  MISS:          0
cpu0_L1D TOTAL     ACCESS:    2414428  HIT:    2298553  MISS:     115875
cpu0_L1D LOAD      ACCESS:    1965813  HIT:    1852881  MISS:     112932
cpu0_L1D RFO       ACCESS:     446951  HIT:     444127  MISS:       2824
cpu0_L1D PREFETCH  ACCESS:          0  HIT:          0  MISS:          0
cpu0_L1D WRITEBACK ACCESS:          0  HIT:          0  MISS:          0
cpu0_L2C TOTAL     ACCESS:     118707  HIT:       8600  MISS:     110107
cpu0_L2C LOAD      ACCESS:     112932  HIT:       5651  MISS:     107281
cpu0_L2C RFO       ACCESS:       2824  HIT:          0  MISS:       2824
cpu0_L2C PREFETCH  ACCESS:          0  HIT:          0  MISS:          0
cpu0_L2C WRITEBACK ACCESS:       2832  HIT:       2832  MISS:          0
LLC TOTAL     ACCESS:     112888  HIT:       2781  MISS:     110107
LLC LOAD      ACCESS:     107281  HIT:          0  MISS:     107281
LLC RFO       ACCESS:       2824  HIT:          0  MISS:       2824
LLC PREFETCH  ACCESS:          0  HIT:          0  MISS:          0
LLC WRITEBACK ACCESS:       2781  HIT:       2781  MISS:          0
Heartbeat CPU 0 instructions: 58000002 cycles: 45103295 heartbeat IPC: 0.346787 cumulative IPC: 0.346743 (Simulation time: 1 hr 8 min 11 sec) 

Region of Interest Statistics
cpu0_DTLB TOTAL     ACCESS:    2789681  HIT:    2781813  MISS:       7868
cpu0_DTLB LOAD      ACCESS:    2567145  HIT:    2559701  MISS:       7444
cpu0_DTLB RFO       ACCESS:     222536  HIT:     222112  MISS:        424
cpu0_DTLB PREFETCH  ACCESS:          0  HIT:          0  MISS:          0
cpu0_DTLB WRITEBACK ACCESS:          0  HIT:          0  MISS:          0
cpu0_ITLB TOTAL     ACCESS:     740087  HIT:     740087  MISS:          0
cpu0_ITLB LOAD      ACCESS:     740087  HIT:     740087  MISS:          0
cpu0_ITLB RFO       ACCESS:          0  HIT:          0  MISS:          0
cpu0_ITLB PREFETCH  ACCESS:          0  HIT:          0  MISS:          0
cpu0_ITLB WRITEBACK ACCESS:          0  HIT:          0  MISS:          0
cpu0_STLB TOTAL     ACCESS:       7868  HIT:       5639  MISS:       2229
cpu0_STLB LOAD      ACCESS:       7444  HIT:       5273  MISS:       2171
cpu0_STLB RFO       ACCESS:        424  HIT:        366  MISS:         58
cpu0_STLB PREFETCH  ACCESS:          0  HIT:          0  MISS:          0
cpu0_STLB WRITEBACK ACCESS:          0  HIT:          0  MISS:          0
cpu0_L1D TOTAL     ACCESS:    3219060  HIT:    3064554  MISS:     154506
cpu0_L1D LOAD      ACCESS:    2620927  HIT:    2470348  MISS:     150579
cpu0_L1D RFO       ACCESS:     595904  HIT:     592139  MISS:       3765
cpu0_L1D PREFETCH  ACCESS:          0  HIT:          0  MISS:          0
cpu0_L1D WRITEBACK ACCESS:          0  HIT:          0  MISS:          0
cpu0_L2C TOTAL     ACCESS:     158268  HIT:      11455  MISS:     146813
cpu0_L2C LOAD      ACCESS:     150579  HIT:       7533  MISS:     143046
cpu0_L2C RFO       ACCESS:       3765  HIT:          0  MISS:       3765
cpu0_L2C PREFETCH  ACCESS:          0  HIT:          0  MISS:          0
cpu0_L2C WRITEBACK ACCESS:       3762  HIT:       3762  MISS:          0
LLC TOTAL     ACCESS:     150551  HIT:       3738  MISS:     146813
LLC LOAD      ACCESS:     143046  HIT:          0  MISS:     143046
LLC RFO       ACCESS:       3765  HIT:          0  MISS:       3765
LLC PREFETCH  ACCESS:          0  HIT:          0  MISS:          0
LLC WRITEBACK ACCESS:       3738  HIT:       3738  MISS:          0
Heartbeat CPU 0 instructions: 60000000 cycles: 50867408 heartbeat IPC: 0.346974 cumulative IPC: 0.346789 (Simulation time: 1 hr 13 min 8 sec) 

Region of Interest Statistics
cpu0_DTLB TOTAL     ACCESS:    3487579  HIT:    3478259  MISS:       9320
cpu0_DTLB LOAD      ACCESS:    3209397  HIT:    3200612  MISS:       8785
cpu0_DTLB RFO       ACCESS:     278182  HIT:     277647  MISS:        535
cpu0_DTLB PREFETCH  ACCESS:          0  HIT:          0  MISS:          0
cpu0_DTLB WRITEBACK ACCESS:          0  HIT:          0  MISS:          0
cpu0_ITLB TOTAL     ACCESS:     925122  HIT:     925122  MISS:          0
cpu0_ITLB LOAD      ACCESS:     925122  HIT:     925122  MISS:          0
cpu0_ITLB RFO       ACCESS:          0  HIT:          0  MISS:          0
cpu0_ITLB PREFETCH  ACCESS:          0  HIT:          0  MISS:          0
cpu0_ITLB WRITEBACK ACCESS:          0  HIT:          0  MISS:          0
cpu0_STLB TOTAL     ACCESS:       9320  HIT:       6542  MISS:       2778
cpu0_STLB LOAD      ACCESS:       8785  HIT:       6080  MISS:       2705
cpu0_STLB RFO       ACCESS:        535  HIT:        462  MISS:         73
cpu0_STLB PREFETCH  ACCESS:          0  HIT:          0  MISS:          0
cpu0_STLB WRITEBACK ACCESS:          0  HIT:          0  MISS:          0
cpu0_L1D TOTAL     ACCESS:    4023909  HIT:    3830772  MISS:     193137
cpu0_L1D LOAD      ACCESS:    3276229  HIT:    3087998  MISS:     188231
cpu0_L1D RFO       ACCESS:     744902  HIT:     740196  MISS:       4706
cpu0_L1D PREFETCH  ACCESS:          0  HIT:          0  MISS:          0
cpu0_L1D WRITEBACK ACCESS:          0  HIT:          0  MISS:          0
cpu0_L2C TOTAL     ACCESS:     197842  HIT:      14314  MISS:     183528
cpu0_L2C LOAD      ACCESS:     188231  HIT:       9412  MISS:     178819
cpu0_L2C RFO       ACCESS:       4706  HIT:          0  MISS:       4706
cpu0_L2C PREFETCH  ACCESS:          0  HIT:          0  MISS:          0
cpu0_L2C WRITEBACK ACCESS:       4705  HIT:       4705  MISS:          0
LLC TOTAL     ACCESS:     188200  HIT:       4676  MISS:     183524
LLC LOAD      ACCESS:     178819  HIT:          4  MISS:     178815
LLC RFO       ACCESS:       4706  HIT:          0  MISS:       4706
LLC PREFETCH  ACCESS:          0  HIT:          0  MISS:          0
LLC WRITEBACK ACCESS:       4672  HIT:       4672  MISS:          0
Heartbeat CPU 0 instructions: 62000001 cycles: 56634276 heartbeat IPC: 0.346809 cumulative IPC: 0.346792 (Simulation time: 1 hr 18 min 8 sec) 

Region of Interest Statistics
cpu0_DTLB TOTAL     ACCESS:    4184974  HIT:    4173647  MISS:      11327
cpu0_DTLB LOAD      ACCESS:    3851151  HIT:    3840468  MISS:      10683
cpu0_DTLB RFO       ACCESS:     333823  HIT:     333179  MISS:        644
cpu0_DTLB PREFETCH  ACCESS:          0  HIT:          0  MISS:          0
cpu0_DTLB WRITEBACK ACCESS:          0  HIT:          0  MISS:          0
cpu0_ITLB TOTAL     ACCESS:    1110155  HIT:    1110155  MISS:          0
cpu0_ITLB LOAD      ACCESS:    1110155  HIT:    1110155  MISS:          0
cpu0_ITLB RFO       ACCESS:          0  HIT:          0  MISS:          0
cpu0_ITLB PREFETCH  ACCESS:          0  HIT:          0  MISS:          0
cpu0_ITLB WRITEBACK ACCESS:          0  HIT:          0  MISS:          0
cpu0_STLB TOTAL     ACCESS:      11327  HIT:       7984  MISS:       3343
cpu0_STLB LOAD      ACCESS:      10683  HIT:       7428  MISS:       3255
cpu0_STLB RFO       ACCESS:        644  HIT:        556  MISS:         88
cpu0_STLB PREFETCH  ACCESS:          0  HIT:          0  MISS:          0
cpu0_STLB WRITEBACK ACCESS:          0  HIT:          0  MISS:          0
cpu0_L1D TOTAL     ACCESS:    4828736  HIT:    4596966  MISS:     231770
cpu0_L1D LOAD      ACCESS:    3931525  HIT:    3705645  MISS:     225880
cpu0_L1D RFO       ACCESS:     893868  HIT:     888221  MISS:       5647
cpu0_L1D PREFETCH  ACCESS:          0  HIT:          0  MISS:          0
cpu0_L1D WRITEBACK ACCESS:          0  HIT:          0  MISS:          0
cpu0_L2C TOTAL     ACCESS:     237418  HIT:      17185  MISS:     220233
cpu0_L2C LOAD      ACCESS:     225880  HIT:      11297  MISS:     214583
cpu0_L2C RFO       ACCESS:       5647  HIT:          0  MISS:       5647
cpu0_L2C PREFETCH  ACCESS:          0  HIT:          0  MISS:          0
cpu0_L2C WRITEBACK ACCESS:       5648  HIT:       5648  MISS:          0
LLC TOTAL     ACCESS:     225880  HIT:       5651  MISS:     220229
LLC LOAD      ACCESS:     214583  HIT:          4  MISS:     214579
LLC RFO       ACCESS:       5647  HIT:          0  MISS:       5647
LLC PREFETCH  ACCESS:          0  HIT:          0  MISS:          0
LLC WRITEBACK ACCESS:       5647  HIT:       5647  MISS:          0
Heartbeat CPU 0 instructions: 64000001 cycles: 62400499 heartbeat IPC: 0.346848 cumulative IPC: 0.3468 (Simulation time: 1 hr 23 min 2 sec) 

Region of Interest Statistics
cpu0_DTLB TOTAL     ACCESS:    4882143  HIT:    4868823  MISS:      13320
cpu0_DTLB LOAD      ACCESS:    4492696  HIT:    4480130  MISS:      12566
cpu0_DTLB RFO       ACCESS:     389447  HIT:     388693  MISS:        754
cpu0_DTLB PREFETCH  ACCESS:          0  HIT:          0  MISS:          0
cpu0_DTLB WRITEBACK ACCESS:          0  HIT:          0  MISS:          0
cpu0_ITLB TOTAL     ACCESS:    1295168  HIT:    1295168  MISS:          0
cpu0_ITLB LOAD      ACCESS:    1295168  HIT:    1295168  MISS:          0
cpu0_ITLB RFO       ACCESS:          0  HIT:          0  MISS:          0
cpu0_ITLB PREFETCH  ACCESS:          0  HIT:          0  MISS:          0
cpu0_ITLB WRITEBACK ACCESS:          0  HIT:          0  MISS:          0
cpu0_STLB TOTAL     ACCESS:      13320  HIT:       9423  MISS:       3897
cpu0_STLB LOAD      ACCESS:      12566  HIT:       8771  MISS:       3795
cpu0_STLB RFO       ACCESS:        754  HIT:        652  MISS:        102
cpu0_STLB PREFETCH  ACCESS:          0  HIT:          0  MISS:          0
cpu0_STLB WRITEBACK ACCESS:          0  HIT:          0  MISS:          0
cpu0_L1D TOTAL     ACCESS:    5633452  HIT:    5363081  MISS:     270371
cpu0_L1D LOAD      ACCESS:    4586732  HIT:    4323228  MISS:     263504
cpu0_L1D RFO       ACCESS:    1042823  HIT:    1036235  MISS:       6588
cpu0_L1D PREFETCH  ACCESS:          0  HIT:          0  MISS:          0
cpu0_L1D WRITEBACK ACCESS:          0  HIT:          0  MISS:          0
cpu0_L2C TOTAL     ACCESS:     276963  HIT:      20045  MISS:     256918
cpu0_L2C LOAD      ACCESS:     263504  HIT:      13178  MISS:     250326
cpu0_L2C RFO       ACCESS:       6588  HIT:          0  MISS:       6588
cpu0_L2C PREFETCH  ACCESS:          0  HIT:          0  MISS:          0
cpu0_L2C WRITEBACK ACCESS:       6592  HIT:       6592  MISS:          0
LLC TOTAL     ACCESS:     263476  HIT:       6572  MISS:     256904
LLC LOAD      ACCESS:     250326  HIT:         14  MISS:     250312
LLC RFO       ACCESS:       6588  HIT:          0  MISS:       6588
LLC PREFETCH  ACCESS:          0  HIT:          0  MISS:          0
LLC WRITEBACK ACCESS:       6558  HIT:       6558  MISS:          0
Heartbeat CPU 0 instructions: 66000004 cycles: 68171664 heartbeat IPC: 0.346551 cumulative IPC: 0.346769 (Simulation time: 1 hr 27 min 53 sec) 

Region of Interest Statistics
cpu0_DTLB TOTAL     ACCESS:    5579779  HIT:    5564458  MISS:      15321
cpu0_DTLB LOAD      ACCESS:    5134688  HIT:    5120232  MISS:      14456
cpu0_DTLB RFO       ACCESS:     445091  HIT:     444226  MISS:        865
cpu0_DTLB PREFETCH  ACCESS:          0  HIT:          0  MISS:          0
cpu0_DTLB WRITEBACK ACCESS:          0  HIT:          0  MISS:          0
cpu0_ITLB TOTAL     ACCESS:    1480212  HIT:    1480212  MISS:          0
cpu0_ITLB LOAD      ACCESS:    1480212  HIT:    1480212  MISS:          0
cpu0_ITLB RFO       ACCESS:          0  HIT:          0  MISS:          0
cpu0_ITLB PREFETCH  ACCESS:          0  HIT:          0  MISS:          0
cpu0_ITLB WRITEBACK ACCESS:          0  HIT:          0  MISS:          0
cpu0_STLB TOTAL     ACCESS:      15321  HIT:      10865  MISS:       4456
cpu0_STLB LOAD      ACCESS:      14456  HIT:      10117  MISS:       4339
cpu0_STLB RFO       ACCESS:        865  HIT:        748  MISS:        117
cpu0_STLB PREFETCH  ACCESS:          0  HIT:          0  MISS:          0
cpu0_STLB WRITEBACK ACCESS:          0  HIT:          0  MISS:          0
cpu0_L1D TOTAL     ACCESS:    6438517  HIT:    6129508  MISS:     309009
cpu0_L1D LOAD      ACCESS:    5242270  HIT:    4941113  MISS:     301157
cpu0_L1D RFO       ACCESS:    1191791  HIT:    1184262  MISS:       7529
cpu0_L1D PREFETCH  ACCESS:          0  HIT:          0  MISS:          0
cpu0_L1D WRITEBACK ACCESS:          0  HIT:          0  MISS:          0
cpu0_L2C TOTAL     ACCESS:     316545  HIT:      22920  MISS:     293625
cpu0_L2C LOAD      ACCESS:     301157  HIT:      15065  MISS:     286092
cpu0_L2C RFO       ACCESS:       7529  HIT:          0  MISS:       7529
cpu0_L2C PREFETCH  ACCESS:          0  HIT:          0  MISS:          0
cpu0_L2C WRITEBACK ACCESS:       7536  HIT:       7536  MISS:          0
LLC TOTAL     ACCESS:     301203  HIT:       7592  MISS:     293611
LLC LOAD      ACCESS:     286092  HIT:         14  MISS:     286078
LLC RFO       ACCESS:       7529  HIT:          0  MISS:       7529
LLC PREFETCH  ACCESS:          0  HIT:          0  MISS:          0
LLC WRITEBACK ACCESS:       7578  HIT:       7578  MISS:          0
Heartbeat CPU 0 instructions: 68000004 cycles: 73938968 heartbeat IPC: 0.346782 cumulative IPC: 0.34677 (Simulation time: 1 hr 32 min 52 sec) 

Region of Interest Statistics
cpu0_DTLB TOTAL     ACCESS:    6276996  HIT:    6259688  MISS:      17308
cpu0_DTLB LOAD      ACCESS:    5776277  HIT:    5759946  MISS:      16331
cpu0_DTLB RFO       ACCESS:     500719  HIT:     499742  MISS:        977
cpu0_DTLB PREFETCH  ACCESS:          0  HIT:          0  MISS:          0
cpu0_DTLB WRITEBACK ACCESS:          0  HIT:          0  MISS:          0
cpu0_ITLB TOTAL     ACCESS:    1665246  HIT:    1665246  MISS:          0
cpu0_ITLB LOAD      ACCESS:    1665246  HIT:    1665246  MISS:          0
cpu0_ITLB RFO       ACCESS:          0  HIT:          0  MISS:          0
cpu0_ITLB PREFETCH  ACCESS:          0  HIT:          0  MISS:          0
cpu0_ITLB WRITEBACK ACCESS:          0  HIT:          0  MISS:          0
cpu0_STLB TOTAL     ACCESS:      17308  HIT:      12295  MISS:       5013
cpu0_STLB LOAD      ACCESS:      16331  HIT:      11450  MISS:       4881
cpu0_STLB RFO       ACCESS:        977  HIT:        845  MISS:        132
cpu0_STLB PREFETCH  ACCESS:          0  HIT:          0  MISS:          0
cpu0_STLB WRITEBACK ACCESS:          0  HIT:          0  MISS:          0
cpu0_L1D TOTAL     ACCESS:    7243141  HIT:    6895502  MISS:     347639
cpu0_L1D LOAD      ACCESS:    5897350  HIT:    5558542  MISS:     338808
cpu0_L1D RFO       ACCESS:    1340778  HIT:    1332308  MISS:       8470
cpu0_L1D PREFETCH  ACCESS:          0  HIT:          0  MISS:          0
cpu0_L1D WRITEBACK ACCESS:          0  HIT:          0  MISS:          0
cpu0_L2C TOTAL     ACCESS:     356113  HIT:      25779  MISS:     330334
cpu0_L2C LOAD      ACCESS:     338808  HIT:      16948  MISS:     321860
cpu0_L2C RFO       ACCESS:       8470  HIT:          0  MISS:       8470
cpu0_L2C PREFETCH  ACCESS:          0  HIT:          0  MISS:          0
cpu0_L2C WRITEBACK ACCESS:       8474  HIT:       8474  MISS:          0
LLC TOTAL     ACCESS:     338795  HIT:       8475  MISS:     330320
LLC LOAD      ACCESS:     321860  HIT:         14  MISS:     321846
LLC RFO       ACCESS:       8470  HIT:          0  MISS:       8470
LLC PREFETCH  ACCESS:          0  HIT:          0  MISS:          0
LLC WRITEBACK ACCESS:       8461  HIT:       8461  MISS:          0
Heartbeat CPU 0 instructions: 70000001 cycles: 79703224 heartbeat IPC: 0.346965 cumulative IPC: 0.34679 (Simulation time: 1 hr 37 min 50 sec) 

Region of Interest Statistics
cpu0_DTLB TOTAL     ACCESS:    6974368  HIT:    6955663  MISS:      18705
cpu0_DTLB LOAD      ACCESS:    6418015  HIT:    6400398  MISS:      17617
cpu0_DTLB RFO       ACCESS:     556353  HIT:     555265  MISS:       1088
cpu0_DTLB PREFETCH  ACCESS:          0  HIT:          0  MISS:          0
cpu0_DTLB WRITEBACK ACCESS:          0  HIT:          0  MISS:          0
cpu0_ITLB TOTAL     ACCESS:    1850285  HIT:    1850285  MISS:          0
cpu0_ITLB LOAD      ACCESS:    1850285  HIT:    1850285  MISS:          0
cpu0_ITLB RFO       ACCESS:          0  HIT:          0  MISS:          0
cpu0_ITLB PREFETCH  ACCESS:          0  HIT:          0  MISS:          0
cpu0_ITLB WRITEBACK ACCESS:          0  HIT:          0  MISS:          0
cpu0_STLB TOTAL     ACCESS:      18705  HIT:      13137  MISS:       5568
cpu0_STLB LOAD      ACCESS:      17617  HIT:      12196  MISS:       5421
cpu0_STLB RFO       ACCESS:       1088  HIT:        941  MISS:        147
cpu0_STLB PREFETCH  ACCESS:          0  HIT:          0  MISS:          0
cpu0_STLB WRITEBACK ACCESS:          0  HIT:          0  MISS:          0
cpu0_L1D TOTAL     ACCESS:    8047911  HIT:    7661652  MISS:     386259
cpu0_L1D LOAD      ACCESS:    6552585  HIT:    6176140  MISS:     376445
cpu0_L1D RFO       ACCESS:    1489758  HIT:    1480347  MISS:       9411
cpu0_L1D PREFETCH  ACCESS:          0  HIT:          0  MISS:          0
cpu0_L1D WRITEBACK ACCESS:          0  HIT:          0  MISS:          0
cpu0_L2C TOTAL     ACCESS:     395667  HIT:      28637  MISS:     367030
cpu0_L2C LOAD      ACCESS:     376445  HIT:      18830  MISS:     357615
cpu0_L2C RFO       ACCESS:       9411  HIT:          0  MISS:       9411
cpu0_L2C PREFETCH  ACCESS:          0  HIT:          0  MISS:          0
cpu0_L2C WRITEBACK ACCESS:       9408  HIT:       9408  MISS:          0
LLC TOTAL     ACCESS:     376441  HIT:       9425  MISS:     367016
LLC LOAD      ACCESS:     357615  HIT:         14  MISS:     357601
LLC RFO       ACCESS:       9411  HIT:          0  MISS:       9411
LLC PREFETCH  ACCESS:          0  HIT:          0  MISS:          0
LLC WRITEBACK ACCESS:       9411  HIT:       9411  MISS:          0
Heartbeat CPU 0 instructions: 72000001 cycles: 85468612 heartbeat IPC: 0.346898 cumulative IPC: 0.3468 (Simulation time: 1 hr 43 min 1 sec) 

Region of Interest Statistics
cpu0_DTLB TOTAL     ACCESS:    7672122  HIT:    7651409  MISS:      20713
cpu0_DTLB LOAD      ACCESS:    7060126  HIT:    7040609  MISS:      19517
cpu0_DTLB RFO       ACCESS:     611996  HIT:     610800  MISS:       1196
cpu0_DTLB PREFETCH  ACCESS:          0  HIT:          0  MISS:          0
cpu0_DTLB WRITEBACK ACCESS:          0  HIT:          0  MISS:          0
cpu0_ITLB TOTAL     ACCESS:    2035309  HIT:    2035309  MISS:          0
cpu0_ITLB LOAD      ACCESS:    2035309  HIT:    2035309  MISS:          0
cpu0_ITLB RFO       ACCESS:          0  HIT:          0  MISS:          0
cpu0_ITLB PREFETCH  ACCESS:          0  HIT:          0  MISS:          0
cpu0_ITLB WRITEBACK ACCESS:          0  HIT:          0  MISS:          0
cpu0_STLB TOTAL     ACCESS:      20713  HIT:      14586  MISS:       6127
cpu0_STLB LOAD      ACCESS:      19517  HIT:      13551  MISS:       5966
cpu0_STLB RFO       ACCESS:       1196  HIT:       1035  MISS:        161
cpu0_STLB PREFETCH  ACCESS:          0  HIT:          0  MISS:          0
cpu0_STLB WRITEBACK ACCESS:          0  HIT:          0  MISS:          0
cpu0_L1D TOTAL     ACCESS:    8852872  HIT:    8427988  MISS:     424884
cpu0_L1D LOAD      ACCESS:    7208021  HIT:    6793931  MISS:     414090
cpu0_L1D RFO       ACCESS:    1638724  HIT:    1628372  MISS:      10352
cpu0_L1D PREFETCH  ACCESS:          0  HIT:          0  MISS:          0
cpu0_L1D WRITEBACK ACCESS:          0  HIT:          0  MISS:          0
cpu0_L2C TOTAL     ACCESS:     435236  HIT:      31506  MISS:     403730
cpu0_L2C LOAD      ACCESS:     414090  HIT:      20717  MISS:     393373
cpu0_L2C RFO       ACCESS:      10352  HIT:          0  MISS:      10352
cpu0_L2C PREFETCH  ACCESS:          0  HIT:          0  MISS:          0
cpu0_L2C WRITEBACK ACCESS:      10352  HIT:      10352  MISS:          0
LLC TOTAL     ACCESS:     414108  HIT:      10392  MISS:     403716
LLC LOAD      ACCESS:     393373  HIT:         14  MISS:     393359
LLC RFO       ACCESS:      10352  HIT:          0  MISS:      10352
LLC PREFETCH  ACCESS:          0  HIT:          0  MISS:          0
LLC WRITEBACK ACCESS:      10378  HIT:      10378  MISS:          0
Heartbeat CPU 0 instructions: 74000001 cycles: 91236213 heartbeat IPC: 0.346765 cumulative IPC: 0.346797 (Simulation time: 1 hr 47 min 57 sec) 

Region of Interest Statistics
cpu0_DTLB TOTAL     ACCESS:    8369404  HIT:    8346724  MISS:      22680
cpu0_DTLB LOAD      ACCESS:    7701775  HIT:    7680402  MISS:      21373
cpu0_DTLB RFO       ACCESS:     667629  HIT:     666322  MISS:       1307
cpu0_DTLB PREFETCH  ACCESS:          0  HIT:          0  MISS:          0
cpu0_DTLB WRITEBACK ACCESS:          0  HIT:          0  MISS:          0
cpu0_ITLB TOTAL     ACCESS:    2220337  HIT:    2220337  MISS:          0
cpu0_ITLB LOAD      ACCESS:    2220337  HIT:    2220337  MISS:          0
cpu0_ITLB RFO       ACCESS:          0  HIT:          0  MISS:          0
cpu0_ITLB PREFETCH  ACCESS:          0  HIT:          0  MISS:          0
cpu0_ITLB WRITEBACK ACCESS:          0  HIT:          0  MISS:          0
cpu0_STLB TOTAL     ACCESS:      22680  HIT:      16001  MISS:       6679
cpu0_STLB LOAD      ACCESS:      21373  HIT:      14870  MISS:       6503
cpu0_STLB RFO       ACCESS:       1307  HIT:       1131  MISS:        176
cpu0_STLB PREFETCH  ACCESS:          0  HIT:          0  MISS:          0
cpu0_STLB WRITEBACK ACCESS:          0  HIT:          0  MISS:          0
cpu0_L1D TOTAL     ACCESS:    9657611  HIT:    9194099  MISS:     463512
cpu0_L1D LOAD      ACCESS:    7863242  HIT:    7411505  MISS:     451737
cpu0_L1D RFO       ACCESS:    1787690  HIT:    1776397  MISS:      11293
cpu0_L1D PREFETCH  ACCESS:          0  HIT:          0  MISS:          0
cpu0_L1D WRITEBACK ACCESS:          0  HIT:          0  MISS:          0
cpu0_L2C TOTAL     ACCESS:     474808  HIT:      34372  MISS:     440436
cpu0_L2C LOAD      ACCESS:     451737  HIT:      22599  MISS:     429138
cpu0_L2C RFO       ACCESS:      11293  HIT:          0  MISS:      11293
cpu0_L2C PREFETCH  ACCESS:          0  HIT:          0  MISS:          0
cpu0_L2C WRITEBACK ACCESS:      11296  HIT:      11296  MISS:          0
LLC TOTAL     ACCESS:     451664  HIT:      11242  MISS:     440422
LLC LOAD      ACCESS:     429138  HIT:         14  MISS:     429124
LLC RFO       ACCESS:      11293  HIT:          0  MISS:      11293
LLC PREFETCH  ACCESS:          0  HIT:          0  MISS:          0
LLC WRITEBACK ACCESS:      11228  HIT:      11228  MISS:          0
Heartbeat CPU 0 instructions: 76000001 cycles: 97005282 heartbeat IPC: 0.346676 cumulative IPC: 0.346788 (Simulation time: 1 hr 52 min 51 sec) 

Region of Interest Statistics
cpu0_DTLB TOTAL     ACCESS:    9066864  HIT:    9042398  MISS:      24466
cpu0_DTLB LOAD      ACCESS:    8343540  HIT:    8320397  MISS:      23143
cpu0_DTLB RFO       ACCESS:     723324  HIT:     722001  MISS:       1323
cpu0_DTLB PREFETCH  ACCESS:          0  HIT:          0  MISS:          0
cpu0_DTLB WRITEBACK ACCESS:          0  HIT:          0  MISS:          0
cpu0_ITLB TOTAL     ACCESS:    2405367  HIT:    2405367  MISS:          0
cpu0_ITLB LOAD      ACCESS:    2405367  HIT:    2405367  MISS:          0
cpu0_ITLB RFO       ACCESS:          0  HIT:          0  MISS:          0
cpu0_ITLB PREFETCH  ACCESS:          0  HIT:          0  MISS:          0
cpu0_ITLB WRITEBACK ACCESS:          0  HIT:          0  MISS:          0
cpu0_STLB TOTAL     ACCESS:      24466  HIT:      17224  MISS:       7242
cpu0_STLB LOAD      ACCESS:      23143  HIT:      16092  MISS:       7051
cpu0_STLB RFO       ACCESS:       1323  HIT:       1132  MISS:        191
cpu0_STLB PREFETCH  ACCESS:          0  HIT:          0  MISS:          0
cpu0_STLB WRITEBACK ACCESS:          0  HIT:          0  MISS:          0
cpu0_L1D TOTAL     ACCESS:   10462400  HIT:    9960258  MISS:     502142
cpu0_L1D LOAD      ACCESS:    8518488  HIT:    8029104  MISS:     489384
cpu0_L1D RFO       ACCESS:    1936670  HIT:    1924436  MISS:      12234
cpu0_L1D PREFETCH  ACCESS:          0  HIT:          0  MISS:          0
cpu0_L1D WRITEBACK ACCESS:          0  HIT:          0  MISS:          0
cpu0_L2C TOTAL     ACCESS:     514382  HIT:      37239  MISS:     477143
cpu0_L2C LOAD      ACCESS:     489384  HIT:      24481  MISS:     464903
cpu0_L2C RFO       ACCESS:      12234  HIT:          0  MISS:      12234
cpu0_L2C PREFETCH  ACCESS:          0  HIT:          0  MISS:          0
cpu0_L2C WRITEBACK ACCESS:      12240  HIT:      12240  MISS:          0
LLC TOTAL     ACCESS:     489428  HIT:      12299  MISS:     477129
LLC LOAD      ACCESS:     464903  HIT:         14  MISS:     464889
LLC RFO       ACCESS:      12234  HIT:          0  MISS:      12234
LLC PREFETCH  ACCESS:          0  HIT:          0  MISS:          0
LLC WRITEBACK ACCESS:      12285  HIT:      12285  MISS:          0
Heartbeat CPU 0 instructions: 78000001 cycles: 102759721 heartbeat IPC: 0.347558 cumulative IPC: 0.346842 (Simulation time: 1 hr 57 min 48 sec) 

Region of Interest Statistics
cpu0_DTLB TOTAL     ACCESS:    9764650  HIT:    9738200  MISS:      26450
cpu0_DTLB LOAD      ACCESS:    8985688  HIT:    8960670  MISS:      25018
cpu0_DTLB RFO       ACCESS:     778962  HIT:     777530  MISS:       1432
cpu0_DTLB PREFETCH  ACCESS:          0  HIT:          0  MISS:          0
cpu0_DTLB WRITEBACK ACCESS:          0  HIT:          0  MISS:          0
cpu0_ITLB TOTAL     ACCESS:    2590409  HIT:    2590409  MISS:          0
cpu0_ITLB LOAD      ACCESS:    2590409  HIT:    2590409  MISS:          0
cpu0_ITLB RFO       ACCESS:          0  HIT:          0  MISS:          0
cpu0_ITLB PREFETCH  ACCESS:          0  HIT:          0  MISS:          0
cpu0_ITLB WRITEBACK ACCESS:          0  HIT:          0  MISS:          0
cpu0_STLB TOTAL     ACCESS:      26450  HIT:      18659  MISS:       7791
cpu0_STLB LOAD      ACCESS:      25018  HIT:      17432  MISS:       7586
cpu0_STLB RFO       ACCESS:       1432  HIT:       1227  MISS:        205
cpu0_STLB PREFETCH  ACCESS:          0  HIT:          0  MISS:          0
cpu0_STLB WRITEBACK ACCESS:          0  HIT:          0  MISS:          0
cpu0_L1D TOTAL     ACCESS:   11267245  HIT:   10726486  MISS:     540759
cpu0_L1D LOAD      ACCESS:    9173801  HIT:    8646779  MISS:     527022
cpu0_L1D RFO       ACCESS:    2085653  HIT:    2072478  MISS:      13175
cpu0_L1D PREFETCH  ACCESS:          0  HIT:          0  MISS:          0
cpu0_L1D WRITEBACK ACCESS:          0  HIT:          0  MISS:          0
cpu0_L2C TOTAL     ACCESS:     553942  HIT:      40107  MISS:     513835
cpu0_L2C LOAD      ACCESS:     527022  HIT:      26368  MISS:     500654
cpu0_L2C RFO       ACCESS:      13175  HIT:          0  MISS:      13175
cpu0_L2C PREFETCH  ACCESS:          0  HIT:          0  MISS:          0
cpu0_L2C WRITEBACK ACCESS:      13183  HIT:      13183  MISS:          0
LLC TOTAL     ACCESS:     527019  HIT:      13262  MISS:     513757
LLC LOAD      ACCESS:     500654  HIT:         78  MISS:     500576
LLC RFO       ACCESS:      13175  HIT:          0  MISS:      13175
LLC PREFETCH  ACCESS:          0  HIT:          0  MISS:          0
LLC WRITEBACK ACCESS:      13184  HIT:      13184  MISS:          0
Heartbeat CPU 0 instructions: 80000001 cycles: 108526009 heartbeat IPC: 0.346844 cumulative IPC: 0.346843 (Simulation time: 2 hr 2 min 33 sec) 

Region of Interest Statistics
cpu0_DTLB TOTAL     ACCESS:   10461947  HIT:   10433530  MISS:      28417
cpu0_DTLB LOAD      ACCESS:    9627358  HIT:    9600485  MISS:      26873
cpu0_DTLB RFO       ACCESS:     834589  HIT:     833045  MISS:       1544
cpu0_DTLB PREFETCH  ACCESS:          0  HIT:          0  MISS:          0
cpu0_DTLB WRITEBACK ACCESS:          0  HIT:          0  MISS:          0
cpu0_ITLB TOTAL     ACCESS:    2775442  HIT:    2775442  MISS:          0
cpu0_ITLB LOAD      ACCESS:    2775442  HIT:    2775442  MISS:          0
cpu0_ITLB RFO       ACCESS:          0  HIT:          0  MISS:          0
cpu0_ITLB PREFETCH  ACCESS:          0  HIT:          0  MISS:          0
cpu0_ITLB WRITEBACK ACCESS:          0  HIT:          0  MISS:          0
cpu0_STLB TOTAL     ACCESS:      28417  HIT:      20061  MISS:       8356
cpu0_STLB LOAD      ACCESS:      26873  HIT:      18737  MISS:       8136
cpu0_STLB RFO       ACCESS:       1544  HIT:       1324  MISS:        220
cpu0_STLB PREFETCH  ACCESS:          0  HIT:          0  MISS:          0
cpu0_STLB WRITEBACK ACCESS:          0  HIT:          0  MISS:          0
cpu0_L1D TOTAL     ACCESS:   12072008  HIT:   11492618  MISS:     579390
cpu0_L1D LOAD      ACCESS:    9829018  HIT:    9264349  MISS:     564669
cpu0_L1D RFO       ACCESS:    2234634  HIT:    2220518  MISS:      14116
cpu0_L1D PREFETCH  ACCESS:          0  HIT:          0  MISS:          0
cpu0_L1D WRITEBACK ACCESS:          0  HIT:          0  MISS:          0
cpu0_L2C TOTAL     ACCESS:     593503  HIT:      42962  MISS:     550541
cpu0_L2C LOAD      ACCESS:     564669  HIT:      28250  MISS:     536419
cpu0_L2C RFO       ACCESS:      14116  HIT:          0  MISS:      14116
cpu0_L2C PREFETCH  ACCESS:          0  HIT:          0  MISS:          0
cpu0_L2C WRITEBACK ACCESS:      14113  HIT:      14113  MISS:          0
LLC TOTAL     ACCESS:     564685  HIT:      14222  MISS:     550463
LLC LOAD      ACCESS:     536419  HIT:         78  MISS:     536341
LLC RFO       ACCESS:      14116  HIT:          0  MISS:      14116
LLC PREFETCH  ACCESS:          0  HIT:          0  MISS:          0
LLC WRITEBACK ACCESS:      14144  HIT:      14144  MISS:          0
Heartbeat CPU 0 instructions: 82000003 cycles: 114293273 heartbeat IPC: 0.346785 cumulative IPC: 0.346839 (Simulation time: 2 hr 7 min 28 sec) 

Region of Interest Statistics
cpu0_DTLB TOTAL     ACCESS:   11159235  HIT:   11128808  MISS:      30427
cpu0_DTLB LOAD      ACCESS:   10269008  HIT:   10240236  MISS:      28772
cpu0_DTLB RFO       ACCESS:     890227  HIT:     888572  MISS:       1655
cpu0_DTLB PREFETCH  ACCESS:          0  HIT:          0  MISS:          0
cpu0_DTLB WRITEBACK ACCESS:          0  HIT:          0  MISS:          0
cpu0_ITLB TOTAL     ACCESS:    2960472  HIT:    2960472  MISS:          0
cpu0_ITLB LOAD      ACCESS:    2960472  HIT:    2960472  MISS:          0
cpu0_ITLB RFO       ACCESS:          0  HIT:          0  MISS:          0
cpu0_ITLB PREFETCH  ACCESS:          0  HIT:          0  MISS:          0
cpu0_ITLB WRITEBACK ACCESS:          0  HIT:          0  MISS:          0
cpu0_STLB TOTAL     ACCESS:      30427  HIT:      21522  MISS:       8905
cpu0_STLB LOAD      ACCESS:      28772  HIT:      20102  MISS:       8670
cpu0_STLB RFO       ACCESS:       1655  HIT:       1420  MISS:        235
cpu0_STLB PREFETCH  ACCESS:          0  HIT:          0  MISS:          0
cpu0_STLB WRITEBACK ACCESS:          0  HIT:          0  MISS:          0
cpu0_L1D TOTAL     ACCESS:   12876761  HIT:   12258742  MISS:     618019
cpu0_L1D LOAD      ACCESS:   10484246  HIT:    9881927  MISS:     602319
cpu0_L1D RFO       ACCESS:    2383610  HIT:    2368553  MISS:      15057
cpu0_L1D PREFETCH  ACCESS:          0  HIT:          0  MISS:          0
cpu0_L1D WRITEBACK ACCESS:          0  HIT:          0  MISS:          0
cpu0_L2C TOTAL     ACCESS:     633075  HIT:      45826  MISS:     587249
cpu0_L2C LOAD      ACCESS:     602319  HIT:      30133  MISS:     572186
cpu0_L2C RFO       ACCESS:      15057  HIT:          0  MISS:      15057
cpu0_L2C PREFETCH  ACCESS:          0  HIT:          0  MISS:          0
cpu0_L2C WRITEBACK ACCESS:      15056  HIT:      15056  MISS:          0
LLC TOTAL     ACCESS:     602334  HIT:      15163  MISS:     587171
LLC LOAD      ACCESS:     572186  HIT:         78  MISS:     572108
LLC RFO       ACCESS:      15057  HIT:          0  MISS:      15057
LLC PREFETCH  ACCESS:          0  HIT:          0  MISS:          0
LLC WRITEBACK ACCESS:      15085  HIT:      15085  MISS:          0
Heartbeat CPU 0 instructions: 84000004 cycles: 120058812 heartbeat IPC: 0.346889 cumulative IPC: 0.346842 (Simulation time: 2 hr 12 min 29 sec) 

Region of Interest Statistics
cpu0_DTLB TOTAL     ACCESS:   11857200  HIT:   11824778  MISS:      32422
cpu0_DTLB LOAD      ACCESS:   10911317  HIT:   10880659  MISS:      30658
cpu0_DTLB RFO       ACCESS:     945883  HIT:     944119  MISS:       1764
cpu0_DTLB PREFETCH  ACCESS:          0  HIT:          0  MISS:          0
cpu0_DTLB WRITEBACK ACCESS:          0  HIT:          0  MISS:          0
cpu0_ITLB TOTAL     ACCESS:    3145514  HIT:    3145514  MISS:          0
cpu0_ITLB LOAD      ACCESS:    3145514  HIT:    3145514  MISS:          0
cpu0_ITLB RFO       ACCESS:          0  HIT:          0  MISS:          0
cpu0_ITLB PREFETCH  ACCESS:          0  HIT:          0  MISS:          0
cpu0_ITLB WRITEBACK ACCESS:          0  HIT:          0  MISS:          0
cpu0_STLB TOTAL     ACCESS:      32422  HIT:      22952  MISS:       9470
cpu0_STLB LOAD      ACCESS:      30658  HIT:      21438  MISS:       9220
cpu0_STLB RFO       ACCESS:       1764  HIT:       1514  MISS:        250
cpu0_STLB PREFETCH  ACCESS:          0  HIT:          0  MISS:          0
cpu0_STLB WRITEBACK ACCESS:          0  HIT:          0  MISS:          0
cpu0_L1D TOTAL     ACCESS:   13681851  HIT:   13025192  MISS:     656659
cpu0_L1D LOAD      ACCESS:   11139785  HIT:   10499811  MISS:     639974
cpu0_L1D RFO       ACCESS:    2532596  HIT:    2516597  MISS:      15999
cpu0_L1D PREFETCH  ACCESS:          0  HIT:          0  MISS:          0
cpu0_L1D WRITEBACK ACCESS:          0  HIT:          0  MISS:          0
cpu0_L2C TOTAL     ACCESS:     672659  HIT:      48701  MISS:     623958
cpu0_L2C LOAD      ACCESS:     639974  HIT:      32022  MISS:     607952
cpu0_L2C RFO       ACCESS:      15999  HIT:          0  MISS:      15999
cpu0_L2C PREFETCH  ACCESS:          0  HIT:          0  MISS:          0
cpu0_L2C WRITEBACK ACCESS:      16000  HIT:      16000  MISS:          0
LLC TOTAL     ACCESS:     639959  HIT:      16079  MISS:     623880
LLC LOAD      ACCESS:     607952  HIT:         78  MISS:     607874
LLC RFO       ACCESS:      15999  HIT:          0  MISS:      15999
LLC PREFETCH  ACCESS:          0  HIT:          0  MISS:          0
LLC WRITEBACK ACCESS:      16001  HIT:      16001  MISS:          0
Heartbeat CPU 0 instructions: 86000002 cycles: 125825292 heartbeat IPC: 0.346832 cumulative IPC: 0.346841 (Simulation time: 2 hr 17 min 27 sec) 

Region of Interest Statistics
cpu0_DTLB TOTAL     ACCESS:   12554370  HIT:   12520540  MISS:      33830
cpu0_DTLB LOAD      ACCESS:   11552867  HIT:   11520911  MISS:      31956
cpu0_DTLB RFO       ACCESS:    1001503  HIT:     999629  MISS:       1874
cpu0_DTLB PREFETCH  ACCESS:          0  HIT:          0  MISS:          0
cpu0_DTLB WRITEBACK ACCESS:          0  HIT:          0  MISS:          0
cpu0_ITLB TOTAL     ACCESS:    3330540  HIT:    3330540  MISS:          0
cpu0_ITLB LOAD      ACCESS:    3330540  HIT:    3330540  MISS:          0
cpu0_ITLB RFO       ACCESS:          0  HIT:          0  MISS:          0
cpu0_ITLB PREFETCH  ACCESS:          0  HIT:          0  MISS:          0
cpu0_ITLB WRITEBACK ACCESS:          0  HIT:          0  MISS:          0
cpu0_STLB TOTAL     ACCESS:      33830  HIT:      23813  MISS:      10017
cpu0_STLB LOAD      ACCESS:      31956  HIT:      22203  MISS:       9753
cpu0_STLB RFO       ACCESS:       1874  HIT:       1610  MISS:        264
cpu0_STLB PREFETCH  ACCESS:          0  HIT:          0  MISS:          0
cpu0_STLB WRITEBACK ACCESS:          0  HIT:          0  MISS:          0
cpu0_L1D TOTAL     ACCESS:   14486415  HIT:   13791151  MISS:     695264
cpu0_L1D LOAD      ACCESS:   11794851  HIT:   11117249  MISS:     677602
cpu0_L1D RFO       ACCESS:    2681547  HIT:    2664607  MISS:      16940
cpu0_L1D PREFETCH  ACCESS:          0  HIT:          0  MISS:          0
cpu0_L1D WRITEBACK ACCESS:          0  HIT:          0  MISS:          0
cpu0_L2C TOTAL     ACCESS:     712209  HIT:      51561  MISS:     660648
cpu0_L2C LOAD      ACCESS:     677602  HIT:      33902  MISS:     643700
cpu0_L2C RFO       ACCESS:      16940  HIT:          0  MISS:      16940
cpu0_L2C PREFETCH  ACCESS:          0  HIT:          0  MISS:          0
cpu0_L2C WRITEBACK ACCESS:      16945  HIT:      16945  MISS:          0
LLC TOTAL     ACCESS:     677589  HIT:      17019  MISS:     660570
LLC LOAD      ACCESS:     643700  HIT:         78  MISS:     643622
LLC RFO       ACCESS:      16940  HIT:          0  MISS:      16940
LLC PREFETCH  ACCESS:          0  HIT:          0  MISS:          0
LLC WRITEBACK ACCESS:      16941  HIT:      16941  MISS:          0
Heartbeat CPU 0 instructions: 88000001 cycles: 131587813 heartbeat IPC: 0.34707 cumulative IPC: 0.346853 (Simulation time: 2 hr 22 min 19 sec) 

Region of Interest Statistics
cpu0_DTLB TOTAL     ACCESS:   13251710  HIT:   13215869  MISS:      35841
cpu0_DTLB LOAD      ACCESS:   12194575  HIT:   12160719  MISS:      33856
cpu0_DTLB RFO       ACCESS:    1057135  HIT:    1055150  MISS:       1985
cpu0_DTLB PREFETCH  ACCESS:          0  HIT:          0  MISS:          0
cpu0_DTLB WRITEBACK ACCESS:          0  HIT:          0  MISS:          0
cpu0_ITLB TOTAL     ACCESS:    3515571  HIT:    3515571  MISS:          0
cpu0_ITLB LOAD      ACCESS:    3515571  HIT:    3515571  MISS:          0
cpu0_ITLB RFO       ACCESS:          0  HIT:          0  MISS:          0
cpu0_ITLB PREFETCH  ACCESS:          0  HIT:          0  MISS:          0
cpu0_ITLB WRITEBACK ACCESS:          0  HIT:          0  MISS:          0
cpu0_STLB TOTAL     ACCESS:      35841  HIT:      25257  MISS:      10584
cpu0_STLB LOAD      ACCESS:      33856  HIT:      23551  MISS:      10305
cpu0_STLB RFO       ACCESS:       1985  HIT:       1706  MISS:        279
cpu0_STLB PREFETCH  ACCESS:          0  HIT:          0  MISS:          0
cpu0_STLB WRITEBACK ACCESS:          0  HIT:          0  MISS:          0
cpu0_L1D TOTAL     ACCESS:   15291197  HIT:   14557296  MISS:     733901
cpu0_L1D LOAD      ACCESS:   12450090  HIT:   11734837  MISS:     715253
cpu0_L1D RFO       ACCESS:    2830523  HIT:    2812642  MISS:      17881
cpu0_L1D PREFETCH  ACCESS:          0  HIT:          0  MISS:          0
cpu0_L1D WRITEBACK ACCESS:          0  HIT:          0  MISS:          0
cpu0_L2C TOTAL     ACCESS:     751789  HIT:      54432  MISS:     697357
cpu0_L2C LOAD      ACCESS:     715253  HIT:      35785  MISS:     679468
cpu0_L2C RFO       ACCESS:      17881  HIT:          0  MISS:      17881
cpu0_L2C PREFETCH  ACCESS:          0  HIT:          0  MISS:          0
cpu0_L2C WRITEBACK ACCESS:      17888  HIT:      17888  MISS:          0
LLC TOTAL     ACCESS:     715277  HIT:      17998  MISS:     697279
LLC LOAD      ACCESS:     679468  HIT:         78  MISS:     679390
LLC RFO       ACCESS:      17881  HIT:          0  MISS:      17881
LLC PREFETCH  ACCESS:          0  HIT:          0  MISS:          0
LLC WRITEBACK ACCESS:      17920  HIT:      17920  MISS:          0
Heartbeat CPU 0 instructions: 90000003 cycles: 137357913 heartbeat IPC: 0.346615 cumulative IPC: 0.346841 (Simulation time: 2 hr 27 min 4 sec) 

Region of Interest Statistics
cpu0_DTLB TOTAL     ACCESS:   13949357  HIT:   13911540  MISS:      37817
cpu0_DTLB LOAD      ACCESS:   12836587  HIT:   12800867  MISS:      35720
cpu0_DTLB RFO       ACCESS:    1112770  HIT:    1110673  MISS:       2097
cpu0_DTLB PREFETCH  ACCESS:          0  HIT:          0  MISS:          0
cpu0_DTLB WRITEBACK ACCESS:          0  HIT:          0  MISS:          0
cpu0_ITLB TOTAL     ACCESS:    3700607  HIT:    3700607  MISS:          0
cpu0_ITLB LOAD      ACCESS:    3700607  HIT:    3700607  MISS:          0
cpu0_ITLB RFO       ACCESS:          0  HIT:          0  MISS:          0
cpu0_ITLB PREFETCH  ACCESS:          0  HIT:          0  MISS:          0
cpu0_ITLB WRITEBACK ACCESS:          0  HIT:          0  MISS:          0
cpu0_STLB TOTAL     ACCESS:      37817  HIT:      26686  MISS:      11131
cpu0_STLB LOAD      ACCESS:      35720  HIT:      24883  MISS:      10837
cpu0_STLB RFO       ACCESS:       2097  HIT:       1803  MISS:        294
cpu0_STLB PREFETCH  ACCESS:          0  HIT:          0  MISS:          0
cpu0_STLB WRITEBACK ACCESS:          0  HIT:          0  MISS:          0
cpu0_L1D TOTAL     ACCESS:   16096145  HIT:   15323614  MISS:     772531
cpu0_L1D LOAD      ACCESS:   13105503  HIT:   12352597  MISS:     752906
cpu0_L1D RFO       ACCESS:    2979511  HIT:    2960689  MISS:      18822
cpu0_L1D PREFETCH  ACCESS:          0  HIT:          0  MISS:          0
cpu0_L1D WRITEBACK ACCESS:          0  HIT:          0  MISS:          0
cpu0_L2C TOTAL     ACCESS:     791356  HIT:      57293  MISS:     734063
cpu0_L2C LOAD      ACCESS:     752906  HIT:      37673  MISS:     715233
cpu0_L2C RFO       ACCESS:      18822  HIT:          0  MISS:      18822
cpu0_L2C PREFETCH  ACCESS:          0  HIT:          0  MISS:          0
cpu0_L2C WRITEBACK ACCESS:      18825  HIT:      18825  MISS:          0
LLC TOTAL     ACCESS:     752879  HIT:      18894  MISS:     733985
LLC LOAD      ACCESS:     715233  HIT:         78  MISS:     715155
LLC RFO       ACCESS:      18822  HIT:          0  MISS:      18822
LLC PREFETCH  ACCESS:          0  HIT:          0  MISS:          0
LLC WRITEBACK ACCESS:      18816  HIT:      18816  MISS:          0
Heartbeat CPU 0 instructions: 92000004 cycles: 143124010 heartbeat IPC: 0.346855 cumulative IPC: 0.346842 (Simulation time: 2 hr 31 min 57 sec) 

Region of Interest Statistics
cpu0_DTLB TOTAL     ACCESS:   14646415  HIT:   14606576  MISS:      39839
cpu0_DTLB LOAD      ACCESS:   13478003  HIT:   13440371  MISS:      37632
cpu0_DTLB RFO       ACCESS:    1168412  HIT:    1166205  MISS:       2207
cpu0_DTLB PREFETCH  ACCESS:          0  HIT:          0  MISS:          0
cpu0_DTLB WRITEBACK ACCESS:          0  HIT:          0  MISS:          0
cpu0_ITLB TOTAL     ACCESS:    3885637  HIT:    3885637  MISS:          0
cpu0_ITLB LOAD      ACCESS:    3885637  HIT:    3885637  MISS:          0
cpu0_ITLB RFO       ACCESS:          0  HIT:          0  MISS:          0
cpu0_ITLB PREFETCH  ACCESS:          0  HIT:          0  MISS:          0
cpu0_ITLB WRITEBACK ACCESS:          0  HIT:          0  MISS:          0
cpu0_STLB TOTAL     ACCESS:      39839  HIT:      28144  MISS:      11695
cpu0_STLB LOAD      ACCESS:      37632  HIT:      26245  MISS:      11387
cpu0_STLB RFO       ACCESS:       2207  HIT:       1899  MISS:        308
cpu0_STLB PREFETCH  ACCESS:          0  HIT:          0  MISS:          0
cpu0_STLB WRITEBACK ACCESS:          0  HIT:          0  MISS:          0
cpu0_L1D TOTAL     ACCESS:   16900851  HIT:   16089706  MISS:     811145
cpu0_L1D LOAD      ACCESS:   13760638  HIT:   12970103  MISS:     790535
cpu0_L1D RFO       ACCESS:    3128518  HIT:    3108755  MISS:      19763
cpu0_L1D PREFETCH  ACCESS:          0  HIT:          0  MISS:          0
cpu0_L1D WRITEBACK ACCESS:          0  HIT:          0  MISS:          0
cpu0_L2C TOTAL     ACCESS:     830905  HIT:      60153  MISS:     770752
cpu0_L2C LOAD      ACCESS:     790535  HIT:      39554  MISS:     750981
cpu0_L2C RFO       ACCESS:      19763  HIT:          0  MISS:      19763
cpu0_L2C PREFETCH  ACCESS:          0  HIT:          0  MISS:          0
cpu0_L2C WRITEBACK ACCESS:      19760  HIT:      19760  MISS:          0
LLC TOTAL     ACCESS:     790509  HIT:      19835  MISS:     770674
LLC LOAD      ACCESS:     750981  HIT:         78  MISS:     750903
LLC RFO       ACCESS:      19763  HIT:          0  MISS:      19763
LLC PREFETCH  ACCESS:          0  HIT:          0  MISS:          0
LLC WRITEBACK ACCESS:      19757  HIT:      19757  MISS:          0
Heartbeat CPU 0 instructions: 94000000 cycles: 148892312 heartbeat IPC: 0.346722 cumulative IPC: 0.346837 (Simulation time: 2 hr 36 min 51 sec) 

Region of Interest Statistics
cpu0_DTLB TOTAL     ACCESS:   15344425  HIT:   15302599  MISS:      41826
cpu0_DTLB LOAD      ACCESS:   14120370  HIT:   14080860  MISS:      39510
cpu0_DTLB RFO       ACCESS:    1224055  HIT:    1221739  MISS:       2316
cpu0_DTLB PREFETCH  ACCESS:          0  HIT:          0  MISS:          0
cpu0_DTLB WRITEBACK ACCESS:          0  HIT:          0  MISS:          0
cpu0_ITLB TOTAL     ACCESS:    4070667  HIT:    4070667  MISS:          0
cpu0_ITLB LOAD      ACCESS:    4070667  HIT:    4070667  MISS:          0
cpu0_ITLB RFO       ACCESS:          0  HIT:          0  MISS:          0
cpu0_ITLB PREFETCH  ACCESS:          0  HIT:          0  MISS:          0
cpu0_ITLB WRITEBACK ACCESS:          0  HIT:          0  MISS:          0
cpu0_STLB TOTAL     ACCESS:      41826  HIT:      29580  MISS:      12246
cpu0_STLB LOAD      ACCESS:      39510  HIT:      27587  MISS:      11923
cpu0_STLB RFO       ACCESS:       2316  HIT:       1993  MISS:        323
cpu0_STLB PREFETCH  ACCESS:          0  HIT:          0  MISS:          0
cpu0_STLB WRITEBACK ACCESS:          0  HIT:          0  MISS:          0
cpu0_L1D TOTAL     ACCESS:   17705906  HIT:   16856126  MISS:     849780
cpu0_L1D LOAD      ACCESS:   14416188  HIT:   13587997  MISS:     828191
cpu0_L1D RFO       ACCESS:    3277472  HIT:    3256768  MISS:      20704
cpu0_L1D PREFETCH  ACCESS:          0  HIT:          0  MISS:          0
cpu0_L1D WRITEBACK ACCESS:          0  HIT:          0  MISS:          0
cpu0_L2C TOTAL     ACCESS:     870485  HIT:      63024  MISS:     807461
cpu0_L2C LOAD      ACCESS:     828191  HIT:      41442  MISS:     786749
cpu0_L2C RFO       ACCESS:      20704  HIT:          0  MISS:      20704
cpu0_L2C PREFETCH  ACCESS:          0  HIT:          0  MISS:          0
cpu0_L2C WRITEBACK ACCESS:      20705  HIT:      20705  MISS:          0
LLC TOTAL     ACCESS:     828103  HIT:      20720  MISS:     807383
LLC LOAD      ACCESS:     786749  HIT:         78  MISS:     786671
LLC RFO       ACCESS:      20704  HIT:          0  MISS:      20704
LLC PREFETCH  ACCESS:          0  HIT:          0  MISS:          0
LLC WRITEBACK ACCESS:      20642  HIT:      20642  MISS:          0
Heartbeat CPU 0 instructions: 96000004 cycles: 154658787 heartbeat IPC: 0.346833 cumulative IPC: 0.346836 (Simulation time: 2 hr 41 min 42 sec) 

Region of Interest Statistics
cpu0_DTLB TOTAL     ACCESS:   16041811  HIT:   15998613  MISS:      43198
cpu0_DTLB LOAD      ACCESS:   14762119  HIT:   14721348  MISS:      40771
cpu0_DTLB RFO       ACCESS:    1279692  HIT:    1277265  MISS:       2427
cpu0_DTLB PREFETCH  ACCESS:          0  HIT:          0  MISS:          0
cpu0_DTLB WRITEBACK ACCESS:          0  HIT:          0  MISS:          0
cpu0_ITLB TOTAL     ACCESS:    4255702  HIT:    4255702  MISS:          0
cpu0_ITLB LOAD      ACCESS:    4255702  HIT:    4255702  MISS:          0
cpu0_ITLB RFO       ACCESS:          0  HIT:          0  MISS:          0
cpu0_ITLB PREFETCH  ACCESS:          0  HIT:          0  MISS:          0
cpu0_ITLB WRITEBACK ACCESS:          0  HIT:          0  MISS:          0
cpu0_STLB TOTAL     ACCESS:      43198  HIT:      30391  MISS:      12807
cpu0_STLB LOAD      ACCESS:      40771  HIT:      28302  MISS:      12469
cpu0_STLB RFO       ACCESS:       2427  HIT:       2089  MISS:        338
cpu0_STLB PREFETCH  ACCESS:          0  HIT:          0  MISS:          0
cpu0_STLB WRITEBACK ACCESS:          0  HIT:          0  MISS:          0
cpu0_L1D TOTAL     ACCESS:   18510567  HIT:   17622158  MISS:     888409
cpu0_L1D LOAD      ACCESS:   15071308  HIT:   14205470  MISS:     865838
cpu0_L1D RFO       ACCESS:    3426452  HIT:    3404807  MISS:      21645
cpu0_L1D PREFETCH  ACCESS:          0  HIT:          0  MISS:          0
cpu0_L1D WRITEBACK ACCESS:          0  HIT:          0  MISS:          0
cpu0_L2C TOTAL     ACCESS:     910057  HIT:      65890  MISS:     844167
cpu0_L2C LOAD      ACCESS:     865838  HIT:      43324  MISS:     822514
cpu0_L2C RFO       ACCESS:      21645  HIT:          0  MISS:      21645
cpu0_L2C PREFETCH  ACCESS:          0  HIT:          0  MISS:          0
cpu0_L2C WRITEBACK ACCESS:      21648  HIT:      21648  MISS:          0
LLC TOTAL     ACCESS:     865793  HIT:      21704  MISS:     844089
LLC LOAD      ACCESS:     822514  HIT:         78  MISS:     822436
LLC RFO       ACCESS:      21645  HIT:          0  MISS:      21645
LLC PREFETCH  ACCESS:          0  HIT:          0  MISS:          0
LLC WRITEBACK ACCESS:      21626  HIT:      21626  MISS:          0
Heartbeat CPU 0 instructions: 98000000 cycles: 160427138 heartbeat IPC: 0.346719 cumulative IPC: 0.346832 (Simulation time: 2 hr 46 min 40 sec) 

Region of Interest Statistics
cpu0_DTLB TOTAL     ACCESS:   16739015  HIT:   16693825  MISS:      45190
cpu0_DTLB LOAD      ACCESS:   15403688  HIT:   15361034  MISS:      42654
cpu0_DTLB RFO       ACCESS:    1335327  HIT:    1332791  MISS:       2536
cpu0_DTLB PREFETCH  ACCESS:          0  HIT:          0  MISS:          0
cpu0_DTLB WRITEBACK ACCESS:          0  HIT:          0  MISS:          0
cpu0_ITLB TOTAL     ACCESS:    4440730  HIT:    4440730  MISS:          0
cpu0_ITLB LOAD      ACCESS:    4440730  HIT:    4440730  MISS:          0
cpu0_ITLB RFO       ACCESS:          0  HIT:          0  MISS:          0
cpu0_ITLB PREFETCH  ACCESS:          0  HIT:          0  MISS:          0
cpu0_ITLB WRITEBACK ACCESS:          0  HIT:          0  MISS:          0
cpu0_STLB TOTAL     ACCESS:      45190  HIT:      31829  MISS:      13361
cpu0_STLB LOAD      ACCESS:      42654  HIT:      29645  MISS:      13009
cpu0_STLB RFO       ACCESS:       2536  HIT:       2184  MISS:        352
cpu0_STLB PREFETCH  ACCESS:          0  HIT:          0  MISS:          0
cpu0_STLB WRITEBACK ACCESS:          0  HIT:          0  MISS:          0
cpu0_L1D TOTAL     ACCESS:   19315316  HIT:   18388278  MISS:     927038
cpu0_L1D LOAD      ACCESS:   15726523  HIT:   14823038  MISS:     903485
cpu0_L1D RFO       ACCESS:    3575432  HIT:    3552846  MISS:      22586
cpu0_L1D PREFETCH  ACCESS:          0  HIT:          0  MISS:          0
cpu0_L1D WRITEBACK ACCESS:          0  HIT:          0  MISS:          0
cpu0_L2C TOTAL     ACCESS:     949630  HIT:      68756  MISS:     880874
cpu0_L2C LOAD      ACCESS:     903485  HIT:      45206  MISS:     858279
cpu0_L2C RFO       ACCESS:      22586  HIT:          0  MISS:      22586
cpu0_L2C PREFETCH  ACCESS:          0  HIT:          0  MISS:          0
cpu0_L2C WRITEBACK ACCESS:      22592  HIT:      22592  MISS:          0
LLC TOTAL     ACCESS:     903338  HIT:      22542  MISS:     880796
LLC LOAD      ACCESS:     858279  HIT:         78  MISS:     858201
LLC RFO       ACCESS:      22586  HIT:          0  MISS:      22586
LLC PREFETCH  ACCESS:          0  HIT:          0  MISS:          0
LLC WRITEBACK ACCESS:      22464  HIT:      22464  MISS:          0
Heartbeat CPU 0 instructions: 100000003 cycles: 166192071 heartbeat IPC: 0.346926 cumulative IPC: 0.346835 (Simulation time: 2 hr 51 min 38 sec) 

Region of Interest Statistics
cpu0_DTLB TOTAL     ACCESS:   17437166  HIT:   17390208  MISS:      46958
cpu0_DTLB LOAD      ACCESS:   16046151  HIT:   16001745  MISS:      44406
cpu0_DTLB RFO       ACCESS:    1391015  HIT:    1388463  MISS:       2552
cpu0_DTLB PREFETCH  ACCESS:          0  HIT:          0  MISS:          0
cpu0_DTLB WRITEBACK ACCESS:          0  HIT:          0  MISS:          0
cpu0_ITLB TOTAL     ACCESS:    4625749  HIT:    4625749  MISS:          0
cpu0_ITLB LOAD      ACCESS:    4625749  HIT:    4625749  MISS:          0
cpu0_ITLB RFO       ACCESS:          0  HIT:          0  MISS:          0
cpu0_ITLB PREFETCH  ACCESS:          0  HIT:          0  MISS:          0
cpu0_ITLB WRITEBACK ACCESS:          0  HIT:          0  MISS:          0
cpu0_STLB TOTAL     ACCESS:      46958  HIT:      33040  MISS:      13918
cpu0_STLB LOAD      ACCESS:      44406  HIT:      30855  MISS:      13551
cpu0_STLB RFO       ACCESS:       2552  HIT:       2185  MISS:        367
cpu0_STLB PREFETCH  ACCESS:          0  HIT:          0  MISS:          0
cpu0_STLB WRITEBACK ACCESS:          0  HIT:          0  MISS:          0
cpu0_L1D TOTAL     ACCESS:   20120316  HIT:   19154668  MISS:     965648
cpu0_L1D LOAD      ACCESS:   16382005  HIT:   15440889  MISS:     941116
cpu0_L1D RFO       ACCESS:    3724393  HIT:    3700866  MISS:      23527
cpu0_L1D PREFETCH  ACCESS:          0  HIT:          0  MISS:          0
cpu0_L1D WRITEBACK ACCESS:          0  HIT:          0  MISS:          0
cpu0_L2C TOTAL     ACCESS:     989182  HIT:      71623  MISS:     917559
cpu0_L2C LOAD      ACCESS:     941116  HIT:      47093  MISS:     894023
cpu0_L2C RFO       ACCESS:      23527  HIT:          0  MISS:      23527
cpu0_L2C PREFETCH  ACCESS:          0  HIT:          0  MISS:          0
cpu0_L2C WRITEBACK ACCESS:      23534  HIT:      23534  MISS:          0
LLC TOTAL     ACCESS:     941076  HIT:      23595  MISS:     917481
LLC LOAD      ACCESS:     894023  HIT:         78  MISS:     893945
LLC RFO       ACCESS:      23527  HIT:          0  MISS:      23527
LLC PREFETCH  ACCESS:          0  HIT:          0  MISS:          0
LLC WRITEBACK ACCESS:      23517  HIT:      23517  MISS:          0
Heartbeat CPU 0 instructions: 102000003 cycles: 171958474 heartbeat IPC: 0.346837 cumulative IPC: 0.346835 (Simulation time: 2 hr 56 min 35 sec) 

Region of Interest Statistics
cpu0_DTLB TOTAL     ACCESS:   18134498  HIT:   18085534  MISS:      48964
cpu0_DTLB LOAD      ACCESS:   16687856  HIT:   16641556  MISS:      46300
cpu0_DTLB RFO       ACCESS:    1446642  HIT:    1443978  MISS:       2664
cpu0_DTLB PREFETCH  ACCESS:          0  HIT:          0  MISS:          0
cpu0_DTLB WRITEBACK ACCESS:          0  HIT:          0  MISS:          0
cpu0_ITLB TOTAL     ACCESS:    4810774  HIT:    4810774  MISS:          0
cpu0_ITLB LOAD      ACCESS:    4810774  HIT:    4810774  MISS:          0
cpu0_ITLB RFO       ACCESS:          0  HIT:          0  MISS:          0
cpu0_ITLB PREFETCH  ACCESS:          0  HIT:          0  MISS:          0
cpu0_ITLB WRITEBACK ACCESS:          0  HIT:          0  MISS:          0
cpu0_STLB TOTAL     ACCESS:      48964  HIT:      34489  MISS:      14475
cpu0_STLB LOAD      ACCESS:      46300  HIT:      32207  MISS:      14093
cpu0_STLB RFO       ACCESS:       2664  HIT:       2282  MISS:        382
cpu0_STLB PREFETCH  ACCESS:          0  HIT:          0  MISS:          0
cpu0_STLB WRITEBACK ACCESS:          0  HIT:          0  MISS:          0
cpu0_L1D TOTAL     ACCESS:   20925025  HIT:   19920747  MISS:    1004278
cpu0_L1D LOAD      ACCESS:   17037188  HIT:   16058425  MISS:     978763
cpu0_L1D RFO       ACCESS:    3873362  HIT:    3848894  MISS:      24468
cpu0_L1D PREFETCH  ACCESS:          0  HIT:          0  MISS:          0
cpu0_L1D WRITEBACK ACCESS:          0  HIT:          0  MISS:          0
cpu0_L2C TOTAL     ACCESS:    1028743  HIT:      74478  MISS:     954265
cpu0_L2C LOAD      ACCESS:     978763  HIT:      48975  MISS:     929788
cpu0_L2C RFO       ACCESS:      24468  HIT:          0  MISS:      24468
cpu0_L2C PREFETCH  ACCESS:          0  HIT:          0  MISS:          0
cpu0_L2C WRITEBACK ACCESS:      24465  HIT:      24465  MISS:          0
LLC TOTAL     ACCESS:     978713  HIT:      24526  MISS:     954187
LLC LOAD      ACCESS:     929788  HIT:         78  MISS:     929710
LLC RFO       ACCESS:      24468  HIT:          0  MISS:      24468
LLC PREFETCH  ACCESS:          0  HIT:          0  MISS:          0
LLC WRITEBACK ACCESS:      24448  HIT:      24448  MISS:          0
Heartbeat CPU 0 instructions: 104000000 cycles: 177724745 heartbeat IPC: 0.346844 cumulative IPC: 0.346836 (Simulation time: 3 hr 1 min 22 sec) 

Region of Interest Statistics
cpu0_DTLB TOTAL     ACCESS:   18831650  HIT:   18780674  MISS:      50976
cpu0_DTLB LOAD      ACCESS:   17329367  HIT:   17281166  MISS:      48201
cpu0_DTLB RFO       ACCESS:    1502283  HIT:    1499508  MISS:       2775
cpu0_DTLB PREFETCH  ACCESS:          0  HIT:          0  MISS:          0
cpu0_DTLB WRITEBACK ACCESS:          0  HIT:          0  MISS:          0
cpu0_ITLB TOTAL     ACCESS:    4995803  HIT:    4995803  MISS:          0
cpu0_ITLB LOAD      ACCESS:    4995803  HIT:    4995803  MISS:          0
cpu0_ITLB RFO       ACCESS:          0  HIT:          0  MISS:          0
cpu0_ITLB PREFETCH  ACCESS:          0  HIT:          0  MISS:          0
cpu0_ITLB WRITEBACK ACCESS:          0  HIT:          0  MISS:          0
cpu0_STLB TOTAL     ACCESS:      50976  HIT:      35945  MISS:      15031
cpu0_STLB LOAD      ACCESS:      48201  HIT:      33567  MISS:      14634
cpu0_STLB RFO       ACCESS:       2775  HIT:       2378  MISS:        397
cpu0_STLB PREFETCH  ACCESS:          0  HIT:          0  MISS:          0
cpu0_STLB WRITEBACK ACCESS:          0  HIT:          0  MISS:          0
cpu0_L1D TOTAL     ACCESS:   21729744  HIT:   20686840  MISS:    1042904
cpu0_L1D LOAD      ACCESS:   17692346  HIT:   16675936  MISS:    1016410
cpu0_L1D RFO       ACCESS:    4022367  HIT:    3996958  MISS:      25409
cpu0_L1D PREFETCH  ACCESS:          0  HIT:          0  MISS:          0
cpu0_L1D WRITEBACK ACCESS:          0  HIT:          0  MISS:          0
cpu0_L2C TOTAL     ACCESS:    1068312  HIT:      77341  MISS:     990971
cpu0_L2C LOAD      ACCESS:    1016410  HIT:      50857  MISS:     965553
cpu0_L2C RFO       ACCESS:      25409  HIT:          0  MISS:      25409
cpu0_L2C PREFETCH  ACCESS:          0  HIT:          0  MISS:          0
cpu0_L2C WRITEBACK ACCESS:      25408  HIT:      25408  MISS:          0
LLC TOTAL     ACCESS:    1016315  HIT:      25422  MISS:     990893
LLC LOAD      ACCESS:     965553  HIT:         78  MISS:     965475
LLC RFO       ACCESS:      25409  HIT:          0  MISS:      25409
LLC PREFETCH  ACCESS:          0  HIT:          0  MISS:          0
LLC WRITEBACK ACCESS:      25344  HIT:      25344  MISS:          0
Heartbeat CPU 0 instructions: 106000001 cycles: 183490278 heartbeat IPC: 0.346889 cumulative IPC: 0.346838 (Simulation time: 3 hr 6 min 13 sec) 

Region of Interest Statistics
cpu0_DTLB TOTAL     ACCESS:   19529476  HIT:   19476545  MISS:      52931
cpu0_DTLB LOAD      ACCESS:   17971544  HIT:   17921496  MISS:      50048
cpu0_DTLB RFO       ACCESS:    1557932  HIT:    1555049  MISS:       2883
cpu0_DTLB PREFETCH  ACCESS:          0  HIT:          0  MISS:          0
cpu0_DTLB WRITEBACK ACCESS:          0  HIT:          0  MISS:          0
cpu0_ITLB TOTAL     ACCESS:    5180855  HIT:    5180855  MISS:          0
cpu0_ITLB LOAD      ACCESS:    5180855  HIT:    5180855  MISS:          0
cpu0_ITLB RFO       ACCESS:          0  HIT:          0  MISS:          0
cpu0_ITLB PREFETCH  ACCESS:          0  HIT:          0  MISS:          0
cpu0_ITLB WRITEBACK ACCESS:          0  HIT:          0  MISS:          0
cpu0_STLB TOTAL     ACCESS:      52931  HIT:      37335  MISS:      15596
cpu0_STLB LOAD      ACCESS:      50048  HIT:      34863  MISS:      15185
cpu0_STLB RFO       ACCESS:       2883  HIT:       2472  MISS:        411
cpu0_STLB PREFETCH  ACCESS:          0  HIT:          0  MISS:          0
cpu0_STLB WRITEBACK ACCESS:          0  HIT:          0  MISS:          0
cpu0_L1D TOTAL     ACCESS:   22534818  HIT:   21453287  MISS:    1081531
cpu0_L1D LOAD      ACCESS:   18347864  HIT:   17293811  MISS:    1054053
cpu0_L1D RFO       ACCESS:    4171358  HIT:    4145007  MISS:      26351
cpu0_L1D PREFETCH  ACCESS:          0  HIT:          0  MISS:          0
cpu0_L1D WRITEBACK ACCESS:          0  HIT:          0  MISS:          0
cpu0_L2C TOTAL     ACCESS:    1107883  HIT:      80211  MISS:    1027672
cpu0_L2C LOAD      ACCESS:    1054053  HIT:      52741  MISS:    1001312
cpu0_L2C RFO       ACCESS:      26351  HIT:          0  MISS:      26351
cpu0_L2C PREFETCH  ACCESS:          0  HIT:          0  MISS:          0
cpu0_L2C WRITEBACK ACCESS:      26352  HIT:      26352  MISS:          0
LLC TOTAL     ACCESS:    1053848  HIT:      26254  MISS:    1027594
LLC LOAD      ACCESS:    1001312  HIT:         78  MISS:    1001234
LLC RFO       ACCESS:      26351  HIT:          0  MISS:      26351
LLC PREFETCH  ACCESS:          0  HIT:          0  MISS:          0
LLC WRITEBACK ACCESS:      26176  HIT:      26176  MISS:          0
Heartbeat CPU 0 instructions: 108000002 cycles: 189257920 heartbeat IPC: 0.346762 cumulative IPC: 0.346835 (Simulation time: 3 hr 11 min 12 sec) 

Region of Interest Statistics
cpu0_DTLB TOTAL     ACCESS:   20226724  HIT:   20171813  MISS:      54911
cpu0_DTLB LOAD      ACCESS:   18613172  HIT:   18561256  MISS:      51916
cpu0_DTLB RFO       ACCESS:    1613552  HIT:    1610557  MISS:       2995
cpu0_DTLB PREFETCH  ACCESS:          0  HIT:          0  MISS:          0
cpu0_DTLB WRITEBACK ACCESS:          0  HIT:          0  MISS:          0
cpu0_ITLB TOTAL     ACCESS:    5365860  HIT:    5365860  MISS:          0
cpu0_ITLB LOAD      ACCESS:    5365860  HIT:    5365860  MISS:          0
cpu0_ITLB RFO       ACCESS:          0  HIT:          0  MISS:          0
cpu0_ITLB PREFETCH  ACCESS:          0  HIT:          0  MISS:          0
cpu0_ITLB WRITEBACK ACCESS:          0  HIT:          0  MISS:          0
cpu0_STLB TOTAL     ACCESS:      54911  HIT:      38766  MISS:      16145
cpu0_STLB LOAD      ACCESS:      51916  HIT:      36197  MISS:      15719
cpu0_STLB RFO       ACCESS:       2995  HIT:       2569  MISS:        426
cpu0_STLB PREFETCH  ACCESS:          0  HIT:          0  MISS:          0
cpu0_STLB WRITEBACK ACCESS:          0  HIT:          0  MISS:          0
cpu0_L1D TOTAL     ACCESS:   23339540  HIT:   22219392  MISS:    1120148
cpu0_L1D LOAD      ACCESS:   19003089  HIT:   17911397  MISS:    1091692
cpu0_L1D RFO       ACCESS:    4320306  HIT:    4293015  MISS:      27291
cpu0_L1D PREFETCH  ACCESS:          0  HIT:          0  MISS:          0
cpu0_L1D WRITEBACK ACCESS:          0  HIT:          0  MISS:          0
cpu0_L2C TOTAL     ACCESS:    1147444  HIT:      83074  MISS:    1064370
cpu0_L2C LOAD      ACCESS:    1091692  HIT:      54623  MISS:    1037069
cpu0_L2C RFO       ACCESS:      27291  HIT:          0  MISS:      27291
cpu0_L2C PREFETCH  ACCESS:          0  HIT:          0  MISS:          0
cpu0_L2C WRITEBACK ACCESS:      27296  HIT:      27296  MISS:          0
LLC TOTAL     ACCESS:    1091551  HIT:      27259  MISS:    1064292
LLC LOAD      ACCESS:    1037069  HIT:         78  MISS:    1036991
LLC RFO       ACCESS:      27291  HIT:          0  MISS:      27291
LLC PREFETCH  ACCESS:          0  HIT:          0  MISS:          0
LLC WRITEBACK ACCESS:      27181  HIT:      27181  MISS:          0
Heartbeat CPU 0 instructions: 110000003 cycles: 195023572 heartbeat IPC: 0.346882 cumulative IPC: 0.346837 (Simulation time: 3 hr 16 min 3 sec) 

Region of Interest Statistics
cpu0_DTLB TOTAL     ACCESS:   20923979  HIT:   20867622  MISS:      56357
cpu0_DTLB LOAD      ACCESS:   19254793  HIT:   19201541  MISS:      53252
cpu0_DTLB RFO       ACCESS:    1669186  HIT:    1666081  MISS:       3105
cpu0_DTLB PREFETCH  ACCESS:          0  HIT:          0  MISS:          0
cpu0_DTLB WRITEBACK ACCESS:          0  HIT:          0  MISS:          0
cpu0_ITLB TOTAL     ACCESS:    5550892  HIT:    5550892  MISS:          0
cpu0_ITLB LOAD      ACCESS:    5550892  HIT:    5550892  MISS:          0
cpu0_ITLB RFO       ACCESS:          0  HIT:          0  MISS:          0
cpu0_ITLB PREFETCH  ACCESS:          0  HIT:          0  MISS:          0
cpu0_ITLB WRITEBACK ACCESS:          0  HIT:          0  MISS:          0
cpu0_STLB TOTAL     ACCESS:      56357  HIT:      39646  MISS:      16711
cpu0_STLB LOAD      ACCESS:      53252  HIT:      36982  MISS:      16270
cpu0_STLB RFO       ACCESS:       3105  HIT:       2664  MISS:        441
cpu0_STLB PREFETCH  ACCESS:          0  HIT:          0  MISS:          0
cpu0_STLB WRITEBACK ACCESS:          0  HIT:          0  MISS:          0
cpu0_L1D TOTAL     ACCESS:   24144137  HIT:   22985352  MISS:    1158785
cpu0_L1D LOAD      ACCESS:   19658142  HIT:   18528800  MISS:    1129342
cpu0_L1D RFO       ACCESS:    4469284  HIT:    4441051  MISS:      28233
cpu0_L1D PREFETCH  ACCESS:          0  HIT:          0  MISS:          0
cpu0_L1D WRITEBACK ACCESS:          0  HIT:          0  MISS:          0
cpu0_L2C TOTAL     ACCESS:    1187025  HIT:      85945  MISS:    1101080
cpu0_L2C LOAD      ACCESS:    1129342  HIT:      56506  MISS:    1072836
cpu0_L2C RFO       ACCESS:      28233  HIT:          0  MISS:      28233
cpu0_L2C PREFETCH  ACCESS:          0  HIT:          0  MISS:          0
cpu0_L2C WRITEBACK ACCESS:      28240  HIT:      28240  MISS:          0
LLC TOTAL     ACCESS:    1129323  HIT:      28321  MISS:    1101002
LLC LOAD      ACCESS:    1072836  HIT:         78  MISS:    1072758
LLC RFO       ACCESS:      28233  HIT:          0  MISS:      28233
LLC PREFETCH  ACCESS:          0  HIT:          0  MISS:          0
LLC WRITEBACK ACCESS:      28243  HIT:      28243  MISS:          0
Heartbeat CPU 0 instructions: 112000003 cycles: 200788733 heartbeat IPC: 0.346911 cumulative IPC: 0.346839 (Simulation time: 3 hr 20 min 59 sec) 

Region of Interest Statistics
cpu0_DTLB TOTAL     ACCESS:   21621501  HIT:   21563167  MISS:      58334
cpu0_DTLB LOAD      ACCESS:   19896671  HIT:   19841553  MISS:      55118
cpu0_DTLB RFO       ACCESS:    1724830  HIT:    1721614  MISS:       3216
cpu0_DTLB PREFETCH  ACCESS:          0  HIT:          0  MISS:          0
cpu0_DTLB WRITEBACK ACCESS:          0  HIT:          0  MISS:          0
cpu0_ITLB TOTAL     ACCESS:    5735941  HIT:    5735941  MISS:          0
cpu0_ITLB LOAD      ACCESS:    5735941  HIT:    5735941  MISS:          0
cpu0_ITLB RFO       ACCESS:          0  HIT:          0  MISS:          0
cpu0_ITLB PREFETCH  ACCESS:          0  HIT:          0  MISS:          0
cpu0_ITLB WRITEBACK ACCESS:          0  HIT:          0  MISS:          0
cpu0_STLB TOTAL     ACCESS:      58334  HIT:      41076  MISS:      17258
cpu0_STLB LOAD      ACCESS:      55118  HIT:      38315  MISS:      16803
cpu0_STLB RFO       ACCESS:       3216  HIT:       2761  MISS:        455
cpu0_STLB PREFETCH  ACCESS:          0  HIT:          0  MISS:          0
cpu0_STLB WRITEBACK ACCESS:          0  HIT:          0  MISS:          0
cpu0_L1D TOTAL     ACCESS:   24949132  HIT:   23751716  MISS:    1197416
cpu0_L1D LOAD      ACCESS:   20313602  HIT:   19146606  MISS:    1166996
cpu0_L1D RFO       ACCESS:    4618272  HIT:    4589098  MISS:      29174
cpu0_L1D PREFETCH  ACCESS:          0  HIT:          0  MISS:          0
cpu0_L1D WRITEBACK ACCESS:          0  HIT:          0  MISS:          0
cpu0_L2C TOTAL     ACCESS:    1226592  HIT:      88805  MISS:    1137787
cpu0_L2C LOAD      ACCESS:    1166996  HIT:      58394  MISS:    1108602
cpu0_L2C RFO       ACCESS:      29174  HIT:          0  MISS:      29174
cpu0_L2C PREFETCH  ACCESS:          0  HIT:          0  MISS:          0
cpu0_L2C WRITEBACK ACCESS:      29176  HIT:      29176  MISS:          0
LLC TOTAL     ACCESS:    1166900  HIT:      29191  MISS:    1137709
LLC LOAD      ACCESS:    1108602  HIT:         78  MISS:    1108524
LLC RFO       ACCESS:      29174  HIT:          0  MISS:      29174
LLC PREFETCH  ACCESS:          0  HIT:          0  MISS:          0
LLC WRITEBACK ACCESS:      29113  HIT:      29113  MISS:          0
Heartbeat CPU 0 instructions: 114000002 cycles: 206554759 heartbeat IPC: 0.346859 cumulative IPC: 0.34684 (Simulation time: 3 hr 25 min 54 sec) 

Region of Interest Statistics
cpu0_DTLB TOTAL     ACCESS:   22318692  HIT:   22258335  MISS:      60357
cpu0_DTLB LOAD      ACCESS:   20538232  HIT:   20481202  MISS:      57030
cpu0_DTLB RFO       ACCESS:    1780460  HIT:    1777133  MISS:       3327
cpu0_DTLB PREFETCH  ACCESS:          0  HIT:          0  MISS:          0
cpu0_DTLB WRITEBACK ACCESS:          0  HIT:          0  MISS:          0
cpu0_ITLB TOTAL     ACCESS:    5920985  HIT:    5920985  MISS:          0
cpu0_ITLB LOAD      ACCESS:    5920985  HIT:    5920985  MISS:          0
cpu0_ITLB RFO       ACCESS:          0  HIT:          0  MISS:          0
cpu0_ITLB PREFETCH  ACCESS:          0  HIT:          0  MISS:          0
cpu0_ITLB WRITEBACK ACCESS:          0  HIT:          0  MISS:          0
cpu0_STLB TOTAL     ACCESS:      60357  HIT:      42534  MISS:      17823
cpu0_STLB LOAD      ACCESS:      57030  HIT:      39677  MISS:      17353
cpu0_STLB RFO       ACCESS:       3327  HIT:       2857  MISS:        470
cpu0_STLB PREFETCH  ACCESS:          0  HIT:          0  MISS:          0
cpu0_STLB WRITEBACK ACCESS:          0  HIT:          0  MISS:          0
cpu0_L1D TOTAL     ACCESS:   25753843  HIT:   24517812  MISS:    1236031
cpu0_L1D LOAD      ACCESS:   20968768  HIT:   19764141  MISS:    1204627
cpu0_L1D RFO       ACCESS:    4767252  HIT:    4737137  MISS:      30115
cpu0_L1D PREFETCH  ACCESS:          0  HIT:          0  MISS:          0
cpu0_L1D WRITEBACK ACCESS:          0  HIT:          0  MISS:          0
cpu0_L2C TOTAL     ACCESS:    1266143  HIT:      91665  MISS:    1174478
cpu0_L2C LOAD      ACCESS:    1204627  HIT:      60275  MISS:    1144352
cpu0_L2C RFO       ACCESS:      30115  HIT:          0  MISS:      30115
cpu0_L2C PREFETCH  ACCESS:          0  HIT:          0  MISS:          0
cpu0_L2C WRITEBACK ACCESS:      30112  HIT:      30112  MISS:          0
LLC TOTAL     ACCESS:    1204620  HIT:      30220  MISS:    1174400
LLC LOAD      ACCESS:    1144352  HIT:         78  MISS:    1144274
LLC RFO       ACCESS:      30115  HIT:          0  MISS:      30115
LLC PREFETCH  ACCESS:          0  HIT:          0  MISS:          0
LLC WRITEBACK ACCESS:      30142  HIT:      30142  MISS:          0
Heartbeat CPU 0 instructions: 116000002 cycles: 212320563 heartbeat IPC: 0.346873 cumulative IPC: 0.346841 (Simulation time: 3 hr 30 min 52 sec) 

Region of Interest Statistics
cpu0_DTLB TOTAL     ACCESS:   23016010  HIT:   22953671  MISS:      62339
cpu0_DTLB LOAD      ACCESS:   21179907  HIT:   21121004  MISS:      58903
[...]
cpu0_DTLB LOAD      ACCESS:  453200857  HIT:  452130001  MISS:    1070856
cpu0_DTLB RFO       ACCESS:   39918205  HIT:   39840365  MISS:      77840
cpu0_DTLB PREFETCH  ACCESS:          0  HIT:          0  MISS:          0
cpu0_DTLB WRITEBACK ACCESS:          0  HIT:          0  MISS:          0
cpu0_ITLB TOTAL     ACCESS:  140903951  HIT:  140903950  MISS:          1
cpu0_ITLB LOAD      ACCESS:  140903951  HIT:  140903950  MISS:          1
cpu0_ITLB RFO       ACCESS:          0  HIT:          0  MISS:          0
cpu0_ITLB PREFETCH  ACCESS:          0  HIT:          0  MISS:          0
cpu0_ITLB WRITEBACK ACCESS:          0  HIT:          0  MISS:          0
cpu0_L1I TOTAL     ACCESS:        265  HIT:        177  MISS:         88
cpu0_L1I LOAD      ACCESS:        265  HIT:        177  MISS:         88
cpu0_L1I RFO       ACCESS:          0  HIT:          0  MISS:          0
cpu0_L1I PREFETCH  ACCESS:          0  HIT:          0  MISS:          0
cpu0_L1I WRITEBACK ACCESS:          0  HIT:          0  MISS:          0
cpu0_STLB TOTAL     ACCESS:    1148697  HIT:     722558  MISS:     426139
cpu0_STLB LOAD      ACCESS:    1070857  HIT:     654535  MISS:     416322
cpu0_STLB RFO       ACCESS:      77840  HIT:      68023  MISS:       9817
cpu0_STLB PREFETCH  ACCESS:          0  HIT:          0  MISS:          0
cpu0_STLB WRITEBACK ACCESS:          0  HIT:          0  MISS:          0
cpu0_L1D TOTAL     ACCESS:  554079802  HIT:  524919636  MISS:   29160166
cpu0_L1D LOAD      ACCESS:  447725832  HIT:  419221864  MISS:   28503968
cpu0_L1D RFO       ACCESS:  105927857  HIT:  105299753  MISS:     628104
cpu0_L1D PREFETCH  ACCESS:          0  HIT:          0  MISS:          0
cpu0_L1D WRITEBACK ACCESS:          0  HIT:          0  MISS:          0
cpu0_L2C TOTAL     ACCESS:   30633809  HIT:    2759287  MISS:   27874522
cpu0_L2C LOAD      ACCESS:   28504056  HIT:    1258074  MISS:   27245982
cpu0_L2C RFO       ACCESS:     628104  HIT:          0  MISS:     628104
cpu0_L2C PREFETCH  ACCESS:          0  HIT:          0  MISS:          0
cpu0_L2C WRITEBACK ACCESS:    1473555  HIT:    1473512  MISS:         43
LLC TOTAL     ACCESS:   29347659  HIT:    1479718  MISS:   27867941
LLC LOAD      ACCESS:   27245982  HIT:       6587  MISS:   27239395
LLC RFO       ACCESS:     628104  HIT:          0  MISS:     628104
LLC PREFETCH  ACCESS:          0  HIT:          0  MISS:          0
LLC WRITEBACK ACCESS:    1473180  HIT:    1473129  MISS:         51
Heartbeat CPU 0 instructions: 1550000003 cycles: 4143879368 heartbeat IPC: 0.346672 cumulative IPC: 0.363914 (Simulation time: 25 hr 28 min 1 sec) 

Region of Interest Statistics
cpu0_DTLB TOTAL     ACCESS:  493820563  HIT:  492670676  MISS:    1149887
cpu0_DTLB LOAD      ACCESS:  453846570  HIT:  452774662  MISS:    1071908
cpu0_DTLB RFO       ACCESS:   39973993  HIT:   39896014  MISS:      77979
cpu0_DTLB PREFETCH  ACCESS:          0  HIT:          0  MISS:          0
cpu0_DTLB WRITEBACK ACCESS:          0  HIT:          0  MISS:          0
cpu0_ITLB TOTAL     ACCESS:  141089131  HIT:  141089130  MISS:          1
cpu0_ITLB LOAD      ACCESS:  141089131  HIT:  141089130  MISS:          1
cpu0_ITLB RFO       ACCESS:          0  HIT:          0  MISS:          0
cpu0_ITLB PREFETCH  ACCESS:          0  HIT:          0  MISS:          0
cpu0_ITLB WRITEBACK ACCESS:          0  HIT:          0  MISS:          0
cpu0_L1I TOTAL     ACCESS:        265  HIT:        177  MISS:         88
cpu0_L1I LOAD      ACCESS:        265  HIT:        177  MISS:         88
cpu0_L1I RFO       ACCESS:          0  HIT:          0  MISS:          0
cpu0_L1I PREFETCH  ACCESS:          0  HIT:          0  MISS:          0
cpu0_L1I WRITEBACK ACCESS:          0  HIT:          0  MISS:          0
cpu0_STLB TOTAL     ACCESS:    1149888  HIT:     723182  MISS:     426706
cpu0_STLB LOAD      ACCESS:    1071909  HIT:     655035  MISS:     416874
cpu0_STLB RFO       ACCESS:      77979  HIT:      68147  MISS:       9832
cpu0_STLB PREFETCH  ACCESS:          0  HIT:          0  MISS:          0
cpu0_STLB WRITEBACK ACCESS:          0  HIT:          0  MISS:          0
cpu0_L1D TOTAL     ACCESS:  554884319  HIT:  525685518  MISS:   29198801
cpu0_L1D LOAD      ACCESS:  448381565  HIT:  419839947  MISS:   28541618
cpu0_L1D RFO       ACCESS:  106076074  HIT:  105447029  MISS:     629045
cpu0_L1D PREFETCH  ACCESS:          0  HIT:          0  MISS:          0
cpu0_L1D WRITEBACK ACCESS:          0  HIT:          0  MISS:          0
cpu0_L2C TOTAL     ACCESS:   30673388  HIT:    2762157  MISS:   27911231
cpu0_L2C LOAD      ACCESS:   28541706  HIT:    1259957  MISS:   27281749
cpu0_L2C RFO       ACCESS:     629045  HIT:          0  MISS:     629045
cpu0_L2C PREFETCH  ACCESS:          0  HIT:          0  MISS:          0
cpu0_L2C WRITEBACK ACCESS:    1474499  HIT:    1474456  MISS:         43
LLC TOTAL     ACCESS:   29385317  HIT:    1480667  MISS:   27904650
LLC LOAD      ACCESS:   27281749  HIT:       6587  MISS:   27275162
LLC RFO       ACCESS:     629045  HIT:          0  MISS:     629045
LLC PREFETCH  ACCESS:          0  HIT:          0  MISS:          0
LLC WRITEBACK ACCESS:    1474129  HIT:    1474078  MISS:         51
Finished CPU 0 instructions: 1500000004 cycles: 4121847935 cumulative IPC: 0.363914 (Simulation time: 25 hr 28 min 1 sec) 

ChampSim completed all CPUs

Region of Interest Statistics

CPU 0 cumulative IPC: 0.363914 instructions: 1500000004 cycles: 4121847935
cpu0_DTLB TOTAL     ACCESS:  493820563  HIT:  492670676  MISS:    1149887
cpu0_DTLB LOAD      ACCESS:  453846570  HIT:  452774662  MISS:    1071908
cpu0_DTLB RFO       ACCESS:   39973993  HIT:   39896014  MISS:      77979
cpu0_DTLB PREFETCH  ACCESS:          0  HIT:          0  MISS:          0
cpu0_DTLB WRITEBACK ACCESS:          0  HIT:          0  MISS:          0
cpu0_DTLB TRANSLATION ACCESS:          0  HIT:          0  MISS:          0
cpu0_DTLB PREFETCH  REQUESTED:          0  ISSUED:          0  USEFUL:          0  USELESS:          0
cpu0_DTLB AVERAGE MISS LATENCY: 33.8579 cycles
cpu0_ITLB TOTAL     ACCESS:  141089131  HIT:  141089130  MISS:          1
cpu0_ITLB LOAD      ACCESS:  141089131  HIT:  141089130  MISS:          1
cpu0_ITLB RFO       ACCESS:          0  HIT:          0  MISS:          0
cpu0_ITLB PREFETCH  ACCESS:          0  HIT:          0  MISS:          0
cpu0_ITLB WRITEBACK ACCESS:          0  HIT:          0  MISS:          0
cpu0_ITLB TRANSLATION ACCESS:          0  HIT:          0  MISS:          0
cpu0_ITLB PREFETCH  REQUESTED:          0  ISSUED:          0  USEFUL:          0  USELESS:          0
cpu0_ITLB AVERAGE MISS LATENCY: 411 cycles
cpu0_L1I TOTAL     ACCESS:        265  HIT:        177  MISS:         88
cpu0_L1I LOAD      ACCESS:        265  HIT:        177  MISS:         88
cpu0_L1I RFO       ACCESS:          0  HIT:          0  MISS:          0
cpu0_L1I PREFETCH  ACCESS:          0  HIT:          0  MISS:          0
cpu0_L1I WRITEBACK ACCESS:          0  HIT:          0  MISS:          0
cpu0_L1I TRANSLATION ACCESS:          0  HIT:          0  MISS:          0
cpu0_L1I PREFETCH  REQUESTED:          0  ISSUED:          0  USEFUL:          0  USELESS:          0
cpu0_L1I AVERAGE MISS LATENCY: 262.716 cycles
cpu0_STLB TOTAL     ACCESS:    1149888  HIT:     723182  MISS:     426706
cpu0_STLB LOAD      ACCESS:    1071909  HIT:     655035  MISS:     416874
cpu0_STLB RFO       ACCESS:      77979  HIT:      68147  MISS:       9832
cpu0_STLB PREFETCH  ACCESS:          0  HIT:          0  MISS:          0
cpu0_STLB WRITEBACK ACCESS:          0  HIT:          0  MISS:          0
cpu0_STLB TRANSLATION ACCESS:          0  HIT:          0  MISS:          0
cpu0_STLB PREFETCH  REQUESTED:          0  ISSUED:          0  USEFUL:          0  USELESS:          0
cpu0_STLB AVERAGE MISS LATENCY: 66.9412 cycles
cpu0_L1D TOTAL     ACCESS:  554884319  HIT:  525685518  MISS:   29198801
cpu0_L1D LOAD      ACCESS:  448381565  HIT:  419839947  MISS:   28541618
cpu0_L1D RFO       ACCESS:  106076074  HIT:  105447029  MISS:     629045
cpu0_L1D PREFETCH  ACCESS:          0  HIT:          0  MISS:          0
cpu0_L1D WRITEBACK ACCESS:          0  HIT:          0  MISS:          0
cpu0_L1D TRANSLATION ACCESS:     426680  HIT:     398542  MISS:      28138
cpu0_L1D PREFETCH  REQUESTED:          0  ISSUED:          0  USEFUL:          0  USELESS:          0
cpu0_L1D AVERAGE MISS LATENCY: 1076.95 cycles
cpu0_L2C TOTAL     ACCESS:   30673388  HIT:    2762157  MISS:   27911231
cpu0_L2C LOAD      ACCESS:   28541706  HIT:    1259957  MISS:   27281749
cpu0_L2C RFO       ACCESS:     629045  HIT:          0  MISS:     629045
cpu0_L2C PREFETCH  ACCESS:          0  HIT:          0  MISS:          0
cpu0_L2C WRITEBACK ACCESS:    1474499  HIT:    1474456  MISS:         43
cpu0_L2C TRANSLATION ACCESS:      28138  HIT:      27744  MISS:        394
cpu0_L2C PREFETCH  REQUESTED:          0  ISSUED:          0  USEFUL:          0  USELESS:          0
cpu0_L2C AVERAGE MISS LATENCY: 1114.94 cycles
LLC TOTAL     ACCESS:   29385317  HIT:    1480667  MISS:   27904650
LLC LOAD      ACCESS:   27281749  HIT:       6587  MISS:   27275162
LLC RFO       ACCESS:     629045  HIT:          0  MISS:     629045
LLC PREFETCH  ACCESS:          0  HIT:          0  MISS:          0
LLC WRITEBACK ACCESS:    1474129  HIT:    1474078  MISS:         51
LLC TRANSLATION ACCESS:        394  HIT:          2  MISS:        392
LLC PREFETCH  REQUESTED:          0  ISSUED:          0  USEFUL:          0  USELESS:          0
LLC AVERAGE MISS LATENCY: 1094.2 cycles
~~~~~~~~~~Reuse Distance Profiler output~~~~~~~~~~
0	0	0
1	0	0
2	0	0
3	0	0
4	0	0
5	0	0
6	0	0
7	0	0
8	0	0
9	0	0
10	0	0
11	0	0
12	0	0
13	0	0
14	0	0
15	0	0
16	0	0
17	0	0
18	0	0
19	0	0
20	0	0
21	0	0
22	0	0
23	0	0
24	0	0
25	0	0
26	0	0
27	0	0
28	0	0
29	0	0
30	0	0
31	0	0
32	0	0
33	0	0
34	0	0
35	0	0
36	0	0
37	0	0
38	0	0
39	0	0
40	0	0
41	0	0
42	0	0
43	0	0
44	0	0
45	0	0
46	0	0
47	0	0
48	0	0
49	0	0
50	0	0
51	0	0
52	0	0
53	0	0
54	0	0
55	0	0
56	0	0
57	0	0
58	0	0
59	0	0
60	0	0
61	0	0
62	0	0
63	0	0
64	0	0
66	0	0
68	0	0
70	0	0
72	0	0
74	0	0
76	0	0
78	0	0
80	0	0
82	0	0
84	0	0
86	0	0
88	0	0
90	0	0
92	0	0
94	0	0
96	0	0
98	0	0
100	0	0
102	0	0
104	0	0
106	0	0
108	0	0
110	0	0
112	0	0
114	0	0
116	0	0
118	0	0
120	0	0
122	0	0
124	0	0
126	0	0
128	0	0
132	0	0
136	0	0
140	0	0
144	0	0
148	0	0
152	0	0
156	0	0
160	0	0
164	0	0
168	0	0
172	0	0
176	0	0
180	0	0
184	0	0
188	0	0
192	0	0
196	0	0
200	0	0
204	0	0
208	0	0
212	0	0
216	0	0
220	0	0
224	0	0
228	0	0
232	0	0
236	0	0
240	0	0
244	0	0
248	0	0
252	0	0
256	0	0
264	0	0
272	0	0
280	0	0
288	0	0
296	0	0
304	0	0
312	0	0
320	0	0
328	0	0
336	0	0
344	0	0
352	0	0
360	0	0
368	0	0
376	0	0
384	0	0
392	0	0
400	0	0
408	0	0
416	0	0
424	0	0
432	0	0
440	0	0
448	0	0
456	0	0
464	0	0
472	0	0
480	0	0
488	0	0
496	0	0
504	0	0
512	0	0
528	0	0
544	0	0
560	0	0
576	0	0
592	0	0
608	0	0
624	0	0
640	0	0
656	0	0
672	0	0
688	0	0
704	0	0
720	0	0
736	0	0
752	0	0
768	0	0
784	0	0
800	0	0
816	0	0
832	0	0
848	0	0
864	0	0
880	0	0
896	0	0
912	0	0
928	0	0
944	0	0
960	0	0
976	0	0
992	0	0
1008	0	0
1024	0	0
1056	0	0
1088	0	0
1120	0	0
1152	0	0
1184	0	0
1216	0	0
1248	0	0
1280	0	0
1312	0	0
1344	0	0
1376	0	0
1408	0	0
1440	0	0
1472	0	0
1504	0	0
1536	0	0
1568	0	0
1600	0	0
1632	0	0
1664	0	0
1696	0	0
1728	0	0
1760	0	0
1792	0	0
1824	0	0
1856	0	0
1888	0	0
1920	0	0
1952	0	0
1984	0	0
2016	0	0
2048	0	0
2112	0	0
2176	0	0
2240	0	0
2304	0	0
2368	0	0
2432	0	0
2496	0	0
2560	0	0
2624	0	0
2688	0	0
2752	0	0
2816	0	0
2880	0	0
2944	0	0
3008	0	0
3072	0	0
3136	0	0
3200	0	0
3264	0	0
3328	0	0
3392	0	0
3456	0	0
3520	0	0
3584	0	0
3648	0	0
3712	0	0
3776	0	0
3840	0	0
3904	0	0
3968	0	0
4032	0	0
4096	0	0
4224	0	0
4352	0	0
4480	0	0
4608	0	0
4736	0	0
4864	0	0
4992	0	0
5120	0	0
5248	0	0
5376	0	0
5504	0	0
5632	0	0
5760	0	0
5888	0	0
6016	0	0
6144	0	0
6272	0	0
6400	0	0
6528	0	0
6656	0	0
6784	0	0
6912	0	0
7040	0	0
7168	0	0
7296	0	0
7424	0	0
7552	0	0
7680	0	0
7808	0	0
7936	0	0
8064	0	0
8192	0	0
8448	0	0
8704	0	0
8960	0	0
9216	0	0
9472	0	0
9728	0	0
9984	0	0
10240	0	0
10496	0	0
10752	0	0
11008	0	0
11264	0	0
11520	0	0
11776	0	0
12032	0	0
12288	0	0
12544	0	0
12800	0	0
13056	0	0
13312	0	0
13568	0	0
13824	0	0
14080	0	0
14336	0	0
14592	0	0
14848	0	0
15104	0	0
15360	0	0
15616	0	0
15872	0	0
16128	0	0
16384	0	0
16896	0	0
17408	0	0
17920	0	0
18432	0	0
18944	0	0
19456	0	0
19968	0	0
20480	0	0
20992	0	0
21504	0	0
22016	0	0
22528	0	0
23040	0	0
23552	0	0
24064	0	0
24576	0	0
25088	0	0
25600	0	0
26112	0	0
26624	0	0
27136	0	0
27648	0	0
28160	0	0
28672	0	0
29184	0	0
29696	0	0
30208	0	0
30720	0	0
31232	0	0
31744	0	0
32256	0	0
32768	0	0
33792	0	0
34816	0	0
35840	0	0
36864	0	0
37888	0	0
38912	0	0
39936	0	0
40960	0	0
41984	0	0
43008	0	0
44032	0	0
45056	0	0
46080	0	0
47104	0	0
48128	0	0
49152	0	0
50176	0	0
51200	0	0
52224	0	0
53248	0	0
54272	0	0
55296	0	0
56320	0	0
57344	0	0
58368	0	0
59392	0	0
60416	0	0
61440	0	0
62464	0	0
63488	0	0
64512	0	0
65536	0	0
67584	0	0
69632	0	0
71680	0	0
73728	0	0
75776	0	0
77824	0	0
79872	0	0
81920	0	0
83968	0	0
86016	0	0
88064	0	0
90112	0	0
92160	0	0
94208	0	0
96256	0	0
98304	0	0
100352	0	0
102400	0	0
104448	0	0
106496	0	0
108544	0	0
110592	0	0
112640	0	0
114688	0	0
116736	0	0
118784	0	0
120832	0	0
122880	0	0
124928	0	0
126976	0	0
129024	0	0
131072	0	0
135168	0	0
139264	0	0
143360	0	0
147456	0	0
151552	0	0
155648	0	0
159744	0	0
163840	0	0
167936	0	0
172032	0	0
176128	0	0
180224	0	0
184320	0	0
188416	0	0
192512	0	0
196608	0	0
200704	0	0
204800	0	0
208896	0	0
212992	0	0
217088	0	0
221184	0	0
225280	0	0
229376	0	0
233472	0	0
237568	0	0
241664	0	0
245760	0	0
249856	0	0
253952	0	0
258048	0	0
262144	0	0
270336	0	0
278528	0	0
286720	0	0
294912	0	0
303104	0	0
311296	0	0
319488	0	0
327680	0	0
335872	0	0
344064	0	0
352256	0	0
360448	0	0
368640	0	0
376832	0	0
385024	0	0
393216	0	0
401408	0	0
409600	0	0
417792	0	0
425984	0	0
434176	0	0
442368	0	0
450560	0	0
458752	0	0
466944	0	0
475136	0	0
483328	0	0
491520	0	0
499712	0	0
507904	0	0
516096	0	0
524288	0	0
540672	0	0
557056	0	0
573440	0	0
589824	0	0
606208	0	0
622592	0	0
638976	0	0
655360	0	0
671744	0	0
688128	0	0
704512	0	0
720896	0	0
737280	0	0
753664	0	0
770048	0	0
786432	0	0
802816	0	0
819200	0	0
835584	0	0
851968	0	0
868352	0	0
884736	0	0
901120	0	0
917504	0	0
933888	0	0
950272	0	0
966656	0	0
983040	0	0
999424	0	0
1015808	0	0
1032192	0	0
1048576	0	0
1081344	0	0
1114112	0	0
1146880	0	0
1179648	0	0
1212416	0	0
1245184	0	0
1277952	0	0
1310720	0	0
1343488	0	0
1376256	0	0
1409024	0	0
1441792	0	0
1474560	0	0
1507328	0	0
1540096	0	0
1572864	0	0
1605632	0	0
1638400	0	0
1671168	0	0
1703936	0	0
1736704	0	0
1769472	0	0
1802240	0	0
1835008	0	0
1867776	0	0
1900544	0	0
1933312	0	0
1966080	0	0
1998848	0	0
2031616	0	0
2064384	0	0
2097152	0	0
2162688	0	0
2228224	0	0
2293760	0	0
2359296	0	0
2424832	0	0
2490368	0	0
2555904	0	0
2621440	0	0
2686976	0	0
2752512	0	0
2818048	0	0
2883584	0	0
2949120	0	0
3014656	0	0
3080192	0	0
3145728	0	0
3211264	0	0
3276800	0	0
3342336	0	0
3407872	0	0
3473408	0	0
3538944	0	0
3604480	0	0
3670016	0	0
3735552	0	0
3801088	0	0
3866624	0	0
3932160	0	0
3997696	0	0
4063232	0	0
4128768	0	0
4194304	0	0
4325376	0	0
4456448	0	0
4587520	0	0
4718592	0	0
4849664	0	0
4980736	0	0
5111808	0	0
5242880	0	0
5373952	0	0
5505024	0	0
5636096	0	0
5767168	0	0
5898240	0	0
6029312	0	0
6160384	0	0
6291456	0	0
6422528	0	0
6553600	0	0
6684672	0	0
6815744	0	0
6946816	0	0
7077888	0	0
7208960	0	0
7340032	0	0
7471104	0	0
7602176	0	0
7733248	0	0
7864320	0	0
7995392	0	0
8126464	0	0
8257536	0	0
8388608	0	0
8650752	0	0
8912896	0	0
9175040	0	0
9437184	0	0
9699328	0	0
9961472	0	0
10223616	0	0
10485760	0	0
10747904	0	0
11010048	0	0
11272192	0	0
11534336	0	0
11796480	0	0
12058624	0	0
12320768	0	0
12582912	0	0
12845056	0	0
13107200	0	0
13369344	0	0
13631488	0	0
13893632	0	0
14155776	0	0
14417920	0	0
14680064	0	0
14942208	0	0
15204352	0	0
15466496	0	0
15728640	0	0
15990784	0	0
16252928	0	0
16515072	0	0
16777216	0	0
17301504	0	0
17825792	0	0
18350080	0	0
18874368	0	0
19398656	0	0
19922944	0	0
20447232	0	0
20971520	0	0
21495808	0	0
22020096	0	0
22544384	0	0
23068672	0	0
23592960	0	0
24117248	0	0
24641536	0	0
25165824	0	0
25690112	0	0
26214400	0	0
26738688	0	0
27262976	0	0
27787264	0	0
28311552	0	0
28835840	0	0
29360128	0	0
29884416	0	0
30408704	0	0
30932992	0	0
31457280	0	0
31981568	0	0
32505856	0	0
33030144	0	0
33554432	0	0
34603008	0	0
35651584	0	0
36700160	0	0
37748736	0	0
38797312	0	0
39845888	0	0
40894464	0	0
41943040	0	0
42991616	0	0
44040192	0	0
45088768	0	0
46137344	0	0
47185920	0	0
48234496	0	0
49283072	0	0
50331648	0	0
51380224	0	0
52428800	0	0
53477376	0	0
54525952	0	0
55574528	0	0
56623104	0	0
57671680	0	0
58720256	0	0
59768832	0	0
60817408	0	0
61865984	0	0
62914560	0	0
63963136	0	0
65011712	0	0
66060288	0	0
67108864	0	0
69206016	0	0
71303168	0	0
73400320	0	0
75497472	0	0
77594624	0	0
79691776	0	0
81788928	0	0
83886080	0	0
85983232	0	0
88080384	0	0
90177536	0	0
92274688	0	0
94371840	0	0
96468992	0	0
98566144	0	0
100663296	0	0
102760448	0	0
104857600	0	0
106954752	0	0
109051904	0	0
111149056	0	0
113246208	0	0
115343360	0	0
117440512	0	0
119537664	0	0
121634816	0	0
123731968	0	0
125829120	0	0
127926272	0	0
130023424	0	0
132120576	0	0
134217728	0	0
138412032	0	0
142606336	0	0
146800640	0	0
150994944	0	0
155189248	0	0
159383552	0	0
163577856	0	0
167772160	0	0
171966464	0	0
176160768	0	0
180355072	0	0
184549376	0	0
188743680	0	0
192937984	0	0
197132288	0	0
201326592	0	0
205520896	0	0
209715200	0	0
213909504	0	0
218103808	0	0
222298112	0	0
226492416	0	0
230686720	0	0
234881024	0	0
239075328	0	0
243269632	0	0
247463936	0	0
251658240	0	0
255852544	0	0
260046848	0	0
264241152	0	0
268435456	0	0
276824064	0	0
285212672	0	0
293601280	0	0
301989888	0	0
310378496	0	0
318767104	0	0
327155712	0	0
335544320	0	0
343932928	0	0
352321536	0	0
360710144	0	0
369098752	0	0
377487360	0	0
385875968	0	0
394264576	0	0
402653184	0	0
411041792	0	0
419430400	0	0
427819008	0	0
436207616	0	0
444596224	0	0
452984832	0	0
461373440	0	0
469762048	0	0
478150656	0	0
486539264	0	0
494927872	0	0
503316480	0	0
511705088	0	0
520093696	0	0
528482304	0	0
536870912	0	0
553648128	0	0
570425344	0	0
587202560	0	0
603979776	0	0
620756992	0	0
637534208	0	0
654311424	0	0
671088640	0	0
687865856	0	0
704643072	0	0
721420288	0	0
738197504	0	0
754974720	0	0
771751936	0	0
788529152	0	0
805306368	0	0
822083584	0	0
838860800	0	0
855638016	0	0
872415232	0	0
889192448	0	0
905969664	0	0
922746880	0	0
939524096	0	0
956301312	0	0
973078528	0	0
989855744	0	0
1006632960	0	0
1023410176	0	0
1040187392	0	0
1056964608	0	0
1073741824	0	0
1107296256	0	0
1140850688	0	0
1174405120	0	0
1207959552	0	0
1241513984	0	0
1275068416	0	0
1308622848	0	0
1342177280	0	0
1375731712	0	0
1409286144	0	0
1442840576	0	0
1476395008	0	0
1509949440	0	0
1543503872	0	0
1577058304	0	0
1610612736	0	0
1644167168	0	0
1677721600	0	0
1711276032	0	0
1744830464	0	0
1778384896	0	0
1811939328	0	0
1845493760	0	0
1879048192	0	0
1912602624	0	0
1946157056	0	0
1979711488	0	0
2013265920	0	0
2046820352	0	0
2080374784	0	0
2113929216	0	0
2147483648	0	0
2214592512	0	0
2281701376	0	0
2348810240	0	0
2415919104	0	0
2483027968	0	0
2550136832	0	0
2617245696	0	0
2684354560	0	0
2751463424	0	0
2818572288	0	0
2885681152	0	0
2952790016	0	0
3019898880	0	0
3087007744	0	0
3154116608	0	0
3221225472	0	0
3288334336	0	0
3355443200	0	0
3422552064	0	0
3489660928	0	0
3556769792	0	0
3623878656	0	0
3690987520	0	0
3758096384	0	0
3825205248	0	0
3892314112	0	0
3959422976	0	0
4026531840	0	0
4093640704	0	0
4160749568	0	0
4227858432	0	0
~~~~~~~~~~Reuse Distance Profiler output end~~~~~~~~~~

Sampler size:0

DRAM Statistics
 CHANNEL 0
 RQ ROW_BUFFER_HIT:     193199  ROW_BUFFER_MISS:   27711314
 DBUS AVG_CONGESTED_CYCLE:    3.97097
 WQ ROW_BUFFER_HIT:     149786  ROW_BUFFER_MISS:    1324155  FULL:          0


CPU 0 Branch Prediction Accuracy: 71.8527% MPKI: 10.6608 Average ROB Occupancy at Mispredict: 256.55
Branch type MPKI
BRANCH_DIRECT_JUMP: 2.13333e-05
BRANCH_INDIRECT: 0
BRANCH_CONDITIONAL: 10.6607
BRANCH_DIRECT_CALL: 1.33333e-06
BRANCH_INDIRECT_CALL: 0
BRANCH_RETURN: 2e-06

