
*** ChampSim Multicore Out-of-Order Simulator ***

Warmup Instructions: 50000000
Simulation Instructions: 1500000000
Number of CPUs: 1
Off-chip DRAM Size: 4 GiB Channels: 1 Width: 64-bit Data Rate: 3200 MT/s

VirtualMemory physical capacity: 8588881920 num_ppages: 2096895
VirtualMemory page size: 4096 log2_page_size: 12

CPU 0 runs /s/traces/champsim_traces/437.leslie3d-271B.champsimtrace.xz
CPU 0 Bimodal branch predictor
Basic BTB sets: 1024 ways: 8 indirect buffer size: 4096 RAS size: 64
Initializing LRU.
Initializing LRU.
Initializing LRU.
Initializing LRU.
Initializing rdLRU.
Initializing LRU.
Initializing LRU.
Heartbeat CPU 0 instructions: 2000001 cycles: 716727 heartbeat IPC: 2.79046 cumulative IPC: 2.79046 (Simulation time: 0 hr 1 min 29 sec) 
Heartbeat CPU 0 instructions: 4000001 cycles: 1433321 heartbeat IPC: 2.79098 cumulative IPC: 2.79072 (Simulation time: 0 hr 2 min 54 sec) 
Heartbeat CPU 0 instructions: 6000001 cycles: 2149921 heartbeat IPC: 2.79096 cumulative IPC: 2.7908 (Simulation time: 0 hr 4 min 15 sec) 
Heartbeat CPU 0 instructions: 8000000 cycles: 2866521 heartbeat IPC: 2.79096 cumulative IPC: 2.79084 (Simulation time: 0 hr 5 min 35 sec) 
Heartbeat CPU 0 instructions: 10000004 cycles: 3583116 heartbeat IPC: 2.79098 cumulative IPC: 2.79087 (Simulation time: 0 hr 6 min 55 sec) 
Heartbeat CPU 0 instructions: 12000001 cycles: 4299716 heartbeat IPC: 2.79095 cumulative IPC: 2.79088 (Simulation time: 0 hr 8 min 13 sec) 
Heartbeat CPU 0 instructions: 14000000 cycles: 5016309 heartbeat IPC: 2.79098 cumulative IPC: 2.7909 (Simulation time: 0 hr 9 min 27 sec) 
Heartbeat CPU 0 instructions: 16000000 cycles: 5732909 heartbeat IPC: 2.79096 cumulative IPC: 2.7909 (Simulation time: 0 hr 10 min 37 sec) 
Heartbeat CPU 0 instructions: 18000001 cycles: 6449510 heartbeat IPC: 2.79095 cumulative IPC: 2.79091 (Simulation time: 0 hr 11 min 57 sec) 
Heartbeat CPU 0 instructions: 20000002 cycles: 7166110 heartbeat IPC: 2.79096 cumulative IPC: 2.79091 (Simulation time: 0 hr 13 min 18 sec) 
Heartbeat CPU 0 instructions: 22000003 cycles: 7882705 heartbeat IPC: 2.79098 cumulative IPC: 2.79092 (Simulation time: 0 hr 14 min 38 sec) 
Heartbeat CPU 0 instructions: 24000002 cycles: 8599304 heartbeat IPC: 2.79096 cumulative IPC: 2.79092 (Simulation time: 0 hr 16 min 0 sec) 
Heartbeat CPU 0 instructions: 26000000 cycles: 9315898 heartbeat IPC: 2.79098 cumulative IPC: 2.79093 (Simulation time: 0 hr 17 min 21 sec) 
Heartbeat CPU 0 instructions: 28000000 cycles: 10032498 heartbeat IPC: 2.79096 cumulative IPC: 2.79093 (Simulation time: 0 hr 18 min 41 sec) 
Heartbeat CPU 0 instructions: 30000004 cycles: 10749100 heartbeat IPC: 2.79096 cumulative IPC: 2.79093 (Simulation time: 0 hr 20 min 0 sec) 
Heartbeat CPU 0 instructions: 32000003 cycles: 11465695 heartbeat IPC: 2.79098 cumulative IPC: 2.79093 (Simulation time: 0 hr 21 min 19 sec) 
Heartbeat CPU 0 instructions: 34000004 cycles: 12182294 heartbeat IPC: 2.79096 cumulative IPC: 2.79094 (Simulation time: 0 hr 22 min 23 sec) 
Heartbeat CPU 0 instructions: 36000000 cycles: 12898887 heartbeat IPC: 2.79098 cumulative IPC: 2.79094 (Simulation time: 0 hr 23 min 37 sec) 
Heartbeat CPU 0 instructions: 38000003 cycles: 13615488 heartbeat IPC: 2.79096 cumulative IPC: 2.79094 (Simulation time: 0 hr 24 min 58 sec) 
Heartbeat CPU 0 instructions: 40000001 cycles: 14332087 heartbeat IPC: 2.79096 cumulative IPC: 2.79094 (Simulation time: 0 hr 26 min 23 sec) 
Heartbeat CPU 0 instructions: 42000000 cycles: 15048681 heartbeat IPC: 2.79098 cumulative IPC: 2.79094 (Simulation time: 0 hr 27 min 34 sec) 
Heartbeat CPU 0 instructions: 44000000 cycles: 15765281 heartbeat IPC: 2.79096 cumulative IPC: 2.79094 (Simulation time: 0 hr 28 min 51 sec) 
Heartbeat CPU 0 instructions: 46000002 cycles: 16481876 heartbeat IPC: 2.79098 cumulative IPC: 2.79094 (Simulation time: 0 hr 30 min 11 sec) 
Heartbeat CPU 0 instructions: 48000001 cycles: 17198476 heartbeat IPC: 2.79096 cumulative IPC: 2.79095 (Simulation time: 0 hr 31 min 31 sec) 
Heartbeat CPU 0 instructions: 50000002 cycles: 17915076 heartbeat IPC: 2.79096 cumulative IPC: 2.79095 (Simulation time: 0 hr 32 min 53 sec) 

Warmup complete CPU 0 instructions: 50000002 cycles: 17915076 (Simulation time: 0 hr 32 min 53 sec) 

Heartbeat CPU 0 instructions: 52000001 cycles: 19475463 heartbeat IPC: 1.28173 cumulative IPC: 1.28173 (Simulation time: 0 hr 35 min 12 sec) 

Region of Interest Statistics
cpu0_DTLB TOTAL     ACCESS:     337391  HIT:     337233  MISS:        158
cpu0_DTLB LOAD      ACCESS:     304797  HIT:     304718  MISS:         79
cpu0_DTLB RFO       ACCESS:      32594  HIT:      32515  MISS:         79
cpu0_DTLB PREFETCH  ACCESS:          0  HIT:          0  MISS:          0
cpu0_DTLB WRITEBACK ACCESS:          0  HIT:          0  MISS:          0
cpu0_ITLB TOTAL     ACCESS:       7659  HIT:       7659  MISS:          0
cpu0_ITLB LOAD      ACCESS:       7659  HIT:       7659  MISS:          0
cpu0_ITLB RFO       ACCESS:          0  HIT:          0  MISS:          0
cpu0_ITLB PREFETCH  ACCESS:          0  HIT:          0  MISS:          0
cpu0_ITLB WRITEBACK ACCESS:          0  HIT:          0  MISS:          0
cpu0_STLB TOTAL     ACCESS:        158  HIT:          0  MISS:        158
cpu0_STLB LOAD      ACCESS:         79  HIT:          0  MISS:         79
cpu0_STLB RFO       ACCESS:         79  HIT:          0  MISS:         79
cpu0_STLB PREFETCH  ACCESS:          0  HIT:          0  MISS:          0
cpu0_STLB WRITEBACK ACCESS:          0  HIT:          0  MISS:          0
cpu0_L1D TOTAL     ACCESS:     441999  HIT:     432187  MISS:       9812
cpu0_L1D LOAD      ACCESS:     432417  HIT:     427510  MISS:       4907
cpu0_L1D RFO       ACCESS:       9424  HIT:       4519  MISS:       4905
cpu0_L1D PREFETCH  ACCESS:          0  HIT:          0  MISS:          0
cpu0_L1D WRITEBACK ACCESS:          0  HIT:          0  MISS:          0
cpu0_L2C TOTAL     ACCESS:      14707  HIT:       4895  MISS:       9812
cpu0_L2C LOAD      ACCESS:       4907  HIT:          0  MISS:       4907
cpu0_L2C RFO       ACCESS:       4905  HIT:          0  MISS:       4905
cpu0_L2C PREFETCH  ACCESS:          0  HIT:          0  MISS:          0
cpu0_L2C WRITEBACK ACCESS:       4895  HIT:       4895  MISS:          0
LLC TOTAL     ACCESS:      14761  HIT:       4949  MISS:       9812
LLC LOAD      ACCESS:       4907  HIT:          0  MISS:       4907
LLC RFO       ACCESS:       4905  HIT:          0  MISS:       4905
LLC PREFETCH  ACCESS:          0  HIT:          0  MISS:          0
LLC WRITEBACK ACCESS:       4949  HIT:       4949  MISS:          0
Heartbeat CPU 0 instructions: 54000002 cycles: 21042581 heartbeat IPC: 1.27623 cumulative IPC: 1.27897 (Simulation time: 0 hr 37 min 34 sec) 

Region of Interest Statistics
cpu0_DTLB TOTAL     ACCESS:     674780  HIT:     674462  MISS:        318
cpu0_DTLB LOAD      ACCESS:     609571  HIT:     609412  MISS:        159
cpu0_DTLB RFO       ACCESS:      65209  HIT:      65050  MISS:        159
cpu0_DTLB PREFETCH  ACCESS:          0  HIT:          0  MISS:          0
cpu0_DTLB WRITEBACK ACCESS:          0  HIT:          0  MISS:          0
cpu0_ITLB TOTAL     ACCESS:      15292  HIT:      15292  MISS:          0
cpu0_ITLB LOAD      ACCESS:      15292  HIT:      15292  MISS:          0
cpu0_ITLB RFO       ACCESS:          0  HIT:          0  MISS:          0
cpu0_ITLB PREFETCH  ACCESS:          0  HIT:          0  MISS:          0
cpu0_ITLB WRITEBACK ACCESS:          0  HIT:          0  MISS:          0
cpu0_STLB TOTAL     ACCESS:        318  HIT:          0  MISS:        318
cpu0_STLB LOAD      ACCESS:        159  HIT:          0  MISS:        159
cpu0_STLB RFO       ACCESS:        159  HIT:          0  MISS:        159
cpu0_STLB PREFETCH  ACCESS:          0  HIT:          0  MISS:          0
cpu0_STLB WRITEBACK ACCESS:          0  HIT:          0  MISS:          0
cpu0_L1D TOTAL     ACCESS:     883950  HIT:     864328  MISS:      19622
cpu0_L1D LOAD      ACCESS:     864788  HIT:     854975  MISS:       9813
cpu0_L1D RFO       ACCESS:      18844  HIT:       9035  MISS:       9809
cpu0_L1D PREFETCH  ACCESS:          0  HIT:          0  MISS:          0
cpu0_L1D WRITEBACK ACCESS:          0  HIT:          0  MISS:          0
cpu0_L2C TOTAL     ACCESS:      29421  HIT:       9799  MISS:      19622
cpu0_L2C LOAD      ACCESS:       9813  HIT:          0  MISS:       9813
cpu0_L2C RFO       ACCESS:       9809  HIT:          0  MISS:       9809
cpu0_L2C PREFETCH  ACCESS:          0  HIT:          0  MISS:          0
cpu0_L2C WRITEBACK ACCESS:       9799  HIT:       9799  MISS:          0
LLC TOTAL     ACCESS:      29722  HIT:      10100  MISS:      19622
LLC LOAD      ACCESS:       9813  HIT:          0  MISS:       9813
LLC RFO       ACCESS:       9809  HIT:          0  MISS:       9809
LLC PREFETCH  ACCESS:          0  HIT:          0  MISS:          0
LLC WRITEBACK ACCESS:      10100  HIT:      10100  MISS:          0
Heartbeat CPU 0 instructions: 56000003 cycles: 22608095 heartbeat IPC: 1.27754 cumulative IPC: 1.27849 (Simulation time: 0 hr 39 min 55 sec) 

Region of Interest Statistics
cpu0_DTLB TOTAL     ACCESS:    1012238  HIT:    1011764  MISS:        474
cpu0_DTLB LOAD      ACCESS:     914411  HIT:     914174  MISS:        237
cpu0_DTLB RFO       ACCESS:      97827  HIT:      97590  MISS:        237
cpu0_DTLB PREFETCH  ACCESS:          0  HIT:          0  MISS:          0
cpu0_DTLB WRITEBACK ACCESS:          0  HIT:          0  MISS:          0
cpu0_ITLB TOTAL     ACCESS:      22947  HIT:      22947  MISS:          0
cpu0_ITLB LOAD      ACCESS:      22947  HIT:      22947  MISS:          0
cpu0_ITLB RFO       ACCESS:          0  HIT:          0  MISS:          0
cpu0_ITLB PREFETCH  ACCESS:          0  HIT:          0  MISS:          0
cpu0_ITLB WRITEBACK ACCESS:          0  HIT:          0  MISS:          0
cpu0_STLB TOTAL     ACCESS:        474  HIT:          0  MISS:        474
cpu0_STLB LOAD      ACCESS:        237  HIT:          0  MISS:        237
cpu0_STLB RFO       ACCESS:        237  HIT:          0  MISS:        237
cpu0_STLB PREFETCH  ACCESS:          0  HIT:          0  MISS:          0
cpu0_STLB WRITEBACK ACCESS:          0  HIT:          0  MISS:          0
cpu0_L1D TOTAL     ACCESS:    1325946  HIT:    1296511  MISS:      29435
cpu0_L1D LOAD      ACCESS:    1297206  HIT:    1282486  MISS:      14720
cpu0_L1D RFO       ACCESS:      28266  HIT:      13551  MISS:      14715
cpu0_L1D PREFETCH  ACCESS:          0  HIT:          0  MISS:          0
cpu0_L1D WRITEBACK ACCESS:          0  HIT:          0  MISS:          0
cpu0_L2C TOTAL     ACCESS:      44141  HIT:      14706  MISS:      29435
cpu0_L2C LOAD      ACCESS:      14720  HIT:          0  MISS:      14720
cpu0_L2C RFO       ACCESS:      14715  HIT:          0  MISS:      14715
cpu0_L2C PREFETCH  ACCESS:          0  HIT:          0  MISS:          0
cpu0_L2C WRITEBACK ACCESS:      14706  HIT:      14706  MISS:          0
LLC TOTAL     ACCESS:      44708  HIT:      15273  MISS:      29435
LLC LOAD      ACCESS:      14720  HIT:          0  MISS:      14720
LLC RFO       ACCESS:      14715  HIT:          0  MISS:      14715
LLC PREFETCH  ACCESS:          0  HIT:          0  MISS:          0
LLC WRITEBACK ACCESS:      15273  HIT:      15273  MISS:          0
Heartbeat CPU 0 instructions: 58000003 cycles: 25092662 heartbeat IPC: 0.804969 cumulative IPC: 1.11458 (Simulation time: 0 hr 43 min 4 sec) 

Region of Interest Statistics
cpu0_DTLB TOTAL     ACCESS:    1366173  HIT:    1365325  MISS:        848
cpu0_DTLB LOAD      ACCESS:    1247089  HIT:    1246605  MISS:        484
cpu0_DTLB RFO       ACCESS:     119084  HIT:     118720  MISS:        364
cpu0_DTLB PREFETCH  ACCESS:          0  HIT:          0  MISS:          0
cpu0_DTLB WRITEBACK ACCESS:          0  HIT:          0  MISS:          0
cpu0_ITLB TOTAL     ACCESS:      36075  HIT:      36075  MISS:          0
cpu0_ITLB LOAD      ACCESS:      36075  HIT:      36075  MISS:          0
cpu0_ITLB RFO       ACCESS:          0  HIT:          0  MISS:          0
cpu0_ITLB PREFETCH  ACCESS:          0  HIT:          0  MISS:          0
cpu0_ITLB WRITEBACK ACCESS:          0  HIT:          0  MISS:          0
cpu0_L1I TOTAL     ACCESS:         11  HIT:          6  MISS:          5
cpu0_L1I LOAD      ACCESS:         11  HIT:          6  MISS:          5
cpu0_L1I RFO       ACCESS:          0  HIT:          0  MISS:          0
cpu0_L1I PREFETCH  ACCESS:          0  HIT:          0  MISS:          0
cpu0_L1I WRITEBACK ACCESS:          0  HIT:          0  MISS:          0
cpu0_STLB TOTAL     ACCESS:        848  HIT:          0  MISS:        848
cpu0_STLB LOAD      ACCESS:        484  HIT:          0  MISS:        484
cpu0_STLB RFO       ACCESS:        364  HIT:          0  MISS:        364
cpu0_STLB PREFETCH  ACCESS:          0  HIT:          0  MISS:          0
cpu0_STLB WRITEBACK ACCESS:          0  HIT:          0  MISS:          0
cpu0_L1D TOTAL     ACCESS:    1761609  HIT:    1709077  MISS:      52532
cpu0_L1D LOAD      ACCESS:    1724266  HIT:    1694288  MISS:      29978
cpu0_L1D RFO       ACCESS:      36495  HIT:      13942  MISS:      22553
cpu0_L1D PREFETCH  ACCESS:          0  HIT:          0  MISS:          0
cpu0_L1D WRITEBACK ACCESS:          0  HIT:          0  MISS:          0
cpu0_L2C TOTAL     ACCESS:      75208  HIT:      22671  MISS:      52537
cpu0_L2C LOAD      ACCESS:      29983  HIT:          0  MISS:      29983
cpu0_L2C RFO       ACCESS:      22553  HIT:          0  MISS:      22553
cpu0_L2C PREFETCH  ACCESS:          0  HIT:          0  MISS:          0
cpu0_L2C WRITEBACK ACCESS:      22671  HIT:      22671  MISS:          0
LLC TOTAL     ACCESS:      76654  HIT:      24117  MISS:      52537
LLC LOAD      ACCESS:      29983  HIT:          0  MISS:      29983
LLC RFO       ACCESS:      22553  HIT:          0  MISS:      22553
LLC PREFETCH  ACCESS:          0  HIT:          0  MISS:          0
LLC WRITEBACK ACCESS:      24117  HIT:      24117  MISS:          0
Heartbeat CPU 0 instructions: 60000004 cycles: 27603529 heartbeat IPC: 0.796538 cumulative IPC: 1.03216 (Simulation time: 0 hr 46 min 20 sec) 

Region of Interest Statistics
cpu0_DTLB TOTAL     ACCESS:    1721768  HIT:    1720524  MISS:       1244
cpu0_DTLB LOAD      ACCESS:    1582771  HIT:    1582023  MISS:        748
cpu0_DTLB RFO       ACCESS:     138997  HIT:     138501  MISS:        496
cpu0_DTLB PREFETCH  ACCESS:          0  HIT:          0  MISS:          0
cpu0_DTLB WRITEBACK ACCESS:          0  HIT:          0  MISS:          0
cpu0_ITLB TOTAL     ACCESS:      49682  HIT:      49682  MISS:          0
cpu0_ITLB LOAD      ACCESS:      49682  HIT:      49682  MISS:          0
cpu0_ITLB RFO       ACCESS:          0  HIT:          0  MISS:          0
cpu0_ITLB PREFETCH  ACCESS:          0  HIT:          0  MISS:          0
cpu0_ITLB WRITEBACK ACCESS:          0  HIT:          0  MISS:          0
cpu0_L1I TOTAL     ACCESS:         11  HIT:          6  MISS:          5
cpu0_L1I LOAD      ACCESS:         11  HIT:          6  MISS:          5
cpu0_L1I RFO       ACCESS:          0  HIT:          0  MISS:          0
cpu0_L1I PREFETCH  ACCESS:          0  HIT:          0  MISS:          0
cpu0_L1I WRITEBACK ACCESS:          0  HIT:          0  MISS:          0
cpu0_STLB TOTAL     ACCESS:       1244  HIT:          0  MISS:       1244
cpu0_STLB LOAD      ACCESS:        748  HIT:          0  MISS:        748
cpu0_STLB RFO       ACCESS:        496  HIT:          0  MISS:        496
cpu0_STLB PREFETCH  ACCESS:          0  HIT:          0  MISS:          0
cpu0_STLB WRITEBACK ACCESS:          0  HIT:          0  MISS:          0
cpu0_L1D TOTAL     ACCESS:    2197163  HIT:    2120281  MISS:      76882
cpu0_L1D LOAD      ACCESS:    2151307  HIT:    2105096  MISS:      46211
cpu0_L1D RFO       ACCESS:      44612  HIT:      13942  MISS:      30670
cpu0_L1D PREFETCH  ACCESS:          0  HIT:          0  MISS:          0
cpu0_L1D WRITEBACK ACCESS:          0  HIT:          0  MISS:          0
cpu0_L2C TOTAL     ACCESS:     107674  HIT:      30787  MISS:      76887
cpu0_L2C LOAD      ACCESS:      46216  HIT:          0  MISS:      46216
cpu0_L2C RFO       ACCESS:      30670  HIT:          0  MISS:      30670
cpu0_L2C PREFETCH  ACCESS:          0  HIT:          0  MISS:          0
cpu0_L2C WRITEBACK ACCESS:      30787  HIT:      30787  MISS:          0
LLC TOTAL     ACCESS:     109540  HIT:      32653  MISS:      76887
LLC LOAD      ACCESS:      46216  HIT:          0  MISS:      46216
LLC RFO       ACCESS:      30670  HIT:          0  MISS:      30670
LLC PREFETCH  ACCESS:          0  HIT:          0  MISS:          0
LLC WRITEBACK ACCESS:      32653  HIT:      32653  MISS:          0
Heartbeat CPU 0 instructions: 62000003 cycles: 30077714 heartbeat IPC: 0.808347 cumulative IPC: 0.986628 (Simulation time: 0 hr 49 min 26 sec) 

Region of Interest Statistics
cpu0_DTLB TOTAL     ACCESS:    2077170  HIT:    2075536  MISS:       1634
cpu0_DTLB LOAD      ACCESS:    1918349  HIT:    1917341  MISS:       1008
cpu0_DTLB RFO       ACCESS:     158821  HIT:     158195  MISS:        626
cpu0_DTLB PREFETCH  ACCESS:          0  HIT:          0  MISS:          0
cpu0_DTLB WRITEBACK ACCESS:          0  HIT:          0  MISS:          0
cpu0_ITLB TOTAL     ACCESS:      63224  HIT:      63224  MISS:          0
cpu0_ITLB LOAD      ACCESS:      63224  HIT:      63224  MISS:          0
cpu0_ITLB RFO       ACCESS:          0  HIT:          0  MISS:          0
cpu0_ITLB PREFETCH  ACCESS:          0  HIT:          0  MISS:          0
cpu0_ITLB WRITEBACK ACCESS:          0  HIT:          0  MISS:          0
cpu0_L1I TOTAL     ACCESS:         11  HIT:          6  MISS:          5
cpu0_L1I LOAD      ACCESS:         11  HIT:          6  MISS:          5
cpu0_L1I RFO       ACCESS:          0  HIT:          0  MISS:          0
cpu0_L1I PREFETCH  ACCESS:          0  HIT:          0  MISS:          0
cpu0_L1I WRITEBACK ACCESS:          0  HIT:          0  MISS:          0
cpu0_STLB TOTAL     ACCESS:       1634  HIT:          0  MISS:       1634
cpu0_STLB LOAD      ACCESS:       1008  HIT:          0  MISS:       1008
cpu0_STLB RFO       ACCESS:        626  HIT:          0  MISS:        626
cpu0_STLB PREFETCH  ACCESS:          0  HIT:          0  MISS:          0
cpu0_STLB WRITEBACK ACCESS:          0  HIT:          0  MISS:          0
cpu0_L1D TOTAL     ACCESS:    2632691  HIT:    2531461  MISS:     101230
cpu0_L1D LOAD      ACCESS:    2578329  HIT:    2515886  MISS:      62443
cpu0_L1D RFO       ACCESS:      52728  HIT:      13942  MISS:      38786
cpu0_L1D PREFETCH  ACCESS:          0  HIT:          0  MISS:          0
cpu0_L1D WRITEBACK ACCESS:          0  HIT:          0  MISS:          0
cpu0_L2C TOTAL     ACCESS:     140139  HIT:      38904  MISS:     101235
cpu0_L2C LOAD      ACCESS:      62448  HIT:          0  MISS:      62448
cpu0_L2C RFO       ACCESS:      38786  HIT:          0  MISS:      38786
cpu0_L2C PREFETCH  ACCESS:          0  HIT:          0  MISS:          0
cpu0_L2C WRITEBACK ACCESS:      38904  HIT:      38904  MISS:          0
LLC TOTAL     ACCESS:     141852  HIT:      40617  MISS:     101235
LLC LOAD      ACCESS:      62448  HIT:          0  MISS:      62448
LLC RFO       ACCESS:      38786  HIT:          0  MISS:      38786
LLC PREFETCH  ACCESS:          0  HIT:          0  MISS:          0
LLC WRITEBACK ACCESS:      40617  HIT:      40617  MISS:          0
Heartbeat CPU 0 instructions: 64000002 cycles: 32556512 heartbeat IPC: 0.806842 cumulative IPC: 0.95619 (Simulation time: 0 hr 52 min 37 sec) 

Region of Interest Statistics
cpu0_DTLB TOTAL     ACCESS:    2432660  HIT:    2430633  MISS:       2027
cpu0_DTLB LOAD      ACCESS:    2253790  HIT:    2252520  MISS:       1270
cpu0_DTLB RFO       ACCESS:     178870  HIT:     178113  MISS:        757
cpu0_DTLB PREFETCH  ACCESS:          0  HIT:          0  MISS:          0
cpu0_DTLB WRITEBACK ACCESS:          0  HIT:          0  MISS:          0
cpu0_ITLB TOTAL     ACCESS:      76999  HIT:      76999  MISS:          0
cpu0_ITLB LOAD      ACCESS:      76999  HIT:      76999  MISS:          0
cpu0_ITLB RFO       ACCESS:          0  HIT:          0  MISS:          0
cpu0_ITLB PREFETCH  ACCESS:          0  HIT:          0  MISS:          0
cpu0_ITLB WRITEBACK ACCESS:          0  HIT:          0  MISS:          0
cpu0_L1I TOTAL     ACCESS:         11  HIT:          6  MISS:          5
cpu0_L1I LOAD      ACCESS:         11  HIT:          6  MISS:          5
cpu0_L1I RFO       ACCESS:          0  HIT:          0  MISS:          0
cpu0_L1I PREFETCH  ACCESS:          0  HIT:          0  MISS:          0
cpu0_L1I WRITEBACK ACCESS:          0  HIT:          0  MISS:          0
cpu0_STLB TOTAL     ACCESS:       2027  HIT:          0  MISS:       2027
cpu0_STLB LOAD      ACCESS:       1270  HIT:          0  MISS:       1270
cpu0_STLB RFO       ACCESS:        757  HIT:          0  MISS:        757
cpu0_STLB PREFETCH  ACCESS:          0  HIT:          0  MISS:          0
cpu0_STLB WRITEBACK ACCESS:          0  HIT:          0  MISS:          0
cpu0_L1D TOTAL     ACCESS:    3068138  HIT:    2942560  MISS:     125578
cpu0_L1D LOAD      ACCESS:    3005267  HIT:    2926592  MISS:      78675
cpu0_L1D RFO       ACCESS:      60844  HIT:      13942  MISS:      46902
cpu0_L1D PREFETCH  ACCESS:          0  HIT:          0  MISS:          0
cpu0_L1D WRITEBACK ACCESS:          0  HIT:          0  MISS:          0
cpu0_L2C TOTAL     ACCESS:     172603  HIT:      47020  MISS:     125583
cpu0_L2C LOAD      ACCESS:      78680  HIT:          0  MISS:      78680
cpu0_L2C RFO       ACCESS:      46902  HIT:          0  MISS:      46902
cpu0_L2C PREFETCH  ACCESS:          0  HIT:          0  MISS:          0
cpu0_L2C WRITEBACK ACCESS:      47020  HIT:      47020  MISS:          0
LLC TOTAL     ACCESS:     174057  HIT:      48474  MISS:     125583
LLC LOAD      ACCESS:      78680  HIT:          0  MISS:      78680
LLC RFO       ACCESS:      46902  HIT:          0  MISS:      46902
LLC PREFETCH  ACCESS:          0  HIT:          0  MISS:          0
LLC WRITEBACK ACCESS:      48474  HIT:      48474  MISS:          0
Heartbeat CPU 0 instructions: 66000002 cycles: 35018930 heartbeat IPC: 0.81221 cumulative IPC: 0.935462 (Simulation time: 0 hr 55 min 46 sec) 

Region of Interest Statistics
cpu0_DTLB TOTAL     ACCESS:    2781467  HIT:    2779055  MISS:       2412
cpu0_DTLB LOAD      ACCESS:    2583892  HIT:    2582365  MISS:       1527
cpu0_DTLB RFO       ACCESS:     197575  HIT:     196690  MISS:        885
cpu0_DTLB PREFETCH  ACCESS:          0  HIT:          0  MISS:          0
cpu0_DTLB WRITEBACK ACCESS:          0  HIT:          0  MISS:          0
cpu0_ITLB TOTAL     ACCESS:      90523  HIT:      90523  MISS:          0
cpu0_ITLB LOAD      ACCESS:      90523  HIT:      90523  MISS:          0
cpu0_ITLB RFO       ACCESS:          0  HIT:          0  MISS:          0
cpu0_ITLB PREFETCH  ACCESS:          0  HIT:          0  MISS:          0
cpu0_ITLB WRITEBACK ACCESS:          0  HIT:          0  MISS:          0
cpu0_L1I TOTAL     ACCESS:         20  HIT:         11  MISS:          9
cpu0_L1I LOAD      ACCESS:         20  HIT:         11  MISS:          9
cpu0_L1I RFO       ACCESS:          0  HIT:          0  MISS:          0
cpu0_L1I PREFETCH  ACCESS:          0  HIT:          0  MISS:          0
cpu0_L1I WRITEBACK ACCESS:          0  HIT:          0  MISS:          0
cpu0_STLB TOTAL     ACCESS:       2412  HIT:         18  MISS:       2394
cpu0_STLB LOAD      ACCESS:       1527  HIT:         18  MISS:       1509
cpu0_STLB RFO       ACCESS:        885  HIT:          0  MISS:        885
cpu0_STLB PREFETCH  ACCESS:          0  HIT:          0  MISS:          0
cpu0_STLB WRITEBACK ACCESS:          0  HIT:          0  MISS:          0
cpu0_L1D TOTAL     ACCESS:    3494577  HIT:    3345131  MISS:     149446
cpu0_L1D LOAD      ACCESS:    3423384  HIT:    3328796  MISS:      94588
cpu0_L1D RFO       ACCESS:      68799  HIT:      13942  MISS:      54857
cpu0_L1D PREFETCH  ACCESS:          0  HIT:          0  MISS:          0
cpu0_L1D WRITEBACK ACCESS:          0  HIT:          0  MISS:          0
cpu0_L2C TOTAL     ACCESS:     204430  HIT:      54975  MISS:     149455
cpu0_L2C LOAD      ACCESS:      94597  HIT:          0  MISS:      94597
cpu0_L2C RFO       ACCESS:      54857  HIT:          0  MISS:      54857
cpu0_L2C PREFETCH  ACCESS:          0  HIT:          0  MISS:          0
cpu0_L2C WRITEBACK ACCESS:      54975  HIT:      54975  MISS:          0
LLC TOTAL     ACCESS:     205864  HIT:      56409  MISS:     149455
LLC LOAD      ACCESS:      94597  HIT:          0  MISS:      94597
LLC RFO       ACCESS:      54857  HIT:          0  MISS:      54857
LLC PREFETCH  ACCESS:          0  HIT:          0  MISS:          0
LLC WRITEBACK ACCESS:      56409  HIT:      56409  MISS:          0
Heartbeat CPU 0 instructions: 68000004 cycles: 37437737 heartbeat IPC: 0.826855 cumulative IPC: 0.922006 (Simulation time: 0 hr 58 min 50 sec) 

Region of Interest Statistics
cpu0_DTLB TOTAL     ACCESS:    3126135  HIT:    3123343  MISS:       2792
cpu0_DTLB LOAD      ACCESS:    2910644  HIT:    2908864  MISS:       1780
cpu0_DTLB RFO       ACCESS:     215491  HIT:     214479  MISS:       1012
cpu0_DTLB PREFETCH  ACCESS:          0  HIT:          0  MISS:          0
cpu0_DTLB WRITEBACK ACCESS:          0  HIT:          0  MISS:          0
cpu0_ITLB TOTAL     ACCESS:     103797  HIT:     103797  MISS:          0
cpu0_ITLB LOAD      ACCESS:     103797  HIT:     103797  MISS:          0
cpu0_ITLB RFO       ACCESS:          0  HIT:          0  MISS:          0
cpu0_ITLB PREFETCH  ACCESS:          0  HIT:          0  MISS:          0
cpu0_ITLB WRITEBACK ACCESS:          0  HIT:          0  MISS:          0
cpu0_L1I TOTAL     ACCESS:         20  HIT:         11  MISS:          9
cpu0_L1I LOAD      ACCESS:         20  HIT:         11  MISS:          9
cpu0_L1I RFO       ACCESS:          0  HIT:          0  MISS:          0
cpu0_L1I PREFETCH  ACCESS:          0  HIT:          0  MISS:          0
cpu0_L1I WRITEBACK ACCESS:          0  HIT:          0  MISS:          0
cpu0_STLB TOTAL     ACCESS:       2792  HIT:         40  MISS:       2752
cpu0_STLB LOAD      ACCESS:       1780  HIT:         40  MISS:       1740
cpu0_STLB RFO       ACCESS:       1012  HIT:          0  MISS:       1012
cpu0_STLB PREFETCH  ACCESS:          0  HIT:          0  MISS:          0
cpu0_STLB WRITEBACK ACCESS:          0  HIT:          0  MISS:          0
cpu0_L1D TOTAL     ACCESS:    3916305  HIT:    3743244  MISS:     173061
cpu0_L1D LOAD      ACCESS:    3836882  HIT:    3726551  MISS:     110331
cpu0_L1D RFO       ACCESS:      76671  HIT:      13942  MISS:      62729
cpu0_L1D PREFETCH  ACCESS:          0  HIT:          0  MISS:          0
cpu0_L1D WRITEBACK ACCESS:          0  HIT:          0  MISS:          0
cpu0_L2C TOTAL     ACCESS:     235917  HIT:      62847  MISS:     173070
cpu0_L2C LOAD      ACCESS:     110340  HIT:          0  MISS:     110340
cpu0_L2C RFO       ACCESS:      62729  HIT:          0  MISS:      62729
cpu0_L2C PREFETCH  ACCESS:          0  HIT:          0  MISS:          0
cpu0_L2C WRITEBACK ACCESS:      62847  HIT:      62847  MISS:          0
LLC TOTAL     ACCESS:     237435  HIT:      64365  MISS:     173070
LLC LOAD      ACCESS:     110340  HIT:          0  MISS:     110340
LLC RFO       ACCESS:      62729  HIT:          0  MISS:      62729
LLC PREFETCH  ACCESS:          0  HIT:          0  MISS:          0
LLC WRITEBACK ACCESS:      64365  HIT:      64365  MISS:          0
Heartbeat CPU 0 instructions: 70000000 cycles: 39862574 heartbeat IPC: 0.824796 cumulative IPC: 0.911265 (Simulation time: 1 hr 1 min 58 sec) 

Region of Interest Statistics
cpu0_DTLB TOTAL     ACCESS:    3470887  HIT:    3467714  MISS:       3173
cpu0_DTLB LOAD      ACCESS:    3237757  HIT:    3235723  MISS:       2034
cpu0_DTLB RFO       ACCESS:     233130  HIT:     231991  MISS:       1139
cpu0_DTLB PREFETCH  ACCESS:          0  HIT:          0  MISS:          0
cpu0_DTLB WRITEBACK ACCESS:          0  HIT:          0  MISS:          0
cpu0_ITLB TOTAL     ACCESS:     116812  HIT:     116812  MISS:          0
cpu0_ITLB LOAD      ACCESS:     116812  HIT:     116812  MISS:          0
cpu0_ITLB RFO       ACCESS:          0  HIT:          0  MISS:          0
cpu0_ITLB PREFETCH  ACCESS:          0  HIT:          0  MISS:          0
cpu0_ITLB WRITEBACK ACCESS:          0  HIT:          0  MISS:          0
cpu0_L1I TOTAL     ACCESS:         20  HIT:         11  MISS:          9
cpu0_L1I LOAD      ACCESS:         20  HIT:         11  MISS:          9
cpu0_L1I RFO       ACCESS:          0  HIT:          0  MISS:          0
cpu0_L1I PREFETCH  ACCESS:          0  HIT:          0  MISS:          0
cpu0_L1I WRITEBACK ACCESS:          0  HIT:          0  MISS:          0
cpu0_STLB TOTAL     ACCESS:       3173  HIT:         62  MISS:       3111
cpu0_STLB LOAD      ACCESS:       2034  HIT:         62  MISS:       1972
cpu0_STLB RFO       ACCESS:       1139  HIT:          0  MISS:       1139
cpu0_STLB PREFETCH  ACCESS:          0  HIT:          0  MISS:          0
cpu0_STLB WRITEBACK ACCESS:          0  HIT:          0  MISS:          0
cpu0_L1D TOTAL     ACCESS:    4337901  HIT:    4141225  MISS:     196676
cpu0_L1D LOAD      ACCESS:    4250247  HIT:    4124173  MISS:     126074
cpu0_L1D RFO       ACCESS:      84543  HIT:      13942  MISS:      70601
cpu0_L1D PREFETCH  ACCESS:          0  HIT:          0  MISS:          0
cpu0_L1D WRITEBACK ACCESS:          0  HIT:          0  MISS:          0
cpu0_L2C TOTAL     ACCESS:     267404  HIT:      70719  MISS:     196685
cpu0_L2C LOAD      ACCESS:     126083  HIT:          0  MISS:     126083
cpu0_L2C RFO       ACCESS:      70601  HIT:          0  MISS:      70601
cpu0_L2C PREFETCH  ACCESS:          0  HIT:          0  MISS:          0
cpu0_L2C WRITEBACK ACCESS:      70719  HIT:      70719  MISS:          0
LLC TOTAL     ACCESS:     268712  HIT:      72027  MISS:     196685
LLC LOAD      ACCESS:     126083  HIT:          0  MISS:     126083
LLC RFO       ACCESS:      70601  HIT:          0  MISS:      70601
LLC PREFETCH  ACCESS:          0  HIT:          0  MISS:          0
LLC WRITEBACK ACCESS:      72027  HIT:      72027  MISS:          0
Heartbeat CPU 0 instructions: 72000002 cycles: 42281529 heartbeat IPC: 0.826804 cumulative IPC: 0.902881 (Simulation time: 1 hr 5 min 5 sec) 

Region of Interest Statistics
cpu0_DTLB TOTAL     ACCESS:    3815829  HIT:    3812275  MISS:       3554
cpu0_DTLB LOAD      ACCESS:    3564605  HIT:    3562317  MISS:       2288
cpu0_DTLB RFO       ACCESS:     251224  HIT:     249958  MISS:       1266
cpu0_DTLB PREFETCH  ACCESS:          0  HIT:          0  MISS:          0
cpu0_DTLB WRITEBACK ACCESS:          0  HIT:          0  MISS:          0
cpu0_ITLB TOTAL     ACCESS:     130109  HIT:     130109  MISS:          0
cpu0_ITLB LOAD      ACCESS:     130109  HIT:     130109  MISS:          0
cpu0_ITLB RFO       ACCESS:          0  HIT:          0  MISS:          0
cpu0_ITLB PREFETCH  ACCESS:          0  HIT:          0  MISS:          0
cpu0_ITLB WRITEBACK ACCESS:          0  HIT:          0  MISS:          0
cpu0_L1I TOTAL     ACCESS:         20  HIT:         11  MISS:          9
cpu0_L1I LOAD      ACCESS:         20  HIT:         11  MISS:          9
cpu0_L1I RFO       ACCESS:          0  HIT:          0  MISS:          0
cpu0_L1I PREFETCH  ACCESS:          0  HIT:          0  MISS:          0
cpu0_L1I WRITEBACK ACCESS:          0  HIT:          0  MISS:          0
cpu0_STLB TOTAL     ACCESS:       3554  HIT:         84  MISS:       3470
cpu0_STLB LOAD      ACCESS:       2288  HIT:         84  MISS:       2204
cpu0_STLB RFO       ACCESS:       1266  HIT:          0  MISS:       1266
cpu0_STLB PREFETCH  ACCESS:          0  HIT:          0  MISS:          0
cpu0_STLB WRITEBACK ACCESS:          0  HIT:          0  MISS:          0
cpu0_L1D TOTAL     ACCESS:    4759913  HIT:    4539623  MISS:     220290
cpu0_L1D LOAD      ACCESS:    4664029  HIT:    4522212  MISS:     141817
cpu0_L1D RFO       ACCESS:      92414  HIT:      13942  MISS:      78472
cpu0_L1D PREFETCH  ACCESS:          0  HIT:          0  MISS:          0
cpu0_L1D WRITEBACK ACCESS:          0  HIT:          0  MISS:          0
cpu0_L2C TOTAL     ACCESS:     298889  HIT:      78590  MISS:     220299
cpu0_L2C LOAD      ACCESS:     141826  HIT:          0  MISS:     141826
cpu0_L2C RFO       ACCESS:      78472  HIT:          0  MISS:      78472
cpu0_L2C PREFETCH  ACCESS:          0  HIT:          0  MISS:          0
cpu0_L2C WRITEBACK ACCESS:      78590  HIT:      78590  MISS:          0
LLC TOTAL     ACCESS:     300354  HIT:      80055  MISS:     220299
LLC LOAD      ACCESS:     141826  HIT:          0  MISS:     141826
LLC RFO       ACCESS:      78472  HIT:          0  MISS:      78472
LLC PREFETCH  ACCESS:          0  HIT:          0  MISS:          0
LLC WRITEBACK ACCESS:      80055  HIT:      80055  MISS:          0
Heartbeat CPU 0 instructions: 74000001 cycles: 44787540 heartbeat IPC: 0.798081 cumulative IPC: 0.893107 (Simulation time: 1 hr 8 min 17 sec) 

Region of Interest Statistics
cpu0_DTLB TOTAL     ACCESS:    4159884  HIT:    4155946  MISS:       3938
cpu0_DTLB LOAD      ACCESS:    3891176  HIT:    3888632  MISS:       2544
cpu0_DTLB RFO       ACCESS:     268708  HIT:     267314  MISS:       1394
cpu0_DTLB PREFETCH  ACCESS:          0  HIT:          0  MISS:          0
cpu0_DTLB WRITEBACK ACCESS:          0  HIT:          0  MISS:          0
cpu0_ITLB TOTAL     ACCESS:     143150  HIT:     143150  MISS:          0
cpu0_ITLB LOAD      ACCESS:     143150  HIT:     143150  MISS:          0
cpu0_ITLB RFO       ACCESS:          0  HIT:          0  MISS:          0
cpu0_ITLB PREFETCH  ACCESS:          0  HIT:          0  MISS:          0
cpu0_ITLB WRITEBACK ACCESS:          0  HIT:          0  MISS:          0
cpu0_L1I TOTAL     ACCESS:         29  HIT:         16  MISS:         13
cpu0_L1I LOAD      ACCESS:         29  HIT:         16  MISS:         13
cpu0_L1I RFO       ACCESS:          0  HIT:          0  MISS:          0
cpu0_L1I PREFETCH  ACCESS:          0  HIT:          0  MISS:          0
cpu0_L1I WRITEBACK ACCESS:          0  HIT:          0  MISS:          0
cpu0_STLB TOTAL     ACCESS:       3938  HIT:         92  MISS:       3846
cpu0_STLB LOAD      ACCESS:       2544  HIT:         92  MISS:       2452
cpu0_STLB RFO       ACCESS:       1394  HIT:          0  MISS:       1394
cpu0_STLB PREFETCH  ACCESS:          0  HIT:          0  MISS:          0
cpu0_STLB WRITEBACK ACCESS:          0  HIT:          0  MISS:          0
cpu0_L1D TOTAL     ACCESS:    5182169  HIT:    4938269  MISS:     243900
cpu0_L1D LOAD      ACCESS:    5078040  HIT:    4920482  MISS:     157558
cpu0_L1D RFO       ACCESS:     100283  HIT:      13942  MISS:      86341
cpu0_L1D PREFETCH  ACCESS:          0  HIT:          0  MISS:          0
cpu0_L1D WRITEBACK ACCESS:          0  HIT:          0  MISS:          0
cpu0_L2C TOTAL     ACCESS:     330373  HIT:      86460  MISS:     243913
cpu0_L2C LOAD      ACCESS:     157571  HIT:          0  MISS:     157571
cpu0_L2C RFO       ACCESS:      86341  HIT:          0  MISS:      86341
cpu0_L2C PREFETCH  ACCESS:          0  HIT:          0  MISS:          0
cpu0_L2C WRITEBACK ACCESS:      86460  HIT:      86460  MISS:          0
LLC TOTAL     ACCESS:     331530  HIT:      87617  MISS:     243913
LLC LOAD      ACCESS:     157571  HIT:          0  MISS:     157571
LLC RFO       ACCESS:      86341  HIT:          0  MISS:      86341
LLC PREFETCH  ACCESS:          0  HIT:          0  MISS:          0
LLC WRITEBACK ACCESS:      87617  HIT:      87617  MISS:          0
Heartbeat CPU 0 instructions: 76000001 cycles: 47544557 heartbeat IPC: 0.725422 cumulative IPC: 0.877504 (Simulation time: 1 hr 11 min 45 sec) 

Region of Interest Statistics
cpu0_DTLB TOTAL     ACCESS:    4501589  HIT:    4497270  MISS:       4319
cpu0_DTLB LOAD      ACCESS:    4217070  HIT:    4214272  MISS:       2798
cpu0_DTLB RFO       ACCESS:     284519  HIT:     282998  MISS:       1521
cpu0_DTLB PREFETCH  ACCESS:          0  HIT:          0  MISS:          0
cpu0_DTLB WRITEBACK ACCESS:          0  HIT:          0  MISS:          0
cpu0_ITLB TOTAL     ACCESS:     155629  HIT:     155629  MISS:          0
cpu0_ITLB LOAD      ACCESS:     155629  HIT:     155629  MISS:          0
cpu0_ITLB RFO       ACCESS:          0  HIT:          0  MISS:          0
cpu0_ITLB PREFETCH  ACCESS:          0  HIT:          0  MISS:          0
cpu0_ITLB WRITEBACK ACCESS:          0  HIT:          0  MISS:          0
cpu0_L1I TOTAL     ACCESS:         29  HIT:         16  MISS:         13
cpu0_L1I LOAD      ACCESS:         29  HIT:         16  MISS:         13
cpu0_L1I RFO       ACCESS:          0  HIT:          0  MISS:          0
cpu0_L1I PREFETCH  ACCESS:          0  HIT:          0  MISS:          0
cpu0_L1I WRITEBACK ACCESS:          0  HIT:          0  MISS:          0
cpu0_STLB TOTAL     ACCESS:       4319  HIT:        103  MISS:       4216
cpu0_STLB LOAD      ACCESS:       2798  HIT:        103  MISS:       2695
cpu0_STLB RFO       ACCESS:       1521  HIT:          0  MISS:       1521
cpu0_STLB PREFETCH  ACCESS:          0  HIT:          0  MISS:          0
cpu0_STLB WRITEBACK ACCESS:          0  HIT:          0  MISS:          0
cpu0_L1D TOTAL     ACCESS:    5605063  HIT:    5337548  MISS:     267515
cpu0_L1D LOAD      ACCESS:    5492692  HIT:    5319391  MISS:     173301
cpu0_L1D RFO       ACCESS:     108155  HIT:      13942  MISS:      94213
cpu0_L1D PREFETCH  ACCESS:          0  HIT:          0  MISS:          0
cpu0_L1D WRITEBACK ACCESS:          0  HIT:          0  MISS:          0
cpu0_L2C TOTAL     ACCESS:     361859  HIT:      94331  MISS:     267528
cpu0_L2C LOAD      ACCESS:     173314  HIT:          0  MISS:     173314
cpu0_L2C RFO       ACCESS:      94213  HIT:          0  MISS:      94213
cpu0_L2C PREFETCH  ACCESS:          0  HIT:          0  MISS:          0
cpu0_L2C WRITEBACK ACCESS:      94331  HIT:      94331  MISS:          0
LLC TOTAL     ACCESS:     363265  HIT:      95737  MISS:     267528
LLC LOAD      ACCESS:     173314  HIT:          0  MISS:     173314
LLC RFO       ACCESS:      94213  HIT:          0  MISS:      94213
LLC PREFETCH  ACCESS:          0  HIT:          0  MISS:          0
LLC WRITEBACK ACCESS:      95737  HIT:      95737  MISS:          0
Heartbeat CPU 0 instructions: 78000003 cycles: 50314652 heartbeat IPC: 0.721998 cumulative IPC: 0.864209 (Simulation time: 1 hr 15 min 9 sec) 

Region of Interest Statistics
cpu0_DTLB TOTAL     ACCESS:    4843367  HIT:    4838667  MISS:       4700
cpu0_DTLB LOAD      ACCESS:    4542984  HIT:    4539932  MISS:       3052
cpu0_DTLB RFO       ACCESS:     300383  HIT:     298735  MISS:       1648
cpu0_DTLB PREFETCH  ACCESS:          0  HIT:          0  MISS:          0
cpu0_DTLB WRITEBACK ACCESS:          0  HIT:          0  MISS:          0
cpu0_ITLB TOTAL     ACCESS:     168157  HIT:     168157  MISS:          0
cpu0_ITLB LOAD      ACCESS:     168157  HIT:     168157  MISS:          0
cpu0_ITLB RFO       ACCESS:          0  HIT:          0  MISS:          0
cpu0_ITLB PREFETCH  ACCESS:          0  HIT:          0  MISS:          0
cpu0_ITLB WRITEBACK ACCESS:          0  HIT:          0  MISS:          0
cpu0_L1I TOTAL     ACCESS:         29  HIT:         16  MISS:         13
cpu0_L1I LOAD      ACCESS:         29  HIT:         16  MISS:         13
cpu0_L1I RFO       ACCESS:          0  HIT:          0  MISS:          0
cpu0_L1I PREFETCH  ACCESS:          0  HIT:          0  MISS:          0
cpu0_L1I WRITEBACK ACCESS:          0  HIT:          0  MISS:          0
cpu0_STLB TOTAL     ACCESS:       4700  HIT:        114  MISS:       4586
cpu0_STLB LOAD      ACCESS:       3052  HIT:        114  MISS:       2938
cpu0_STLB RFO       ACCESS:       1648  HIT:          0  MISS:       1648
cpu0_STLB PREFETCH  ACCESS:          0  HIT:          0  MISS:          0
cpu0_STLB WRITEBACK ACCESS:          0  HIT:          0  MISS:          0
cpu0_L1D TOTAL     ACCESS:    6028127  HIT:    5737001  MISS:     291126
cpu0_L1D LOAD      ACCESS:    5907516  HIT:    5718474  MISS:     189042
cpu0_L1D RFO       ACCESS:     116025  HIT:      13942  MISS:     102083
cpu0_L1D PREFETCH  ACCESS:          0  HIT:          0  MISS:          0
cpu0_L1D WRITEBACK ACCESS:          0  HIT:          0  MISS:          0
cpu0_L2C TOTAL     ACCESS:     393340  HIT:     102201  MISS:     291139
cpu0_L2C LOAD      ACCESS:     189055  HIT:          0  MISS:     189055
cpu0_L2C RFO       ACCESS:     102083  HIT:          0  MISS:     102083
cpu0_L2C PREFETCH  ACCESS:          0  HIT:          0  MISS:          0
cpu0_L2C WRITEBACK ACCESS:     102201  HIT:     102201  MISS:          0
LLC TOTAL     ACCESS:     394905  HIT:     103766  MISS:     291139
LLC LOAD      ACCESS:     189055  HIT:          0  MISS:     189055
LLC RFO       ACCESS:     102083  HIT:          0  MISS:     102083
LLC PREFETCH  ACCESS:          0  HIT:          0  MISS:          0
LLC WRITEBACK ACCESS:     103766  HIT:     103766  MISS:          0
Heartbeat CPU 0 instructions: 80000000 cycles: 53075126 heartbeat IPC: 0.724512 cumulative IPC: 0.853241 (Simulation time: 1 hr 18 min 27 sec) 

Region of Interest Statistics
cpu0_DTLB TOTAL     ACCESS:    5184870  HIT:    5179791  MISS:       5079
cpu0_DTLB LOAD      ACCESS:    4868767  HIT:    4865462  MISS:       3305
cpu0_DTLB RFO       ACCESS:     316103  HIT:     314329  MISS:       1774
cpu0_DTLB PREFETCH  ACCESS:          0  HIT:          0  MISS:          0
cpu0_DTLB WRITEBACK ACCESS:          0  HIT:          0  MISS:          0
cpu0_ITLB TOTAL     ACCESS:     180557  HIT:     180557  MISS:          0
cpu0_ITLB LOAD      ACCESS:     180557  HIT:     180557  MISS:          0
cpu0_ITLB RFO       ACCESS:          0  HIT:          0  MISS:          0
cpu0_ITLB PREFETCH  ACCESS:          0  HIT:          0  MISS:          0
cpu0_ITLB WRITEBACK ACCESS:          0  HIT:          0  MISS:          0
cpu0_L1I TOTAL     ACCESS:         29  HIT:         16  MISS:         13
cpu0_L1I LOAD      ACCESS:         29  HIT:         16  MISS:         13
cpu0_L1I RFO       ACCESS:          0  HIT:          0  MISS:          0
cpu0_L1I PREFETCH  ACCESS:          0  HIT:          0  MISS:          0
cpu0_L1I WRITEBACK ACCESS:          0  HIT:          0  MISS:          0
cpu0_STLB TOTAL     ACCESS:       5079  HIT:        125  MISS:       4954
cpu0_STLB LOAD      ACCESS:       3305  HIT:        125  MISS:       3180
cpu0_STLB RFO       ACCESS:       1774  HIT:          0  MISS:       1774
cpu0_STLB PREFETCH  ACCESS:          0  HIT:          0  MISS:          0
cpu0_STLB WRITEBACK ACCESS:          0  HIT:          0  MISS:          0
cpu0_L1D TOTAL     ACCESS:    6450877  HIT:    6136136  MISS:     314741
cpu0_L1D LOAD      ACCESS:    6322026  HIT:    6117241  MISS:     204785
cpu0_L1D RFO       ACCESS:     123897  HIT:      13942  MISS:     109955
cpu0_L1D PREFETCH  ACCESS:          0  HIT:          0  MISS:          0
cpu0_L1D WRITEBACK ACCESS:          0  HIT:          0  MISS:          0
cpu0_L2C TOTAL     ACCESS:     424828  HIT:     110074  MISS:     314754
cpu0_L2C LOAD      ACCESS:     204798  HIT:          0  MISS:     204798
cpu0_L2C RFO       ACCESS:     109955  HIT:          0  MISS:     109955
cpu0_L2C PREFETCH  ACCESS:          0  HIT:          0  MISS:          0
cpu0_L2C WRITEBACK ACCESS:     110074  HIT:     110074  MISS:          0
LLC TOTAL     ACCESS:     426453  HIT:     111699  MISS:     314754
LLC LOAD      ACCESS:     204798  HIT:          0  MISS:     204798
LLC RFO       ACCESS:     109955  HIT:          0  MISS:     109955
LLC PREFETCH  ACCESS:          0  HIT:          0  MISS:          0
LLC WRITEBACK ACCESS:     111699  HIT:     111699  MISS:          0
Heartbeat CPU 0 instructions: 82000003 cycles: 55828279 heartbeat IPC: 0.726441 cumulative IPC: 0.844033 (Simulation time: 1 hr 21 min 42 sec) 

Region of Interest Statistics
cpu0_DTLB TOTAL     ACCESS:    5526471  HIT:    5521011  MISS:       5460
cpu0_DTLB LOAD      ACCESS:    5194631  HIT:    5191072  MISS:       3559
cpu0_DTLB RFO       ACCESS:     331840  HIT:     329939  MISS:       1901
cpu0_DTLB PREFETCH  ACCESS:          0  HIT:          0  MISS:          0
cpu0_DTLB WRITEBACK ACCESS:          0  HIT:          0  MISS:          0
cpu0_ITLB TOTAL     ACCESS:     192833  HIT:     192833  MISS:          0
cpu0_ITLB LOAD      ACCESS:     192833  HIT:     192833  MISS:          0
cpu0_ITLB RFO       ACCESS:          0  HIT:          0  MISS:          0
cpu0_ITLB PREFETCH  ACCESS:          0  HIT:          0  MISS:          0
cpu0_ITLB WRITEBACK ACCESS:          0  HIT:          0  MISS:          0
cpu0_L1I TOTAL     ACCESS:         29  HIT:         16  MISS:         13
cpu0_L1I LOAD      ACCESS:         29  HIT:         16  MISS:         13
cpu0_L1I RFO       ACCESS:          0  HIT:          0  MISS:          0
cpu0_L1I PREFETCH  ACCESS:          0  HIT:          0  MISS:          0
cpu0_L1I WRITEBACK ACCESS:          0  HIT:          0  MISS:          0
cpu0_STLB TOTAL     ACCESS:       5460  HIT:        136  MISS:       5324
cpu0_STLB LOAD      ACCESS:       3559  HIT:        136  MISS:       3423
cpu0_STLB RFO       ACCESS:       1901  HIT:          0  MISS:       1901
cpu0_STLB PREFETCH  ACCESS:          0  HIT:          0  MISS:          0
cpu0_STLB WRITEBACK ACCESS:          0  HIT:          0  MISS:          0
cpu0_L1D TOTAL     ACCESS:    6873755  HIT:    6535403  MISS:     338352
cpu0_L1D LOAD      ACCESS:    6736664  HIT:    6516138  MISS:     220526
cpu0_L1D RFO       ACCESS:     131767  HIT:      13942  MISS:     117825
cpu0_L1D PREFETCH  ACCESS:          0  HIT:          0  MISS:          0
cpu0_L1D WRITEBACK ACCESS:          0  HIT:          0  MISS:          0
cpu0_L2C TOTAL     ACCESS:     456308  HIT:     117943  MISS:     338365
cpu0_L2C LOAD      ACCESS:     220539  HIT:          0  MISS:     220539
cpu0_L2C RFO       ACCESS:     117825  HIT:          0  MISS:     117825
cpu0_L2C PREFETCH  ACCESS:          0  HIT:          0  MISS:          0
cpu0_L2C WRITEBACK ACCESS:     117943  HIT:     117943  MISS:          0
LLC TOTAL     ACCESS:     457737  HIT:     119372  MISS:     338365
LLC LOAD      ACCESS:     220539  HIT:          0  MISS:     220539
LLC RFO       ACCESS:     117825  HIT:          0  MISS:     117825
LLC PREFETCH  ACCESS:          0  HIT:          0  MISS:          0
LLC WRITEBACK ACCESS:     119372  HIT:     119372  MISS:          0
Heartbeat CPU 0 instructions: 84000001 cycles: 59147063 heartbeat IPC: 0.60263 cumulative IPC: 0.824602 (Simulation time: 1 hr 25 min 38 sec) 

Region of Interest Statistics
cpu0_DTLB TOTAL     ACCESS:    5953867  HIT:    5948096  MISS:       5771
cpu0_DTLB LOAD      ACCESS:    5583739  HIT:    5579938  MISS:       3801
cpu0_DTLB RFO       ACCESS:     370128  HIT:     368158  MISS:       1970
cpu0_DTLB PREFETCH  ACCESS:          0  HIT:          0  MISS:          0
cpu0_DTLB WRITEBACK ACCESS:          0  HIT:          0  MISS:          0
cpu0_ITLB TOTAL     ACCESS:     197700  HIT:     197700  MISS:          0
cpu0_ITLB LOAD      ACCESS:     197700  HIT:     197700  MISS:          0
cpu0_ITLB RFO       ACCESS:          0  HIT:          0  MISS:          0
cpu0_ITLB PREFETCH  ACCESS:          0  HIT:          0  MISS:          0
cpu0_ITLB WRITEBACK ACCESS:          0  HIT:          0  MISS:          0
cpu0_L1I TOTAL     ACCESS:         49  HIT:         23  MISS:         26
cpu0_L1I LOAD      ACCESS:         49  HIT:         23  MISS:         26
cpu0_L1I RFO       ACCESS:          0  HIT:          0  MISS:          0
cpu0_L1I PREFETCH  ACCESS:          0  HIT:          0  MISS:          0
cpu0_L1I WRITEBACK ACCESS:          0  HIT:          0  MISS:          0
cpu0_STLB TOTAL     ACCESS:       5771  HIT:        136  MISS:       5635
cpu0_STLB LOAD      ACCESS:       3801  HIT:        136  MISS:       3665
cpu0_STLB RFO       ACCESS:       1970  HIT:          0  MISS:       1970
cpu0_STLB PREFETCH  ACCESS:          0  HIT:          0  MISS:          0
cpu0_STLB WRITEBACK ACCESS:          0  HIT:          0  MISS:          0
cpu0_L1D TOTAL     ACCESS:    7542295  HIT:    7184992  MISS:     357303
cpu0_L1D LOAD      ACCESS:    7376805  HIT:    7141548  MISS:     235257
cpu0_L1D RFO       ACCESS:     159880  HIT:      37837  MISS:     122043
cpu0_L1D PREFETCH  ACCESS:          0  HIT:          0  MISS:          0
cpu0_L1D WRITEBACK ACCESS:          0  HIT:          0  MISS:          0
cpu0_L2C TOTAL     ACCESS:     479527  HIT:     122198  MISS:     357329
cpu0_L2C LOAD      ACCESS:     235283  HIT:          0  MISS:     235283
cpu0_L2C RFO       ACCESS:     122043  HIT:          0  MISS:     122043
cpu0_L2C PREFETCH  ACCESS:          0  HIT:          0  MISS:          0
cpu0_L2C WRITEBACK ACCESS:     122198  HIT:     122198  MISS:          0
LLC TOTAL     ACCESS:     482206  HIT:     124877  MISS:     357329
LLC LOAD      ACCESS:     235283  HIT:          0  MISS:     235283
LLC RFO       ACCESS:     122043  HIT:          0  MISS:     122043
LLC PREFETCH  ACCESS:          0  HIT:          0  MISS:          0
LLC WRITEBACK ACCESS:     124877  HIT:     124877  MISS:          0
Heartbeat CPU 0 instructions: 86000000 cycles: 62417593 heartbeat IPC: 0.611521 cumulative IPC: 0.808943 (Simulation time: 1 hr 29 min 28 sec) 

Region of Interest Statistics
cpu0_DTLB TOTAL     ACCESS:    6394851  HIT:    6388789  MISS:       6062
cpu0_DTLB LOAD      ACCESS:    5982847  HIT:    5978813  MISS:       4034
cpu0_DTLB RFO       ACCESS:     412004  HIT:     409976  MISS:       2028
cpu0_DTLB PREFETCH  ACCESS:          0  HIT:          0  MISS:          0
cpu0_DTLB WRITEBACK ACCESS:          0  HIT:          0  MISS:          0
cpu0_ITLB TOTAL     ACCESS:     201466  HIT:     201466  MISS:          0
cpu0_ITLB LOAD      ACCESS:     201466  HIT:     201466  MISS:          0
cpu0_ITLB RFO       ACCESS:          0  HIT:          0  MISS:          0
cpu0_ITLB PREFETCH  ACCESS:          0  HIT:          0  MISS:          0
cpu0_ITLB WRITEBACK ACCESS:          0  HIT:          0  MISS:          0
cpu0_L1I TOTAL     ACCESS:         51  HIT:         24  MISS:         27
cpu0_L1I LOAD      ACCESS:         51  HIT:         24  MISS:         27
cpu0_L1I RFO       ACCESS:          0  HIT:          0  MISS:          0
cpu0_L1I PREFETCH  ACCESS:          0  HIT:          0  MISS:          0
cpu0_L1I WRITEBACK ACCESS:          0  HIT:          0  MISS:          0
cpu0_STLB TOTAL     ACCESS:       6062  HIT:        136  MISS:       5926
cpu0_STLB LOAD      ACCESS:       4034  HIT:        136  MISS:       3898
cpu0_STLB RFO       ACCESS:       2028  HIT:          0  MISS:       2028
cpu0_STLB PREFETCH  ACCESS:          0  HIT:          0  MISS:          0
cpu0_STLB WRITEBACK ACCESS:          0  HIT:          0  MISS:          0
cpu0_L1D TOTAL     ACCESS:    8249665  HIT:    7874162  MISS:     375503
cpu0_L1D LOAD      ACCESS:    8052607  HIT:    7802790  MISS:     249817
cpu0_L1D RFO       ACCESS:     191184  HIT:      65501  MISS:     125683
cpu0_L1D PREFETCH  ACCESS:          0  HIT:          0  MISS:          0
cpu0_L1D WRITEBACK ACCESS:          0  HIT:          0  MISS:          0
cpu0_L2C TOTAL     ACCESS:     501306  HIT:     125776  MISS:     375530
cpu0_L2C LOAD      ACCESS:     249844  HIT:          0  MISS:     249844
cpu0_L2C RFO       ACCESS:     125683  HIT:          0  MISS:     125683
cpu0_L2C PREFETCH  ACCESS:          0  HIT:          0  MISS:          0
cpu0_L2C WRITEBACK ACCESS:     125776  HIT:     125776  MISS:          0
LLC TOTAL     ACCESS:     503665  HIT:     128135  MISS:     375530
LLC LOAD      ACCESS:     249844  HIT:          0  MISS:     249844
LLC RFO       ACCESS:     125683  HIT:          0  MISS:     125683
LLC PREFETCH  ACCESS:          0  HIT:          0  MISS:          0
LLC WRITEBACK ACCESS:     128135  HIT:     128135  MISS:          0
Heartbeat CPU 0 instructions: 88000002 cycles: 65703465 heartbeat IPC: 0.608667 cumulative IPC: 0.795172 (Simulation time: 1 hr 33 min 19 sec) 

Region of Interest Statistics
cpu0_DTLB TOTAL     ACCESS:    6835806  HIT:    6829452  MISS:       6354
cpu0_DTLB LOAD      ACCESS:    6381924  HIT:    6377656  MISS:       4268
cpu0_DTLB RFO       ACCESS:     453882  HIT:     451796  MISS:       2086
cpu0_DTLB PREFETCH  ACCESS:          0  HIT:          0  MISS:          0
cpu0_DTLB WRITEBACK ACCESS:          0  HIT:          0  MISS:          0
cpu0_ITLB TOTAL     ACCESS:     205217  HIT:     205217  MISS:          0
cpu0_ITLB LOAD      ACCESS:     205217  HIT:     205217  MISS:          0
cpu0_ITLB RFO       ACCESS:          0  HIT:          0  MISS:          0
cpu0_ITLB PREFETCH  ACCESS:          0  HIT:          0  MISS:          0
cpu0_ITLB WRITEBACK ACCESS:          0  HIT:          0  MISS:          0
cpu0_L1I TOTAL     ACCESS:         51  HIT:         24  MISS:         27
cpu0_L1I LOAD      ACCESS:         51  HIT:         24  MISS:         27
cpu0_L1I RFO       ACCESS:          0  HIT:          0  MISS:          0
cpu0_L1I PREFETCH  ACCESS:          0  HIT:          0  MISS:          0
cpu0_L1I WRITEBACK ACCESS:          0  HIT:          0  MISS:          0
cpu0_STLB TOTAL     ACCESS:       6354  HIT:        136  MISS:       6218
cpu0_STLB LOAD      ACCESS:       4268  HIT:        136  MISS:       4132
cpu0_STLB RFO       ACCESS:       2086  HIT:          0  MISS:       2086
cpu0_STLB PREFETCH  ACCESS:          0  HIT:          0  MISS:          0
cpu0_STLB WRITEBACK ACCESS:          0  HIT:          0  MISS:          0
cpu0_L1D TOTAL     ACCESS:    8956975  HIT:    8563282  MISS:     393693
cpu0_L1D LOAD      ACCESS:    8728346  HIT:    8463977  MISS:     264369
cpu0_L1D RFO       ACCESS:     222493  HIT:      93172  MISS:     129321
cpu0_L1D PREFETCH  ACCESS:          0  HIT:          0  MISS:          0
cpu0_L1D WRITEBACK ACCESS:          0  HIT:          0  MISS:          0
cpu0_L2C TOTAL     ACCESS:     523084  HIT:     129364  MISS:     393720
cpu0_L2C LOAD      ACCESS:     264396  HIT:          0  MISS:     264396
cpu0_L2C RFO       ACCESS:     129321  HIT:          0  MISS:     129321
cpu0_L2C PREFETCH  ACCESS:          0  HIT:          0  MISS:          0
cpu0_L2C WRITEBACK ACCESS:     129364  HIT:     129364  MISS:          0
LLC TOTAL     ACCESS:     525493  HIT:     131773  MISS:     393720
LLC LOAD      ACCESS:     264396  HIT:          0  MISS:     264396
LLC RFO       ACCESS:     129321  HIT:          0  MISS:     129321
LLC PREFETCH  ACCESS:          0  HIT:          0  MISS:          0
LLC WRITEBACK ACCESS:     131773  HIT:     131773  MISS:          0
Heartbeat CPU 0 instructions: 90000001 cycles: 68948854 heartbeat IPC: 0.616259 cumulative IPC: 0.783795 (Simulation time: 1 hr 37 min 19 sec) 

Region of Interest Statistics
cpu0_DTLB TOTAL     ACCESS:    7276811  HIT:    7270160  MISS:       6651
cpu0_DTLB LOAD      ACCESS:    6781052  HIT:    6776547  MISS:       4505
cpu0_DTLB RFO       ACCESS:     495759  HIT:     493613  MISS:       2146
cpu0_DTLB PREFETCH  ACCESS:          0  HIT:          0  MISS:          0
cpu0_DTLB WRITEBACK ACCESS:          0  HIT:          0  MISS:          0
cpu0_ITLB TOTAL     ACCESS:     208978  HIT:     208978  MISS:          0
cpu0_ITLB LOAD      ACCESS:     208978  HIT:     208978  MISS:          0
cpu0_ITLB RFO       ACCESS:          0  HIT:          0  MISS:          0
cpu0_ITLB PREFETCH  ACCESS:          0  HIT:          0  MISS:          0
cpu0_ITLB WRITEBACK ACCESS:          0  HIT:          0  MISS:          0
cpu0_L1I TOTAL     ACCESS:         51  HIT:         24  MISS:         27
cpu0_L1I LOAD      ACCESS:         51  HIT:         24  MISS:         27
cpu0_L1I RFO       ACCESS:          0  HIT:          0  MISS:          0
cpu0_L1I PREFETCH  ACCESS:          0  HIT:          0  MISS:          0
cpu0_L1I WRITEBACK ACCESS:          0  HIT:          0  MISS:          0
cpu0_STLB TOTAL     ACCESS:       6651  HIT:        136  MISS:       6515
cpu0_STLB LOAD      ACCESS:       4505  HIT:        136  MISS:       4369
cpu0_STLB RFO       ACCESS:       2146  HIT:          0  MISS:       2146
cpu0_STLB PREFETCH  ACCESS:          0  HIT:          0  MISS:          0
cpu0_STLB WRITEBACK ACCESS:          0  HIT:          0  MISS:          0
cpu0_L1D TOTAL     ACCESS:    9664320  HIT:    9252427  MISS:     411893
cpu0_L1D LOAD      ACCESS:    9404096  HIT:    9125167  MISS:     278929
cpu0_L1D RFO       ACCESS:     253818  HIT:     120857  MISS:     132961
cpu0_L1D PREFETCH  ACCESS:          0  HIT:          0  MISS:          0
cpu0_L1D WRITEBACK ACCESS:          0  HIT:          0  MISS:          0
cpu0_L2C TOTAL     ACCESS:     544865  HIT:     132945  MISS:     411920
cpu0_L2C LOAD      ACCESS:     278956  HIT:          0  MISS:     278956
cpu0_L2C RFO       ACCESS:     132961  HIT:          0  MISS:     132961
cpu0_L2C PREFETCH  ACCESS:          0  HIT:          0  MISS:          0
cpu0_L2C WRITEBACK ACCESS:     132945  HIT:     132945  MISS:          0
LLC TOTAL     ACCESS:     547212  HIT:     135292  MISS:     411920
LLC LOAD      ACCESS:     278956  HIT:          0  MISS:     278956
LLC RFO       ACCESS:     132961  HIT:          0  MISS:     132961
LLC PREFETCH  ACCESS:          0  HIT:          0  MISS:          0
LLC WRITEBACK ACCESS:     135292  HIT:     135292  MISS:          0
Heartbeat CPU 0 instructions: 92000001 cycles: 72215780 heartbeat IPC: 0.612196 cumulative IPC: 0.773471 (Simulation time: 1 hr 41 min 15 sec) 

Region of Interest Statistics
cpu0_DTLB TOTAL     ACCESS:    7717764  HIT:    7710820  MISS:       6944
cpu0_DTLB LOAD      ACCESS:    7180128  HIT:    7175388  MISS:       4740
cpu0_DTLB RFO       ACCESS:     537636  HIT:     535432  MISS:       2204
cpu0_DTLB PREFETCH  ACCESS:          0  HIT:          0  MISS:          0
cpu0_DTLB WRITEBACK ACCESS:          0  HIT:          0  MISS:          0
cpu0_ITLB TOTAL     ACCESS:     212727  HIT:     212727  MISS:          0
cpu0_ITLB LOAD      ACCESS:     212727  HIT:     212727  MISS:          0
cpu0_ITLB RFO       ACCESS:          0  HIT:          0  MISS:          0
cpu0_ITLB PREFETCH  ACCESS:          0  HIT:          0  MISS:          0
cpu0_ITLB WRITEBACK ACCESS:          0  HIT:          0  MISS:          0
cpu0_L1I TOTAL     ACCESS:         51  HIT:         24  MISS:         27
cpu0_L1I LOAD      ACCESS:         51  HIT:         24  MISS:         27
cpu0_L1I RFO       ACCESS:          0  HIT:          0  MISS:          0
cpu0_L1I PREFETCH  ACCESS:          0  HIT:          0  MISS:          0
cpu0_L1I WRITEBACK ACCESS:          0  HIT:          0  MISS:          0
cpu0_STLB TOTAL     ACCESS:       6944  HIT:        136  MISS:       6808
cpu0_STLB LOAD      ACCESS:       4740  HIT:        136  MISS:       4604
cpu0_STLB RFO       ACCESS:       2204  HIT:          0  MISS:       2204
cpu0_STLB PREFETCH  ACCESS:          0  HIT:          0  MISS:          0
cpu0_STLB WRITEBACK ACCESS:          0  HIT:          0  MISS:          0
cpu0_L1D TOTAL     ACCESS:   10371679  HIT:    9941595  MISS:     430084
cpu0_L1D LOAD      ACCESS:   10079888  HIT:    9786407  MISS:     293481
cpu0_L1D RFO       ACCESS:     285122  HIT:     148522  MISS:     136600
cpu0_L1D PREFETCH  ACCESS:          0  HIT:          0  MISS:          0
cpu0_L1D WRITEBACK ACCESS:          0  HIT:          0  MISS:          0
cpu0_L2C TOTAL     ACCESS:     566636  HIT:     136525  MISS:     430111
cpu0_L2C LOAD      ACCESS:     293508  HIT:          0  MISS:     293508
cpu0_L2C RFO       ACCESS:     136600  HIT:          0  MISS:     136600
cpu0_L2C PREFETCH  ACCESS:          0  HIT:          0  MISS:          0
cpu0_L2C WRITEBACK ACCESS:     136525  HIT:     136525  MISS:          0
LLC TOTAL     ACCESS:     568822  HIT:     138711  MISS:     430111
LLC LOAD      ACCESS:     293508  HIT:          0  MISS:     293508
LLC RFO       ACCESS:     136600  HIT:          0  MISS:     136600
LLC PREFETCH  ACCESS:          0  HIT:          0  MISS:          0
LLC WRITEBACK ACCESS:     138711  HIT:     138711  MISS:          0
Heartbeat CPU 0 instructions: 94000002 cycles: 75500925 heartbeat IPC: 0.608801 cumulative IPC: 0.764077 (Simulation time: 1 hr 45 min 1 sec) 

Region of Interest Statistics
cpu0_DTLB TOTAL     ACCESS:    8158732  HIT:    8151491  MISS:       7241
cpu0_DTLB LOAD      ACCESS:    7579219  HIT:    7574242  MISS:       4977
cpu0_DTLB RFO       ACCESS:     579513  HIT:     577249  MISS:       2264
cpu0_DTLB PREFETCH  ACCESS:          0  HIT:          0  MISS:          0
cpu0_DTLB WRITEBACK ACCESS:          0  HIT:          0  MISS:          0
cpu0_ITLB TOTAL     ACCESS:     216489  HIT:     216489  MISS:          0
cpu0_ITLB LOAD      ACCESS:     216489  HIT:     216489  MISS:          0
cpu0_ITLB RFO       ACCESS:          0  HIT:          0  MISS:          0
cpu0_ITLB PREFETCH  ACCESS:          0  HIT:          0  MISS:          0
cpu0_ITLB WRITEBACK ACCESS:          0  HIT:          0  MISS:          0
cpu0_L1I TOTAL     ACCESS:         51  HIT:         24  MISS:         27
cpu0_L1I LOAD      ACCESS:         51  HIT:         24  MISS:         27
cpu0_L1I RFO       ACCESS:          0  HIT:          0  MISS:          0
cpu0_L1I PREFETCH  ACCESS:          0  HIT:          0  MISS:          0
cpu0_L1I WRITEBACK ACCESS:          0  HIT:          0  MISS:          0
cpu0_STLB TOTAL     ACCESS:       7241  HIT:        136  MISS:       7105
cpu0_STLB LOAD      ACCESS:       4977  HIT:        136  MISS:       4841
cpu0_STLB RFO       ACCESS:       2264  HIT:          0  MISS:       2264
cpu0_STLB PREFETCH  ACCESS:          0  HIT:          0  MISS:          0
cpu0_STLB WRITEBACK ACCESS:          0  HIT:          0  MISS:          0
cpu0_L1D TOTAL     ACCESS:   11078991  HIT:   10630708  MISS:     448283
cpu0_L1D LOAD      ACCESS:   10755631  HIT:   10447590  MISS:     308041
cpu0_L1D RFO       ACCESS:     316424  HIT:     176185  MISS:     140239
cpu0_L1D PREFETCH  ACCESS:          0  HIT:          0  MISS:          0
cpu0_L1D WRITEBACK ACCESS:          0  HIT:          0  MISS:          0
cpu0_L2C TOTAL     ACCESS:     588422  HIT:     140112  MISS:     448310
cpu0_L2C LOAD      ACCESS:     308068  HIT:          0  MISS:     308068
cpu0_L2C RFO       ACCESS:     140239  HIT:          0  MISS:     140239
cpu0_L2C PREFETCH  ACCESS:          0  HIT:          0  MISS:          0
cpu0_L2C WRITEBACK ACCESS:     140112  HIT:     140112  MISS:          0
LLC TOTAL     ACCESS:     591066  HIT:     142756  MISS:     448310
LLC LOAD      ACCESS:     308068  HIT:          0  MISS:     308068
LLC RFO       ACCESS:     140239  HIT:          0  MISS:     140239
LLC PREFETCH  ACCESS:          0  HIT:          0  MISS:          0
LLC WRITEBACK ACCESS:     142756  HIT:     142756  MISS:          0
Heartbeat CPU 0 instructions: 96000003 cycles: 78755878 heartbeat IPC: 0.614448 cumulative IPC: 0.756072 (Simulation time: 1 hr 48 min 56 sec) 

Region of Interest Statistics
cpu0_DTLB TOTAL     ACCESS:    8599704  HIT:    8592171  MISS:       7533
cpu0_DTLB LOAD      ACCESS:    7978313  HIT:    7973102  MISS:       5211
cpu0_DTLB RFO       ACCESS:     621391  HIT:     619069  MISS:       2322
cpu0_DTLB PREFETCH  ACCESS:          0  HIT:          0  MISS:          0
cpu0_DTLB WRITEBACK ACCESS:          0  HIT:          0  MISS:          0
cpu0_ITLB TOTAL     ACCESS:     220225  HIT:     220225  MISS:          0
cpu0_ITLB LOAD      ACCESS:     220225  HIT:     220225  MISS:          0
cpu0_ITLB RFO       ACCESS:          0  HIT:          0  MISS:          0
cpu0_ITLB PREFETCH  ACCESS:          0  HIT:          0  MISS:          0
cpu0_ITLB WRITEBACK ACCESS:          0  HIT:          0  MISS:          0
cpu0_L1I TOTAL     ACCESS:         51  HIT:         24  MISS:         27
cpu0_L1I LOAD      ACCESS:         51  HIT:         24  MISS:         27
cpu0_L1I RFO       ACCESS:          0  HIT:          0  MISS:          0
cpu0_L1I PREFETCH  ACCESS:          0  HIT:          0  MISS:          0
cpu0_L1I WRITEBACK ACCESS:          0  HIT:          0  MISS:          0
cpu0_STLB TOTAL     ACCESS:       7533  HIT:        136  MISS:       7397
cpu0_STLB LOAD      ACCESS:       5211  HIT:        136  MISS:       5075
cpu0_STLB RFO       ACCESS:       2322  HIT:          0  MISS:       2322
cpu0_STLB PREFETCH  ACCESS:          0  HIT:          0  MISS:          0
cpu0_STLB WRITEBACK ACCESS:          0  HIT:          0  MISS:          0
cpu0_L1D TOTAL     ACCESS:   11786346  HIT:   11319872  MISS:     466474
cpu0_L1D LOAD      ACCESS:   11431408  HIT:   11108815  MISS:     322593
cpu0_L1D RFO       ACCESS:     347738  HIT:     203860  MISS:     143878
cpu0_L1D PREFETCH  ACCESS:          0  HIT:          0  MISS:          0
cpu0_L1D WRITEBACK ACCESS:          0  HIT:          0  MISS:          0
cpu0_L2C TOTAL     ACCESS:     610186  HIT:     143685  MISS:     466501
cpu0_L2C LOAD      ACCESS:     322620  HIT:          0  MISS:     322620
cpu0_L2C RFO       ACCESS:     143878  HIT:          0  MISS:     143878
cpu0_L2C PREFETCH  ACCESS:          0  HIT:          0  MISS:          0
cpu0_L2C WRITEBACK ACCESS:     143685  HIT:     143685  MISS:          0
LLC TOTAL     ACCESS:     612697  HIT:     146196  MISS:     466501
LLC LOAD      ACCESS:     322620  HIT:          0  MISS:     322620
LLC RFO       ACCESS:     143878  HIT:          0  MISS:     143878
LLC PREFETCH  ACCESS:          0  HIT:          0  MISS:          0
LLC WRITEBACK ACCESS:     146196  HIT:     146196  MISS:          0
Heartbeat CPU 0 instructions: 98000001 cycles: 82020684 heartbeat IPC: 0.612593 cumulative IPC: 0.748764 (Simulation time: 1 hr 52 min 50 sec) 

Region of Interest Statistics
cpu0_DTLB TOTAL     ACCESS:    9040674  HIT:    9032850  MISS:       7824
cpu0_DTLB LOAD      ACCESS:    8377404  HIT:    8371960  MISS:       5444
cpu0_DTLB RFO       ACCESS:     663270  HIT:     660890  MISS:       2380
cpu0_DTLB PREFETCH  ACCESS:          0  HIT:          0  MISS:          0
cpu0_DTLB WRITEBACK ACCESS:          0  HIT:          0  MISS:          0
cpu0_ITLB TOTAL     ACCESS:     223986  HIT:     223986  MISS:          0
cpu0_ITLB LOAD      ACCESS:     223986  HIT:     223986  MISS:          0
cpu0_ITLB RFO       ACCESS:          0  HIT:          0  MISS:          0
cpu0_ITLB PREFETCH  ACCESS:          0  HIT:          0  MISS:          0
cpu0_ITLB WRITEBACK ACCESS:          0  HIT:          0  MISS:          0
cpu0_L1I TOTAL     ACCESS:         51  HIT:         24  MISS:         27
cpu0_L1I LOAD      ACCESS:         51  HIT:         24  MISS:         27
cpu0_L1I RFO       ACCESS:          0  HIT:          0  MISS:          0
cpu0_L1I PREFETCH  ACCESS:          0  HIT:          0  MISS:          0
cpu0_L1I WRITEBACK ACCESS:          0  HIT:          0  MISS:          0
cpu0_STLB TOTAL     ACCESS:       7824  HIT:        136  MISS:       7688
cpu0_STLB LOAD      ACCESS:       5444  HIT:        136  MISS:       5308
cpu0_STLB RFO       ACCESS:       2380  HIT:          0  MISS:       2380
cpu0_STLB PREFETCH  ACCESS:          0  HIT:          0  MISS:          0
cpu0_STLB WRITEBACK ACCESS:          0  HIT:          0  MISS:          0
cpu0_L1D TOTAL     ACCESS:   12493677  HIT:   12009004  MISS:     484673
cpu0_L1D LOAD      ACCESS:   12107170  HIT:   11770017  MISS:     337153
cpu0_L1D RFO       ACCESS:     379045  HIT:     231528  MISS:     147517
cpu0_L1D PREFETCH  ACCESS:          0  HIT:          0  MISS:          0
cpu0_L1D WRITEBACK ACCESS:          0  HIT:          0  MISS:          0
cpu0_L2C TOTAL     ACCESS:     631977  HIT:     147277  MISS:     484700
cpu0_L2C LOAD      ACCESS:     337180  HIT:          0  MISS:     337180
cpu0_L2C RFO       ACCESS:     147517  HIT:          0  MISS:     147517
cpu0_L2C PREFETCH  ACCESS:          0  HIT:          0  MISS:          0
cpu0_L2C WRITEBACK ACCESS:     147277  HIT:     147277  MISS:          0
LLC TOTAL     ACCESS:     634442  HIT:     149742  MISS:     484700
LLC LOAD      ACCESS:     337180  HIT:          0  MISS:     337180
LLC RFO       ACCESS:     147517  HIT:          0  MISS:     147517
LLC PREFETCH  ACCESS:          0  HIT:          0  MISS:          0
LLC WRITEBACK ACCESS:     149742  HIT:     149742  MISS:          0
Heartbeat CPU 0 instructions: 100000000 cycles: 85307931 heartbeat IPC: 0.608412 cumulative IPC: 0.741918 (Simulation time: 1 hr 56 min 47 sec) 

Region of Interest Statistics
cpu0_DTLB TOTAL     ACCESS:    9481620  HIT:    9473499  MISS:       8121
cpu0_DTLB LOAD      ACCESS:    8776476  HIT:    8770795  MISS:       5681
cpu0_DTLB RFO       ACCESS:     705144  HIT:     702704  MISS:       2440
cpu0_DTLB PREFETCH  ACCESS:          0  HIT:          0  MISS:          0
cpu0_DTLB WRITEBACK ACCESS:          0  HIT:          0  MISS:          0
cpu0_ITLB TOTAL     ACCESS:     227734  HIT:     227734  MISS:          0
cpu0_ITLB LOAD      ACCESS:     227734  HIT:     227734  MISS:          0
cpu0_ITLB RFO       ACCESS:          0  HIT:          0  MISS:          0
cpu0_ITLB PREFETCH  ACCESS:          0  HIT:          0  MISS:          0
cpu0_ITLB WRITEBACK ACCESS:          0  HIT:          0  MISS:          0
cpu0_L1I TOTAL     ACCESS:         51  HIT:         24  MISS:         27
cpu0_L1I LOAD      ACCESS:         51  HIT:         24  MISS:         27
cpu0_L1I RFO       ACCESS:          0  HIT:          0  MISS:          0
cpu0_L1I PREFETCH  ACCESS:          0  HIT:          0  MISS:          0
cpu0_L1I WRITEBACK ACCESS:          0  HIT:          0  MISS:          0
cpu0_STLB TOTAL     ACCESS:       8121  HIT:        136  MISS:       7985
cpu0_STLB LOAD      ACCESS:       5681  HIT:        136  MISS:       5545
cpu0_STLB RFO       ACCESS:       2440  HIT:          0  MISS:       2440
cpu0_STLB PREFETCH  ACCESS:          0  HIT:          0  MISS:          0
cpu0_STLB WRITEBACK ACCESS:          0  HIT:          0  MISS:          0
cpu0_L1D TOTAL     ACCESS:   13201018  HIT:   12698154  MISS:     502864
cpu0_L1D LOAD      ACCESS:   12782939  HIT:   12431234  MISS:     351705
cpu0_L1D RFO       ACCESS:     410349  HIT:     259193  MISS:     151156
cpu0_L1D PREFETCH  ACCESS:          0  HIT:          0  MISS:          0
cpu0_L1D WRITEBACK ACCESS:          0  HIT:          0  MISS:          0
cpu0_L2C TOTAL     ACCESS:     653747  HIT:     150856  MISS:     502891
cpu0_L2C LOAD      ACCESS:     351732  HIT:          0  MISS:     351732
cpu0_L2C RFO       ACCESS:     151156  HIT:          0  MISS:     151156
cpu0_L2C PREFETCH  ACCESS:          0  HIT:          0  MISS:          0
cpu0_L2C WRITEBACK ACCESS:     150856  HIT:     150856  MISS:          0
LLC TOTAL     ACCESS:     656355  HIT:     153464  MISS:     502891
LLC LOAD      ACCESS:     351732  HIT:          0  MISS:     351732
LLC RFO       ACCESS:     151156  HIT:          0  MISS:     151156
LLC PREFETCH  ACCESS:          0  HIT:          0  MISS:          0
LLC WRITEBACK ACCESS:     153464  HIT:     153464  MISS:          0
Heartbeat CPU 0 instructions: 102000002 cycles: 88564890 heartbeat IPC: 0.61407 cumulative IPC: 0.736025 (Simulation time: 2 hr 0 min 38 sec) 

Region of Interest Statistics
cpu0_DTLB TOTAL     ACCESS:    9922605  HIT:    9914191  MISS:       8414
cpu0_DTLB LOAD      ACCESS:    9175582  HIT:    9169666  MISS:       5916
cpu0_DTLB RFO       ACCESS:     747023  HIT:     744525  MISS:       2498
cpu0_DTLB PREFETCH  ACCESS:          0  HIT:          0  MISS:          0
cpu0_DTLB WRITEBACK ACCESS:          0  HIT:          0  MISS:          0
cpu0_ITLB TOTAL     ACCESS:     231475  HIT:     231475  MISS:          0
cpu0_ITLB LOAD      ACCESS:     231475  HIT:     231475  MISS:          0
cpu0_ITLB RFO       ACCESS:          0  HIT:          0  MISS:          0
cpu0_ITLB PREFETCH  ACCESS:          0  HIT:          0  MISS:          0
cpu0_ITLB WRITEBACK ACCESS:          0  HIT:          0  MISS:          0
cpu0_L1I TOTAL     ACCESS:         51  HIT:         24  MISS:         27
cpu0_L1I LOAD      ACCESS:         51  HIT:         24  MISS:         27
cpu0_L1I RFO       ACCESS:          0  HIT:          0  MISS:          0
cpu0_L1I PREFETCH  ACCESS:          0  HIT:          0  MISS:          0
cpu0_L1I WRITEBACK ACCESS:          0  HIT:          0  MISS:          0
cpu0_STLB TOTAL     ACCESS:       8414  HIT:        136  MISS:       8278
cpu0_STLB LOAD      ACCESS:       5916  HIT:        136  MISS:       5780
cpu0_STLB RFO       ACCESS:       2498  HIT:          0  MISS:       2498
cpu0_STLB PREFETCH  ACCESS:          0  HIT:          0  MISS:          0
cpu0_STLB WRITEBACK ACCESS:          0  HIT:          0  MISS:          0
cpu0_L1D TOTAL     ACCESS:   13908357  HIT:   13387294  MISS:     521063
cpu0_L1D LOAD      ACCESS:   13458701  HIT:   13092436  MISS:     366265
cpu0_L1D RFO       ACCESS:     441662  HIT:     286867  MISS:     154795
cpu0_L1D PREFETCH  ACCESS:          0  HIT:          0  MISS:          0
cpu0_L1D WRITEBACK ACCESS:          0  HIT:          0  MISS:          0
cpu0_L2C TOTAL     ACCESS:     675530  HIT:     154440  MISS:     521090
cpu0_L2C LOAD      ACCESS:     366292  HIT:          0  MISS:     366292
cpu0_L2C RFO       ACCESS:     154795  HIT:          0  MISS:     154795
cpu0_L2C PREFETCH  ACCESS:          0  HIT:          0  MISS:          0
cpu0_L2C WRITEBACK ACCESS:     154440  HIT:     154440  MISS:          0
LLC TOTAL     ACCESS:     677985  HIT:     156895  MISS:     521090
LLC LOAD      ACCESS:     366292  HIT:          0  MISS:     366292
LLC RFO       ACCESS:     154795  HIT:          0  MISS:     154795
LLC PREFETCH  ACCESS:          0  HIT:          0  MISS:          0
LLC WRITEBACK ACCESS:     156895  HIT:     156895  MISS:          0
Heartbeat CPU 0 instructions: 104000001 cycles: 91842810 heartbeat IPC: 0.610143 cumulative IPC: 0.730443 (Simulation time: 2 hr 4 min 38 sec) 

Region of Interest Statistics
cpu0_DTLB TOTAL     ACCESS:   10363562  HIT:   10354851  MISS:       8711
cpu0_DTLB LOAD      ACCESS:    9574662  HIT:    9568509  MISS:       6153
cpu0_DTLB RFO       ACCESS:     788900  HIT:     786342  MISS:       2558
cpu0_DTLB PREFETCH  ACCESS:          0  HIT:          0  MISS:          0
cpu0_DTLB WRITEBACK ACCESS:          0  HIT:          0  MISS:          0
cpu0_ITLB TOTAL     ACCESS:     235248  HIT:     235248  MISS:          0
cpu0_ITLB LOAD      ACCESS:     235248  HIT:     235248  MISS:          0
cpu0_ITLB RFO       ACCESS:          0  HIT:          0  MISS:          0
cpu0_ITLB PREFETCH  ACCESS:          0  HIT:          0  MISS:          0
cpu0_ITLB WRITEBACK ACCESS:          0  HIT:          0  MISS:          0
cpu0_L1I TOTAL     ACCESS:         51  HIT:         24  MISS:         27
cpu0_L1I LOAD      ACCESS:         51  HIT:         24  MISS:         27
cpu0_L1I RFO       ACCESS:          0  HIT:          0  MISS:          0
cpu0_L1I PREFETCH  ACCESS:          0  HIT:          0  MISS:          0
cpu0_L1I WRITEBACK ACCESS:          0  HIT:          0  MISS:          0
cpu0_STLB TOTAL     ACCESS:       8711  HIT:        136  MISS:       8575
cpu0_STLB LOAD      ACCESS:       6153  HIT:        136  MISS:       6017
cpu0_STLB RFO       ACCESS:       2558  HIT:          0  MISS:       2558
cpu0_STLB PREFETCH  ACCESS:          0  HIT:          0  MISS:          0
cpu0_STLB WRITEBACK ACCESS:          0  HIT:          0  MISS:          0
cpu0_L1D TOTAL     ACCESS:   14615689  HIT:   14076426  MISS:     539263
cpu0_L1D LOAD      ACCESS:   14134473  HIT:   13753648  MISS:     380825
cpu0_L1D RFO       ACCESS:     472954  HIT:     314519  MISS:     158435
cpu0_L1D PREFETCH  ACCESS:          0  HIT:          0  MISS:          0
cpu0_L1D WRITEBACK ACCESS:          0  HIT:          0  MISS:          0
cpu0_L2C TOTAL     ACCESS:     697315  HIT:     158025  MISS:     539290
cpu0_L2C LOAD      ACCESS:     380852  HIT:          0  MISS:     380852
cpu0_L2C RFO       ACCESS:     158435  HIT:          0  MISS:     158435
cpu0_L2C PREFETCH  ACCESS:          0  HIT:          0  MISS:          0
cpu0_L2C WRITEBACK ACCESS:     158025  HIT:     158025  MISS:          0
LLC TOTAL     ACCESS:     699738  HIT:     160448  MISS:     539290
LLC LOAD      ACCESS:     380852  HIT:          0  MISS:     380852
LLC RFO       ACCESS:     158435  HIT:          0  MISS:     158435
LLC PREFETCH  ACCESS:          0  HIT:          0  MISS:          0
LLC WRITEBACK ACCESS:     160448  HIT:     160448  MISS:          0
Heartbeat CPU 0 instructions: 106000003 cycles: 95121669 heartbeat IPC: 0.609969 cumulative IPC: 0.725327 (Simulation time: 2 hr 8 min 24 sec) 

Region of Interest Statistics
cpu0_DTLB TOTAL     ACCESS:   10804540  HIT:   10795537  MISS:       9003
cpu0_DTLB LOAD      ACCESS:    9973763  HIT:    9967376  MISS:       6387
cpu0_DTLB RFO       ACCESS:     830777  HIT:     828161  MISS:       2616
cpu0_DTLB PREFETCH  ACCESS:          0  HIT:          0  MISS:          0
cpu0_DTLB WRITEBACK ACCESS:          0  HIT:          0  MISS:          0
cpu0_ITLB TOTAL     ACCESS:     238977  HIT:     238977  MISS:          0
cpu0_ITLB LOAD      ACCESS:     238977  HIT:     238977  MISS:          0
cpu0_ITLB RFO       ACCESS:          0  HIT:          0  MISS:          0
cpu0_ITLB PREFETCH  ACCESS:          0  HIT:          0  MISS:          0
cpu0_ITLB WRITEBACK ACCESS:          0  HIT:          0  MISS:          0
cpu0_L1I TOTAL     ACCESS:         51  HIT:         24  MISS:         27
cpu0_L1I LOAD      ACCESS:         51  HIT:         24  MISS:         27
cpu0_L1I RFO       ACCESS:          0  HIT:          0  MISS:          0
cpu0_L1I PREFETCH  ACCESS:          0  HIT:          0  MISS:          0
cpu0_L1I WRITEBACK ACCESS:          0  HIT:          0  MISS:          0
cpu0_STLB TOTAL     ACCESS:       9003  HIT:        136  MISS:       8867
cpu0_STLB LOAD      ACCESS:       6387  HIT:        136  MISS:       6251
cpu0_STLB RFO       ACCESS:       2616  HIT:          0  MISS:       2616
cpu0_STLB PREFETCH  ACCESS:          0  HIT:          0  MISS:          0
cpu0_STLB WRITEBACK ACCESS:          0  HIT:          0  MISS:          0
cpu0_L1D TOTAL     ACCESS:   15323003  HIT:   14765550  MISS:     557453
cpu0_L1D LOAD      ACCESS:   14810207  HIT:   14414830  MISS:     395377
cpu0_L1D RFO       ACCESS:     504271  HIT:     342198  MISS:     162073
cpu0_L1D PREFETCH  ACCESS:          0  HIT:          0  MISS:          0
cpu0_L1D WRITEBACK ACCESS:          0  HIT:          0  MISS:          0
cpu0_L2C TOTAL     ACCESS:     719081  HIT:     161601  MISS:     557480
cpu0_L2C LOAD      ACCESS:     395404  HIT:          0  MISS:     395404
cpu0_L2C RFO       ACCESS:     162073  HIT:          0  MISS:     162073
cpu0_L2C PREFETCH  ACCESS:          0  HIT:          0  MISS:          0
cpu0_L2C WRITEBACK ACCESS:     161601  HIT:     161601  MISS:          0
LLC TOTAL     ACCESS:     721606  HIT:     164126  MISS:     557480
LLC LOAD      ACCESS:     395404  HIT:          0  MISS:     395404
LLC RFO       ACCESS:     162073  HIT:          0  MISS:     162073
LLC PREFETCH  ACCESS:          0  HIT:          0  MISS:          0
LLC WRITEBACK ACCESS:     164126  HIT:     164126  MISS:          0
Heartbeat CPU 0 instructions: 108000002 cycles: 98411296 heartbeat IPC: 0.607971 cumulative IPC: 0.720531 (Simulation time: 2 hr 12 min 18 sec) 

Region of Interest Statistics
cpu0_DTLB TOTAL     ACCESS:   11245513  HIT:   11236212  MISS:       9301
cpu0_DTLB LOAD      ACCESS:   10372859  HIT:   10366234  MISS:       6625
cpu0_DTLB RFO       ACCESS:     872654  HIT:     869978  MISS:       2676
cpu0_DTLB PREFETCH  ACCESS:          0  HIT:          0  MISS:          0
cpu0_DTLB WRITEBACK ACCESS:          0  HIT:          0  MISS:          0
cpu0_ITLB TOTAL     ACCESS:     242750  HIT:     242750  MISS:          0
cpu0_ITLB LOAD      ACCESS:     242750  HIT:     242750  MISS:          0
[...]
cpu0_DTLB LOAD      ACCESS:  307579397  HIT:  307330229  MISS:     249168
cpu0_DTLB RFO       ACCESS:   28446396  HIT:   28380910  MISS:      65486
cpu0_DTLB PREFETCH  ACCESS:          0  HIT:          0  MISS:          0
cpu0_DTLB WRITEBACK ACCESS:          0  HIT:          0  MISS:          0
cpu0_ITLB TOTAL     ACCESS:   16422040  HIT:   16422023  MISS:         17
cpu0_ITLB LOAD      ACCESS:   16422040  HIT:   16422023  MISS:         17
cpu0_ITLB RFO       ACCESS:          0  HIT:          0  MISS:          0
cpu0_ITLB PREFETCH  ACCESS:          0  HIT:          0  MISS:          0
cpu0_ITLB WRITEBACK ACCESS:          0  HIT:          0  MISS:          0
cpu0_L1I TOTAL     ACCESS:   31139297  HIT:   31138371  MISS:        926
cpu0_L1I LOAD      ACCESS:   31139297  HIT:   31138371  MISS:        926
cpu0_L1I RFO       ACCESS:          0  HIT:          0  MISS:          0
cpu0_L1I PREFETCH  ACCESS:          0  HIT:          0  MISS:          0
cpu0_L1I WRITEBACK ACCESS:          0  HIT:          0  MISS:          0
cpu0_STLB TOTAL     ACCESS:     314671  HIT:     161407  MISS:     153264
cpu0_STLB LOAD      ACCESS:     249185  HIT:     138141  MISS:     111044
cpu0_STLB RFO       ACCESS:      65486  HIT:      23266  MISS:      42220
cpu0_STLB PREFETCH  ACCESS:          0  HIT:          0  MISS:          0
cpu0_STLB WRITEBACK ACCESS:          0  HIT:          0  MISS:          0
cpu0_L1D TOTAL     ACCESS:  397976711  HIT:  383567508  MISS:   14409203
cpu0_L1D LOAD      ACCESS:  363460154  HIT:  352469164  MISS:   10990990
cpu0_L1D RFO       ACCESS:   34371428  HIT:   30966703  MISS:    3404725
cpu0_L1D PREFETCH  ACCESS:          0  HIT:          0  MISS:          0
cpu0_L1D WRITEBACK ACCESS:          0  HIT:          0  MISS:          0
cpu0_L2C TOTAL     ACCESS:   18749342  HIT:    7443792  MISS:   11305550
cpu0_L2C LOAD      ACCESS:   10991797  HIT:    2330551  MISS:    8661246
cpu0_L2C RFO       ACCESS:    3404675  HIT:     763103  MISS:    2641572
cpu0_L2C PREFETCH  ACCESS:          0  HIT:          0  MISS:          0
cpu0_L2C WRITEBACK ACCESS:    4339382  HIT:    4337174  MISS:       2208
LLC TOTAL     ACCESS:   14537382  HIT:    3632310  MISS:   10905072
LLC LOAD      ACCESS:    8661244  HIT:     408684  MISS:    8252560
LLC RFO       ACCESS:    2641569  HIT:      39192  MISS:    2602377
LLC PREFETCH  ACCESS:          0  HIT:          0  MISS:          0
LLC WRITEBACK ACCESS:    3234045  HIT:    3184355  MISS:      49690
Heartbeat CPU 0 instructions: 1550000003 cycles: 1579369394 heartbeat IPC: 1.33006 cumulative IPC: 0.960643 (Simulation time: 22 hr 39 min 31 sec) 

Region of Interest Statistics
cpu0_DTLB TOTAL     ACCESS:  336516738  HIT:  336201384  MISS:     315354
cpu0_DTLB LOAD      ACCESS:  308023785  HIT:  307773967  MISS:     249818
cpu0_DTLB RFO       ACCESS:   28492953  HIT:   28427417  MISS:      65536
cpu0_DTLB PREFETCH  ACCESS:          0  HIT:          0  MISS:          0
cpu0_DTLB WRITEBACK ACCESS:          0  HIT:          0  MISS:          0
cpu0_ITLB TOTAL     ACCESS:   16443748  HIT:   16443731  MISS:         17
cpu0_ITLB LOAD      ACCESS:   16443748  HIT:   16443731  MISS:         17
cpu0_ITLB RFO       ACCESS:          0  HIT:          0  MISS:          0
cpu0_ITLB PREFETCH  ACCESS:          0  HIT:          0  MISS:          0
cpu0_ITLB WRITEBACK ACCESS:          0  HIT:          0  MISS:          0
cpu0_L1I TOTAL     ACCESS:   31183455  HIT:   31182529  MISS:        926
cpu0_L1I LOAD      ACCESS:   31183455  HIT:   31182529  MISS:        926
cpu0_L1I RFO       ACCESS:          0  HIT:          0  MISS:          0
cpu0_L1I PREFETCH  ACCESS:          0  HIT:          0  MISS:          0
cpu0_L1I WRITEBACK ACCESS:          0  HIT:          0  MISS:          0
cpu0_STLB TOTAL     ACCESS:     315371  HIT:     162036  MISS:     153335
cpu0_STLB LOAD      ACCESS:     249835  HIT:     138720  MISS:     111115
cpu0_STLB RFO       ACCESS:      65536  HIT:      23316  MISS:      42220
cpu0_STLB PREFETCH  ACCESS:          0  HIT:          0  MISS:          0
cpu0_STLB WRITEBACK ACCESS:          0  HIT:          0  MISS:          0
cpu0_L1D TOTAL     ACCESS:  398517163  HIT:  384084689  MISS:   14432474
cpu0_L1D LOAD      ACCESS:  363924642  HIT:  352913956  MISS:   11010686
cpu0_L1D RFO       ACCESS:   34447324  HIT:   31039039  MISS:    3408285
cpu0_L1D PREFETCH  ACCESS:          0  HIT:          0  MISS:          0
cpu0_L1D WRITEBACK ACCESS:          0  HIT:          0  MISS:          0
cpu0_L2C TOTAL     ACCESS:   18779168  HIT:    7462902  MISS:   11316266
cpu0_L2C LOAD      ACCESS:   11011493  HIT:    2339876  MISS:    8671617
cpu0_L2C RFO       ACCESS:    3408235  HIT:     766342  MISS:    2641893
cpu0_L2C PREFETCH  ACCESS:          0  HIT:          0  MISS:          0
cpu0_L2C WRITEBACK ACCESS:    4345937  HIT:    4343707  MISS:       2230
LLC TOTAL     ACCESS:   14550568  HIT:    3636632  MISS:   10913936
LLC LOAD      ACCESS:    8671615  HIT:     410584  MISS:    8261031
LLC RFO       ACCESS:    2641890  HIT:      39471  MISS:    2602419
LLC PREFETCH  ACCESS:          0  HIT:          0  MISS:          0
LLC WRITEBACK ACCESS:    3236537  HIT:    3186498  MISS:      50039
Finished CPU 0 instructions: 1500000001 cycles: 1561454318 cumulative IPC: 0.960643 (Simulation time: 22 hr 39 min 31 sec) 

ChampSim completed all CPUs

Region of Interest Statistics

CPU 0 cumulative IPC: 0.960643 instructions: 1500000001 cycles: 1561454318
cpu0_DTLB TOTAL     ACCESS:  336516738  HIT:  336201384  MISS:     315354
cpu0_DTLB LOAD      ACCESS:  308023785  HIT:  307773967  MISS:     249818
cpu0_DTLB RFO       ACCESS:   28492953  HIT:   28427417  MISS:      65536
cpu0_DTLB PREFETCH  ACCESS:          0  HIT:          0  MISS:          0
cpu0_DTLB WRITEBACK ACCESS:          0  HIT:          0  MISS:          0
cpu0_DTLB TRANSLATION ACCESS:          0  HIT:          0  MISS:          0
cpu0_DTLB PREFETCH  REQUESTED:          0  ISSUED:          0  USEFUL:          0  USELESS:          0
cpu0_DTLB AVERAGE MISS LATENCY: 24.2923 cycles
cpu0_ITLB TOTAL     ACCESS:   16443748  HIT:   16443731  MISS:         17
cpu0_ITLB LOAD      ACCESS:   16443748  HIT:   16443731  MISS:         17
cpu0_ITLB RFO       ACCESS:          0  HIT:          0  MISS:          0
cpu0_ITLB PREFETCH  ACCESS:          0  HIT:          0  MISS:          0
cpu0_ITLB WRITEBACK ACCESS:          0  HIT:          0  MISS:          0
cpu0_ITLB TRANSLATION ACCESS:          0  HIT:          0  MISS:          0
cpu0_ITLB PREFETCH  REQUESTED:          0  ISSUED:          0  USEFUL:          0  USELESS:          0
cpu0_ITLB AVERAGE MISS LATENCY: 321.176 cycles
cpu0_L1I TOTAL     ACCESS:   31183455  HIT:   31182529  MISS:        926
cpu0_L1I LOAD      ACCESS:   31183455  HIT:   31182529  MISS:        926
cpu0_L1I RFO       ACCESS:          0  HIT:          0  MISS:          0
cpu0_L1I PREFETCH  ACCESS:          0  HIT:          0  MISS:          0
cpu0_L1I WRITEBACK ACCESS:          0  HIT:          0  MISS:          0
cpu0_L1I TRANSLATION ACCESS:          0  HIT:          0  MISS:          0
cpu0_L1I PREFETCH  REQUESTED:          0  ISSUED:          0  USEFUL:          0  USELESS:          0
cpu0_L1I AVERAGE MISS LATENCY: 366.04 cycles
cpu0_STLB TOTAL     ACCESS:     315371  HIT:     162036  MISS:     153335
cpu0_STLB LOAD      ACCESS:     249835  HIT:     138720  MISS:     111115
cpu0_STLB RFO       ACCESS:      65536  HIT:      23316  MISS:      42220
cpu0_STLB PREFETCH  ACCESS:          0  HIT:          0  MISS:          0
cpu0_STLB WRITEBACK ACCESS:          0  HIT:          0  MISS:          0
cpu0_STLB TRANSLATION ACCESS:          0  HIT:          0  MISS:          0
cpu0_STLB PREFETCH  REQUESTED:          0  ISSUED:          0  USEFUL:          0  USELESS:          0
cpu0_STLB AVERAGE MISS LATENCY: 31.4462 cycles
cpu0_L1D TOTAL     ACCESS:  398517163  HIT:  384084689  MISS:   14432474
cpu0_L1D LOAD      ACCESS:  363924642  HIT:  352913956  MISS:   11010686
cpu0_L1D RFO       ACCESS:   34447324  HIT:   31039039  MISS:    3408285
cpu0_L1D PREFETCH  ACCESS:          0  HIT:          0  MISS:          0
cpu0_L1D WRITEBACK ACCESS:          0  HIT:          0  MISS:          0
cpu0_L1D TRANSLATION ACCESS:     145197  HIT:     131694  MISS:      13503
cpu0_L1D PREFETCH  REQUESTED:          0  ISSUED:          0  USEFUL:          0  USELESS:          0
cpu0_L1D AVERAGE MISS LATENCY: 246.947 cycles
cpu0_L2C TOTAL     ACCESS:   18779168  HIT:    7462902  MISS:   11316266
cpu0_L2C LOAD      ACCESS:   11011493  HIT:    2339876  MISS:    8671617
cpu0_L2C RFO       ACCESS:    3408235  HIT:     766342  MISS:    2641893
cpu0_L2C PREFETCH  ACCESS:          0  HIT:          0  MISS:          0
cpu0_L2C WRITEBACK ACCESS:    4345937  HIT:    4343707  MISS:       2230
cpu0_L2C TRANSLATION ACCESS:      13503  HIT:      12977  MISS:        526
cpu0_L2C PREFETCH  REQUESTED:          0  ISSUED:          0  USEFUL:          0  USELESS:          0
cpu0_L2C AVERAGE MISS LATENCY: 300.934 cycles
LLC TOTAL     ACCESS:   14550568  HIT:    3636632  MISS:   10913936
LLC LOAD      ACCESS:    8671615  HIT:     410584  MISS:    8261031
LLC RFO       ACCESS:    2641890  HIT:      39471  MISS:    2602419
LLC PREFETCH  ACCESS:          0  HIT:          0  MISS:          0
LLC WRITEBACK ACCESS:    3236537  HIT:    3186498  MISS:      50039
LLC TRANSLATION ACCESS:        526  HIT:         79  MISS:        447
LLC PREFETCH  REQUESTED:          0  ISSUED:          0  USEFUL:          0  USELESS:          0
LLC AVERAGE MISS LATENCY: 290.258 cycles
~~~~~~~~~~Reuse Distance Profiler output~~~~~~~~~~
0	0	0
1	0	0
2	0	0
3	0	0
4	0	0
5	0	0
6	0	0
7	0	0
8	0	0
9	0	0
10	0	0
11	0	0
12	0	0
13	0	0
14	0	0
15	0	0
16	0	0
17	0	0
18	0	0
19	0	0
20	0	0
21	0	0
22	0	0
23	0	0
24	0	0
25	0	0
26	0	0
27	0	0
28	0	0
29	0	0
30	0	0
31	0	0
32	0	0
33	0	0
34	0	0
35	0	0
36	0	0
37	0	0
38	0	0
39	0	0
40	0	0
41	0	0
42	0	0
43	0	0
44	0	0
45	0	0
46	0	0
47	0	0
48	0	0
49	0	0
50	0	0
51	0	0
52	0	0
53	0	0
54	0	0
55	0	0
56	0	0
57	0	0
58	0	0
59	0	0
60	0	0
61	0	0
62	0	0
63	0	0
64	0	0
66	0	0
68	0	0
70	0	0
72	0	0
74	0	0
76	0	0
78	0	0
80	0	0
82	0	0
84	0	0
86	0	0
88	0	0
90	0	0
92	0	0
94	0	0
96	0	0
98	0	0
100	0	0
102	0	0
104	0	0
106	0	0
108	0	0
110	0	0
112	0	0
114	0	0
116	0	0
118	0	0
120	0	0
122	0	0
124	0	0
126	0	0
128	0	0
132	0	0
136	0	0
140	0	0
144	0	0
148	0	0
152	0	0
156	0	0
160	0	0
164	0	0
168	0	0
172	0	0
176	0	0
180	0	0
184	0	0
188	0	0
192	0	0
196	0	0
200	0	0
204	0	0
208	0	0
212	0	0
216	0	0
220	0	0
224	0	0
228	0	0
232	0	0
236	0	0
240	0	0
244	0	0
248	0	0
252	0	0
256	0	0
264	0	0
272	0	0
280	0	0
288	0	0
296	0	0
304	0	0
312	0	0
320	0	0
328	0	0
336	0	0
344	0	0
352	0	0
360	0	0
368	0	0
376	0	0
384	0	0
392	0	0
400	0	0
408	0	0
416	0	0
424	0	0
432	0	0
440	0	0
448	0	0
456	0	0
464	0	0
472	0	0
480	0	0
488	0	0
496	0	0
504	0	0
512	0	0
528	0	0
544	0	0
560	0	0
576	0	0
592	0	0
608	0	0
624	0	0
640	0	0
656	0	0
672	0	0
688	0	0
704	0	0
720	0	0
736	0	0
752	0	0
768	0	0
784	0	0
800	0	0
816	0	0
832	0	0
848	0	0
864	0	0
880	0	0
896	0	0
912	0	0
928	0	0
944	0	0
960	0	0
976	0	0
992	0	0
1008	0	0
1024	0	0
1056	0	0
1088	0	0
1120	0	0
1152	0	0
1184	0	0
1216	0	0
1248	0	0
1280	0	0
1312	0	0
1344	0	0
1376	0	0
1408	0	0
1440	0	0
1472	0	0
1504	0	0
1536	0	0
1568	0	0
1600	0	0
1632	0	0
1664	0	0
1696	0	0
1728	0	0
1760	0	0
1792	0	0
1824	0	0
1856	0	0
1888	0	0
1920	0	0
1952	0	0
1984	0	0
2016	0	0
2048	0	0
2112	0	0
2176	0	0
2240	0	0
2304	0	0
2368	0	0
2432	0	0
2496	0	0
2560	0	0
2624	0	0
2688	0	0
2752	0	0
2816	0	0
2880	0	0
2944	0	0
3008	0	0
3072	0	0
3136	0	0
3200	0	0
3264	0	0
3328	0	0
3392	0	0
3456	0	0
3520	0	0
3584	0	0
3648	0	0
3712	0	0
3776	0	0
3840	0	0
3904	0	0
3968	0	0
4032	0	0
4096	0	0
4224	0	0
4352	0	0
4480	0	0
4608	0	0
4736	0	0
4864	0	0
4992	0	0
5120	0	0
5248	0	0
5376	0	0
5504	0	0
5632	0	0
5760	0	0
5888	0	0
6016	0	0
6144	0	0
6272	0	0
6400	0	0
6528	0	0
6656	0	0
6784	0	0
6912	0	0
7040	0	0
7168	0	0
7296	0	0
7424	0	0
7552	0	0
7680	0	0
7808	0	0
7936	0	0
8064	0	0
8192	0	0
8448	0	0
8704	0	0
8960	0	0
9216	0	0
9472	0	0
9728	0	0
9984	0	0
10240	0	0
10496	0	0
10752	0	0
11008	0	0
11264	0	0
11520	0	0
11776	0	0
12032	0	0
12288	0	0
12544	0	0
12800	0	0
13056	0	0
13312	0	0
13568	0	0
13824	0	0
14080	0	0
14336	0	0
14592	0	0
14848	0	0
15104	0	0
15360	0	0
15616	0	0
15872	0	0
16128	0	0
16384	0	0
16896	0	0
17408	0	0
17920	0	0
18432	0	0
18944	0	0
19456	0	0
19968	0	0
20480	0	0
20992	0	0
21504	0	0
22016	0	0
22528	0	0
23040	0	0
23552	0	0
24064	0	0
24576	0	0
25088	0	0
25600	0	0
26112	0	0
26624	0	0
27136	0	0
27648	0	0
28160	0	0
28672	0	0
29184	0	0
29696	0	0
30208	0	0
30720	0	0
31232	0	0
31744	0	0
32256	0	0
32768	0	0
33792	0	0
34816	0	0
35840	0	0
36864	0	0
37888	0	0
38912	0	0
39936	0	0
40960	0	0
41984	0	0
43008	0	0
44032	0	0
45056	0	0
46080	0	0
47104	0	0
48128	0	0
49152	0	0
50176	0	0
51200	0	0
52224	0	0
53248	0	0
54272	0	0
55296	0	0
56320	0	0
57344	0	0
58368	0	0
59392	0	0
60416	0	0
61440	0	0
62464	0	0
63488	0	0
64512	0	0
65536	0	0
67584	0	0
69632	0	0
71680	0	0
73728	0	0
75776	0	0
77824	0	0
79872	0	0
81920	0	0
83968	0	0
86016	0	0
88064	0	0
90112	0	0
92160	0	0
94208	0	0
96256	0	0
98304	0	0
100352	0	0
102400	0	0
104448	0	0
106496	0	0
108544	0	0
110592	0	0
112640	0	0
114688	0	0
116736	0	0
118784	0	0
120832	0	0
122880	0	0
124928	0	0
126976	0	0
129024	0	0
131072	0	0
135168	0	0
139264	0	0
143360	0	0
147456	0	0
151552	0	0
155648	0	0
159744	0	0
163840	0	0
167936	0	0
172032	0	0
176128	0	0
180224	0	0
184320	0	0
188416	0	0
192512	0	0
196608	0	0
200704	0	0
204800	0	0
208896	0	0
212992	0	0
217088	0	0
221184	0	0
225280	0	0
229376	0	0
233472	0	0
237568	0	0
241664	0	0
245760	0	0
249856	0	0
253952	0	0
258048	0	0
262144	0	0
270336	0	0
278528	0	0
286720	0	0
294912	0	0
303104	0	0
311296	0	0
319488	0	0
327680	0	0
335872	0	0
344064	0	0
352256	0	0
360448	0	0
368640	0	0
376832	0	0
385024	0	0
393216	0	0
401408	0	0
409600	0	0
417792	0	0
425984	0	0
434176	0	0
442368	0	0
450560	0	0
458752	0	0
466944	0	0
475136	0	0
483328	0	0
491520	0	0
499712	0	0
507904	0	0
516096	0	0
524288	0	0
540672	0	0
557056	0	0
573440	0	0
589824	0	0
606208	0	0
622592	0	0
638976	0	0
655360	0	0
671744	0	0
688128	0	0
704512	0	0
720896	0	0
737280	0	0
753664	0	0
770048	0	0
786432	0	0
802816	0	0
819200	0	0
835584	0	0
851968	0	0
868352	0	0
884736	0	0
901120	0	0
917504	0	0
933888	0	0
950272	0	0
966656	0	0
983040	0	0
999424	0	0
1015808	0	0
1032192	0	0
1048576	0	0
1081344	0	0
1114112	0	0
1146880	0	0
1179648	0	0
1212416	0	0
1245184	0	0
1277952	0	0
1310720	0	0
1343488	0	0
1376256	0	0
1409024	0	0
1441792	0	0
1474560	0	0
1507328	0	0
1540096	0	0
1572864	0	0
1605632	0	0
1638400	0	0
1671168	0	0
1703936	0	0
1736704	0	0
1769472	0	0
1802240	0	0
1835008	0	0
1867776	0	0
1900544	0	0
1933312	0	0
1966080	0	0
1998848	0	0
2031616	0	0
2064384	0	0
2097152	0	0
2162688	0	0
2228224	0	0
2293760	0	0
2359296	0	0
2424832	0	0
2490368	0	0
2555904	0	0
2621440	0	0
2686976	0	0
2752512	0	0
2818048	0	0
2883584	0	0
2949120	0	0
3014656	0	0
3080192	0	0
3145728	0	0
3211264	0	0
3276800	0	0
3342336	0	0
3407872	0	0
3473408	0	0
3538944	0	0
3604480	0	0
3670016	0	0
3735552	0	0
3801088	0	0
3866624	0	0
3932160	0	0
3997696	0	0
4063232	0	0
4128768	0	0
4194304	0	0
4325376	0	0
4456448	0	0
4587520	0	0
4718592	0	0
4849664	0	0
4980736	0	0
5111808	0	0
5242880	0	0
5373952	0	0
5505024	0	0
5636096	0	0
5767168	0	0
5898240	0	0
6029312	0	0
6160384	0	0
6291456	0	0
6422528	0	0
6553600	0	0
6684672	0	0
6815744	0	0
6946816	0	0
7077888	0	0
7208960	0	0
7340032	0	0
7471104	0	0
7602176	0	0
7733248	0	0
7864320	0	0
7995392	0	0
8126464	0	0
8257536	0	0
8388608	0	0
8650752	0	0
8912896	0	0
9175040	0	0
9437184	0	0
9699328	0	0
9961472	0	0
10223616	0	0
10485760	0	0
10747904	0	0
11010048	0	0
11272192	0	0
11534336	0	0
11796480	0	0
12058624	0	0
12320768	0	0
12582912	0	0
12845056	0	0
13107200	0	0
13369344	0	0
13631488	0	0
13893632	0	0
14155776	0	0
14417920	0	0
14680064	0	0
14942208	0	0
15204352	0	0
15466496	0	0
15728640	0	0
15990784	0	0
16252928	0	0
16515072	0	0
16777216	0	0
17301504	0	0
17825792	0	0
18350080	0	0
18874368	0	0
19398656	0	0
19922944	0	0
20447232	0	0
20971520	0	0
21495808	0	0
22020096	0	0
22544384	0	0
23068672	0	0
23592960	0	0
24117248	0	0
24641536	0	0
25165824	0	0
25690112	0	0
26214400	0	0
26738688	0	0
27262976	0	0
27787264	0	0
28311552	0	0
28835840	0	0
29360128	0	0
29884416	0	0
30408704	0	0
30932992	0	0
31457280	0	0
31981568	0	0
32505856	0	0
33030144	0	0
33554432	0	0
34603008	0	0
35651584	0	0
36700160	0	0
37748736	0	0
38797312	0	0
39845888	0	0
40894464	0	0
41943040	0	0
42991616	0	0
44040192	0	0
45088768	0	0
46137344	0	0
47185920	0	0
48234496	0	0
49283072	0	0
50331648	0	0
51380224	0	0
52428800	0	0
53477376	0	0
54525952	0	0
55574528	0	0
56623104	0	0
57671680	0	0
58720256	0	0
59768832	0	0
60817408	0	0
61865984	0	0
62914560	0	0
63963136	0	0
65011712	0	0
66060288	0	0
67108864	0	0
69206016	0	0
71303168	0	0
73400320	0	0
75497472	0	0
77594624	0	0
79691776	0	0
81788928	0	0
83886080	0	0
85983232	0	0
88080384	0	0
90177536	0	0
92274688	0	0
94371840	0	0
96468992	0	0
98566144	0	0
100663296	0	0
102760448	0	0
104857600	0	0
106954752	0	0
109051904	0	0
111149056	0	0
113246208	0	0
115343360	0	0
117440512	0	0
119537664	0	0
121634816	0	0
123731968	0	0
125829120	0	0
127926272	0	0
130023424	0	0
132120576	0	0
134217728	0	0
138412032	0	0
142606336	0	0
146800640	0	0
150994944	0	0
155189248	0	0
159383552	0	0
163577856	0	0
167772160	0	0
171966464	0	0
176160768	0	0
180355072	0	0
184549376	0	0
188743680	0	0
192937984	0	0
197132288	0	0
201326592	0	0
205520896	0	0
209715200	0	0
213909504	0	0
218103808	0	0
222298112	0	0
226492416	0	0
230686720	0	0
234881024	0	0
239075328	0	0
243269632	0	0
247463936	0	0
251658240	0	0
255852544	0	0
260046848	0	0
264241152	0	0
268435456	0	0
276824064	0	0
285212672	0	0
293601280	0	0
301989888	0	0
310378496	0	0
318767104	0	0
327155712	0	0
335544320	0	0
343932928	0	0
352321536	0	0
360710144	0	0
369098752	0	0
377487360	0	0
385875968	0	0
394264576	0	0
402653184	0	0
411041792	0	0
419430400	0	0
427819008	0	0
436207616	0	0
444596224	0	0
452984832	0	0
461373440	0	0
469762048	0	0
478150656	0	0
486539264	0	0
494927872	0	0
503316480	0	0
511705088	0	0
520093696	0	0
528482304	0	0
536870912	0	0
553648128	0	0
570425344	0	0
587202560	0	0
603979776	0	0
620756992	0	0
637534208	0	0
654311424	0	0
671088640	0	0
687865856	0	0
704643072	0	0
721420288	0	0
738197504	0	0
754974720	0	0
771751936	0	0
788529152	0	0
805306368	0	0
822083584	0	0
838860800	0	0
855638016	0	0
872415232	0	0
889192448	0	0
905969664	0	0
922746880	0	0
939524096	0	0
956301312	0	0
973078528	0	0
989855744	0	0
1006632960	0	0
1023410176	0	0
1040187392	0	0
1056964608	0	0
1073741824	0	0
1107296256	0	0
1140850688	0	0
1174405120	0	0
1207959552	0	0
1241513984	0	0
1275068416	0	0
1308622848	0	0
1342177280	0	0
1375731712	0	0
1409286144	0	0
1442840576	0	0
1476395008	0	0
1509949440	0	0
1543503872	0	0
1577058304	0	0
1610612736	0	0
1644167168	0	0
1677721600	0	0
1711276032	0	0
1744830464	0	0
1778384896	0	0
1811939328	0	0
1845493760	0	0
1879048192	0	0
1912602624	0	0
1946157056	0	0
1979711488	0	0
2013265920	0	0
2046820352	0	0
2080374784	0	0
2113929216	0	0
2147483648	0	0
2214592512	0	0
2281701376	0	0
2348810240	0	0
2415919104	0	0
2483027968	0	0
2550136832	0	0
2617245696	0	0
2684354560	0	0
2751463424	0	0
2818572288	0	0
2885681152	0	0
2952790016	0	0
3019898880	0	0
3087007744	0	0
3154116608	0	0
3221225472	0	0
3288334336	0	0
3355443200	0	0
3422552064	0	0
3489660928	0	0
3556769792	0	0
3623878656	0	0
3690987520	0	0
3758096384	0	0
3825205248	0	0
3892314112	0	0
3959422976	0	0
4026531840	0	0
4093640704	0	0
4160749568	0	0
4227858432	0	0
~~~~~~~~~~Reuse Distance Profiler output end~~~~~~~~~~

Sampler size:0

DRAM Statistics
 CHANNEL 0
 RQ ROW_BUFFER_HIT:     378441  ROW_BUFFER_MISS:   10484357
 DBUS AVG_CONGESTED_CYCLE:    3.94464
 WQ ROW_BUFFER_HIT:     517657  ROW_BUFFER_MISS:    2690732  FULL:          0


CPU 0 Branch Prediction Accuracy: 98.2871% MPKI: 0.417234 Average ROB Occupancy at Mispredict: 314.27
Branch type MPKI
BRANCH_DIRECT_JUMP: 3.73333e-05
BRANCH_INDIRECT: 0
BRANCH_CONDITIONAL: 0.417039
BRANCH_DIRECT_CALL: 8e-05
BRANCH_INDIRECT_CALL: 0
BRANCH_RETURN: 7.73333e-05

