
*** ChampSim Multicore Out-of-Order Simulator ***

Warmup Instructions: 50000000
Simulation Instructions: 1500000000
Number of CPUs: 1
Off-chip DRAM Size: 4 GiB Channels: 1 Width: 64-bit Data Rate: 3200 MT/s

VirtualMemory physical capacity: 8588881920 num_ppages: 2096895
VirtualMemory page size: 4096 log2_page_size: 12

CPU 0 runs /s/traces/champsim_traces/437.leslie3d-232B.champsimtrace.xz
CPU 0 Bimodal branch predictor
Basic BTB sets: 1024 ways: 8 indirect buffer size: 4096 RAS size: 64
Initializing LRU.
Initializing LRU.
Initializing LRU.
Initializing LRU.
Initializing rdLRU.
Initializing LRU.
Initializing LRU.
Heartbeat CPU 0 instructions: 2000000 cycles: 763815 heartbeat IPC: 2.61844 cumulative IPC: 2.61844 (Simulation time: 0 hr 1 min 49 sec) 
Heartbeat CPU 0 instructions: 4000003 cycles: 1577227 heartbeat IPC: 2.45878 cumulative IPC: 2.5361 (Simulation time: 0 hr 3 min 35 sec) 
Heartbeat CPU 0 instructions: 6000003 cycles: 2328247 heartbeat IPC: 2.66304 cumulative IPC: 2.57705 (Simulation time: 0 hr 5 min 16 sec) 
Heartbeat CPU 0 instructions: 8000002 cycles: 3079021 heartbeat IPC: 2.66392 cumulative IPC: 2.59823 (Simulation time: 0 hr 7 min 2 sec) 
Heartbeat CPU 0 instructions: 10000004 cycles: 3830585 heartbeat IPC: 2.66112 cumulative IPC: 2.61057 (Simulation time: 0 hr 8 min 48 sec) 
Heartbeat CPU 0 instructions: 12000002 cycles: 4582632 heartbeat IPC: 2.65941 cumulative IPC: 2.61858 (Simulation time: 0 hr 10 min 36 sec) 
Heartbeat CPU 0 instructions: 14000001 cycles: 5407399 heartbeat IPC: 2.42493 cumulative IPC: 2.58905 (Simulation time: 0 hr 12 min 25 sec) 
Heartbeat CPU 0 instructions: 16000001 cycles: 6158200 heartbeat IPC: 2.66382 cumulative IPC: 2.59816 (Simulation time: 0 hr 14 min 11 sec) 
Heartbeat CPU 0 instructions: 18000002 cycles: 6909472 heartbeat IPC: 2.66215 cumulative IPC: 2.60512 (Simulation time: 0 hr 15 min 56 sec) 
Heartbeat CPU 0 instructions: 20000004 cycles: 7661531 heartbeat IPC: 2.65937 cumulative IPC: 2.61044 (Simulation time: 0 hr 17 min 25 sec) 
Heartbeat CPU 0 instructions: 22000004 cycles: 8412971 heartbeat IPC: 2.66156 cumulative IPC: 2.61501 (Simulation time: 0 hr 19 min 10 sec) 
Heartbeat CPU 0 instructions: 24000000 cycles: 9220961 heartbeat IPC: 2.47527 cumulative IPC: 2.60277 (Simulation time: 0 hr 20 min 57 sec) 
Heartbeat CPU 0 instructions: 26000004 cycles: 9988512 heartbeat IPC: 2.6057 cumulative IPC: 2.60299 (Simulation time: 0 hr 22 min 45 sec) 
Heartbeat CPU 0 instructions: 28000000 cycles: 10740290 heartbeat IPC: 2.66035 cumulative IPC: 2.60701 (Simulation time: 0 hr 24 min 29 sec) 
Heartbeat CPU 0 instructions: 30000001 cycles: 11492138 heartbeat IPC: 2.66011 cumulative IPC: 2.61048 (Simulation time: 0 hr 26 min 12 sec) 
Heartbeat CPU 0 instructions: 32000000 cycles: 12242977 heartbeat IPC: 2.66369 cumulative IPC: 2.61374 (Simulation time: 0 hr 27 min 57 sec) 
Heartbeat CPU 0 instructions: 34000002 cycles: 13033361 heartbeat IPC: 2.53042 cumulative IPC: 2.60869 (Simulation time: 0 hr 29 min 10 sec) 
Heartbeat CPU 0 instructions: 36000000 cycles: 13819022 heartbeat IPC: 2.54562 cumulative IPC: 2.6051 (Simulation time: 0 hr 30 min 48 sec) 
Heartbeat CPU 0 instructions: 38000001 cycles: 14571041 heartbeat IPC: 2.65951 cumulative IPC: 2.60791 (Simulation time: 0 hr 32 min 32 sec) 
Heartbeat CPU 0 instructions: 40000000 cycles: 15322196 heartbeat IPC: 2.66256 cumulative IPC: 2.61059 (Simulation time: 0 hr 34 min 14 sec) 
Heartbeat CPU 0 instructions: 42000002 cycles: 16072976 heartbeat IPC: 2.6639 cumulative IPC: 2.61308 (Simulation time: 0 hr 35 min 54 sec) 
Heartbeat CPU 0 instructions: 44000001 cycles: 16845761 heartbeat IPC: 2.58804 cumulative IPC: 2.61193 (Simulation time: 0 hr 37 min 34 sec) 
Heartbeat CPU 0 instructions: 46000003 cycles: 17649935 heartbeat IPC: 2.48703 cumulative IPC: 2.60624 (Simulation time: 0 hr 39 min 24 sec) 
Heartbeat CPU 0 instructions: 48000001 cycles: 18401331 heartbeat IPC: 2.66171 cumulative IPC: 2.60851 (Simulation time: 0 hr 41 min 2 sec) 
Heartbeat CPU 0 instructions: 50000002 cycles: 19152153 heartbeat IPC: 2.66375 cumulative IPC: 2.61067 (Simulation time: 0 hr 42 min 37 sec) 

Warmup complete CPU 0 instructions: 50000002 cycles: 19152153 (Simulation time: 0 hr 42 min 37 sec) 

Heartbeat CPU 0 instructions: 52000004 cycles: 20520539 heartbeat IPC: 1.46158 cumulative IPC: 1.46158 (Simulation time: 0 hr 44 min 58 sec) 

Region of Interest Statistics
cpu0_DTLB TOTAL     ACCESS:     491493  HIT:     490936  MISS:        557
cpu0_DTLB LOAD      ACCESS:     438396  HIT:     437948  MISS:        448
cpu0_DTLB RFO       ACCESS:      53097  HIT:      52988  MISS:        109
cpu0_DTLB PREFETCH  ACCESS:          0  HIT:          0  MISS:          0
cpu0_DTLB WRITEBACK ACCESS:          0  HIT:          0  MISS:          0
cpu0_ITLB TOTAL     ACCESS:      19008  HIT:      19008  MISS:          0
cpu0_ITLB LOAD      ACCESS:      19008  HIT:      19008  MISS:          0
cpu0_ITLB RFO       ACCESS:          0  HIT:          0  MISS:          0
cpu0_ITLB PREFETCH  ACCESS:          0  HIT:          0  MISS:          0
cpu0_ITLB WRITEBACK ACCESS:          0  HIT:          0  MISS:          0
cpu0_L1I TOTAL     ACCESS:      20365  HIT:      20365  MISS:          0
cpu0_L1I LOAD      ACCESS:      20365  HIT:      20365  MISS:          0
cpu0_L1I RFO       ACCESS:          0  HIT:          0  MISS:          0
cpu0_L1I PREFETCH  ACCESS:          0  HIT:          0  MISS:          0
cpu0_L1I WRITEBACK ACCESS:          0  HIT:          0  MISS:          0
cpu0_STLB TOTAL     ACCESS:        557  HIT:        464  MISS:         93
cpu0_STLB LOAD      ACCESS:        448  HIT:        355  MISS:         93
cpu0_STLB RFO       ACCESS:        109  HIT:        109  MISS:          0
cpu0_STLB PREFETCH  ACCESS:          0  HIT:          0  MISS:          0
cpu0_STLB WRITEBACK ACCESS:          0  HIT:          0  MISS:          0
cpu0_L1D TOTAL     ACCESS:     553427  HIT:     533260  MISS:      20167
cpu0_L1D LOAD      ACCESS:     483468  HIT:     467080  MISS:      16388
cpu0_L1D RFO       ACCESS:      69870  HIT:      66135  MISS:       3735
cpu0_L1D PREFETCH  ACCESS:          0  HIT:          0  MISS:          0
cpu0_L1D WRITEBACK ACCESS:          0  HIT:          0  MISS:          0
cpu0_L2C TOTAL     ACCESS:      25036  HIT:      11565  MISS:      13471
cpu0_L2C LOAD      ACCESS:      16387  HIT:       5016  MISS:      11371
cpu0_L2C RFO       ACCESS:       3735  HIT:       1635  MISS:       2100
cpu0_L2C PREFETCH  ACCESS:          0  HIT:          0  MISS:          0
cpu0_L2C WRITEBACK ACCESS:       4870  HIT:       4870  MISS:          0
LLC TOTAL     ACCESS:      15871  HIT:       9471  MISS:       6400
LLC LOAD      ACCESS:      11371  HIT:       4971  MISS:       6400
LLC RFO       ACCESS:       2100  HIT:       2100  MISS:          0
LLC PREFETCH  ACCESS:          0  HIT:          0  MISS:          0
LLC WRITEBACK ACCESS:       2400  HIT:       2400  MISS:          0
Heartbeat CPU 0 instructions: 54000000 cycles: 21897495 heartbeat IPC: 1.45248 cumulative IPC: 1.45701 (Simulation time: 0 hr 47 min 22 sec) 

Region of Interest Statistics
cpu0_DTLB TOTAL     ACCESS:     985040  HIT:     984103  MISS:        937
cpu0_DTLB LOAD      ACCESS:     879229  HIT:     878461  MISS:        768
cpu0_DTLB RFO       ACCESS:     105811  HIT:     105642  MISS:        169
cpu0_DTLB PREFETCH  ACCESS:          0  HIT:          0  MISS:          0
cpu0_DTLB WRITEBACK ACCESS:          0  HIT:          0  MISS:          0
cpu0_ITLB TOTAL     ACCESS:      38067  HIT:      38067  MISS:          0
cpu0_ITLB LOAD      ACCESS:      38067  HIT:      38067  MISS:          0
cpu0_ITLB RFO       ACCESS:          0  HIT:          0  MISS:          0
cpu0_ITLB PREFETCH  ACCESS:          0  HIT:          0  MISS:          0
cpu0_ITLB WRITEBACK ACCESS:          0  HIT:          0  MISS:          0
cpu0_L1I TOTAL     ACCESS:      39968  HIT:      39968  MISS:          0
cpu0_L1I LOAD      ACCESS:      39968  HIT:      39968  MISS:          0
cpu0_L1I RFO       ACCESS:          0  HIT:          0  MISS:          0
cpu0_L1I PREFETCH  ACCESS:          0  HIT:          0  MISS:          0
cpu0_L1I WRITEBACK ACCESS:          0  HIT:          0  MISS:          0
cpu0_STLB TOTAL     ACCESS:        937  HIT:        745  MISS:        192
cpu0_STLB LOAD      ACCESS:        768  HIT:        576  MISS:        192
cpu0_STLB RFO       ACCESS:        169  HIT:        169  MISS:          0
cpu0_STLB PREFETCH  ACCESS:          0  HIT:          0  MISS:          0
cpu0_STLB WRITEBACK ACCESS:          0  HIT:          0  MISS:          0
cpu0_L1D TOTAL     ACCESS:    1107617  HIT:    1066902  MISS:      40715
cpu0_L1D LOAD      ACCESS:     967359  HIT:     934165  MISS:      33194
cpu0_L1D RFO       ACCESS:     140075  HIT:     132634  MISS:       7441
cpu0_L1D PREFETCH  ACCESS:          0  HIT:          0  MISS:          0
cpu0_L1D WRITEBACK ACCESS:          0  HIT:          0  MISS:          0
cpu0_L2C TOTAL     ACCESS:      50628  HIT:      23587  MISS:      27041
cpu0_L2C LOAD      ACCESS:      33193  HIT:      10278  MISS:      22915
cpu0_L2C RFO       ACCESS:       7441  HIT:       3316  MISS:       4125
cpu0_L2C PREFETCH  ACCESS:          0  HIT:          0  MISS:          0
cpu0_L2C WRITEBACK ACCESS:       9914  HIT:       9913  MISS:          1
LLC TOTAL     ACCESS:      31360  HIT:      18201  MISS:      13159
LLC LOAD      ACCESS:      22915  HIT:       9822  MISS:      13093
LLC RFO       ACCESS:       4125  HIT:       4060  MISS:         65
LLC PREFETCH  ACCESS:          0  HIT:          0  MISS:          0
LLC WRITEBACK ACCESS:       4320  HIT:       4319  MISS:          1
Heartbeat CPU 0 instructions: 56000000 cycles: 23326590 heartbeat IPC: 1.39949 cumulative IPC: 1.43732 (Simulation time: 0 hr 49 min 53 sec) 

Region of Interest Statistics
cpu0_DTLB TOTAL     ACCESS:    1446450  HIT:    1445135  MISS:       1315
cpu0_DTLB LOAD      ACCESS:    1313218  HIT:    1312090  MISS:       1128
cpu0_DTLB RFO       ACCESS:     133232  HIT:     133045  MISS:        187
cpu0_DTLB PREFETCH  ACCESS:          0  HIT:          0  MISS:          0
cpu0_DTLB WRITEBACK ACCESS:          0  HIT:          0  MISS:          0
cpu0_ITLB TOTAL     ACCESS:      53038  HIT:      53038  MISS:          0
cpu0_ITLB LOAD      ACCESS:      53038  HIT:      53038  MISS:          0
cpu0_ITLB RFO       ACCESS:          0  HIT:          0  MISS:          0
cpu0_ITLB PREFETCH  ACCESS:          0  HIT:          0  MISS:          0
cpu0_ITLB WRITEBACK ACCESS:          0  HIT:          0  MISS:          0
cpu0_L1I TOTAL     ACCESS:      42856  HIT:      42856  MISS:          0
cpu0_L1I LOAD      ACCESS:      42856  HIT:      42856  MISS:          0
cpu0_L1I RFO       ACCESS:          0  HIT:          0  MISS:          0
cpu0_L1I PREFETCH  ACCESS:          0  HIT:          0  MISS:          0
cpu0_L1I WRITEBACK ACCESS:          0  HIT:          0  MISS:          0
cpu0_STLB TOTAL     ACCESS:       1315  HIT:        947  MISS:        368
cpu0_STLB LOAD      ACCESS:       1128  HIT:        760  MISS:        368
cpu0_STLB RFO       ACCESS:        187  HIT:        187  MISS:          0
cpu0_STLB PREFETCH  ACCESS:          0  HIT:          0  MISS:          0
cpu0_STLB WRITEBACK ACCESS:          0  HIT:          0  MISS:          0
cpu0_L1D TOTAL     ACCESS:    1571980  HIT:    1509842  MISS:      62138
cpu0_L1D LOAD      ACCESS:    1350324  HIT:    1296466  MISS:      53858
cpu0_L1D RFO       ACCESS:     221299  HIT:     213108  MISS:       8191
cpu0_L1D PREFETCH  ACCESS:          0  HIT:          0  MISS:          0
cpu0_L1D WRITEBACK ACCESS:          0  HIT:          0  MISS:          0
cpu0_L2C TOTAL     ACCESS:      82263  HIT:      34985  MISS:      47278
cpu0_L2C LOAD      ACCESS:      53857  HIT:      11139  MISS:      42718
cpu0_L2C RFO       ACCESS:       8191  HIT:       3637  MISS:       4554
cpu0_L2C PREFETCH  ACCESS:          0  HIT:          0  MISS:          0
cpu0_L2C WRITEBACK ACCESS:      20126  HIT:      20125  MISS:          1
LLC TOTAL     ACCESS:      59565  HIT:      35992  MISS:      23573
LLC LOAD      ACCESS:      42718  HIT:      19211  MISS:      23507
LLC RFO       ACCESS:       4554  HIT:       4489  MISS:         65
LLC PREFETCH  ACCESS:          0  HIT:          0  MISS:          0
LLC WRITEBACK ACCESS:      12288  HIT:      12287  MISS:          1
Heartbeat CPU 0 instructions: 58000001 cycles: 24713127 heartbeat IPC: 1.44244 cumulative IPC: 1.4386 (Simulation time: 0 hr 52 min 8 sec) 

Region of Interest Statistics
cpu0_DTLB TOTAL     ACCESS:    1939057  HIT:    1937202  MISS:       1855
cpu0_DTLB LOAD      ACCESS:    1752712  HIT:    1751143  MISS:       1569
cpu0_DTLB RFO       ACCESS:     186345  HIT:     186059  MISS:        286
cpu0_DTLB PREFETCH  ACCESS:          0  HIT:          0  MISS:          0
cpu0_DTLB WRITEBACK ACCESS:          0  HIT:          0  MISS:          0
cpu0_ITLB TOTAL     ACCESS:      72870  HIT:      72870  MISS:          0
cpu0_ITLB LOAD      ACCESS:      72870  HIT:      72870  MISS:          0
cpu0_ITLB RFO       ACCESS:          0  HIT:          0  MISS:          0
cpu0_ITLB PREFETCH  ACCESS:          0  HIT:          0  MISS:          0
cpu0_ITLB WRITEBACK ACCESS:          0  HIT:          0  MISS:          0
cpu0_L1I TOTAL     ACCESS:      63199  HIT:      63199  MISS:          0
cpu0_L1I LOAD      ACCESS:      63199  HIT:      63199  MISS:          0
cpu0_L1I RFO       ACCESS:          0  HIT:          0  MISS:          0
cpu0_L1I PREFETCH  ACCESS:          0  HIT:          0  MISS:          0
cpu0_L1I WRITEBACK ACCESS:          0  HIT:          0  MISS:          0
cpu0_STLB TOTAL     ACCESS:       1855  HIT:       1391  MISS:        464
cpu0_STLB LOAD      ACCESS:       1569  HIT:       1105  MISS:        464
cpu0_STLB RFO       ACCESS:        286  HIT:        286  MISS:          0
cpu0_STLB PREFETCH  ACCESS:          0  HIT:          0  MISS:          0
cpu0_STLB WRITEBACK ACCESS:          0  HIT:          0  MISS:          0
cpu0_L1D TOTAL     ACCESS:    2127977  HIT:    2045376  MISS:      82601
cpu0_L1D LOAD      ACCESS:    1836047  HIT:    1765496  MISS:      70551
cpu0_L1D RFO       ACCESS:     291482  HIT:     279567  MISS:      11915
cpu0_L1D PREFETCH  ACCESS:          0  HIT:          0  MISS:          0
cpu0_L1D WRITEBACK ACCESS:          0  HIT:          0  MISS:          0
cpu0_L2C TOTAL     ACCESS:     107760  HIT:      47186  MISS:      60574
cpu0_L2C LOAD      ACCESS:      70550  HIT:      16470  MISS:      54080
cpu0_L2C RFO       ACCESS:      11915  HIT:       5427  MISS:       6488
cpu0_L2C PREFETCH  ACCESS:          0  HIT:          0  MISS:          0
cpu0_L2C WRITEBACK ACCESS:      25160  HIT:      25159  MISS:          1
LLC TOTAL     ACCESS:      76633  HIT:      46624  MISS:      30009
LLC LOAD      ACCESS:      54080  HIT:      24137  MISS:      29943
LLC RFO       ACCESS:       6488  HIT:       6423  MISS:         65
LLC PREFETCH  ACCESS:          0  HIT:          0  MISS:          0
LLC WRITEBACK ACCESS:      16060  HIT:      16059  MISS:          1
Heartbeat CPU 0 instructions: 60000004 cycles: 26104750 heartbeat IPC: 1.43717 cumulative IPC: 1.43831 (Simulation time: 0 hr 54 min 38 sec) 

Region of Interest Statistics
cpu0_DTLB TOTAL     ACCESS:    2430384  HIT:    2428060  MISS:       2324
cpu0_DTLB LOAD      ACCESS:    2191067  HIT:    2189084  MISS:       1983
cpu0_DTLB RFO       ACCESS:     239317  HIT:     238976  MISS:        341
cpu0_DTLB PREFETCH  ACCESS:          0  HIT:          0  MISS:          0
cpu0_DTLB WRITEBACK ACCESS:          0  HIT:          0  MISS:          0
cpu0_ITLB TOTAL     ACCESS:      92825  HIT:      92825  MISS:          0
cpu0_ITLB LOAD      ACCESS:      92825  HIT:      92825  MISS:          0
cpu0_ITLB RFO       ACCESS:          0  HIT:          0  MISS:          0
cpu0_ITLB PREFETCH  ACCESS:          0  HIT:          0  MISS:          0
cpu0_ITLB WRITEBACK ACCESS:          0  HIT:          0  MISS:          0
cpu0_L1I TOTAL     ACCESS:      83399  HIT:      83399  MISS:          0
cpu0_L1I LOAD      ACCESS:      83399  HIT:      83399  MISS:          0
cpu0_L1I RFO       ACCESS:          0  HIT:          0  MISS:          0
cpu0_L1I PREFETCH  ACCESS:          0  HIT:          0  MISS:          0
cpu0_L1I WRITEBACK ACCESS:          0  HIT:          0  MISS:          0
cpu0_STLB TOTAL     ACCESS:       2324  HIT:       1762  MISS:        562
cpu0_STLB LOAD      ACCESS:       1983  HIT:       1421  MISS:        562
cpu0_STLB RFO       ACCESS:        341  HIT:        341  MISS:          0
cpu0_STLB PREFETCH  ACCESS:          0  HIT:          0  MISS:          0
cpu0_STLB WRITEBACK ACCESS:          0  HIT:          0  MISS:          0
cpu0_L1D TOTAL     ACCESS:    2682308  HIT:    2579350  MISS:     102958
cpu0_L1D LOAD      ACCESS:    2320279  HIT:    2233099  MISS:      87180
cpu0_L1D RFO       ACCESS:     361494  HIT:     345887  MISS:      15607
cpu0_L1D PREFETCH  ACCESS:          0  HIT:          0  MISS:          0
cpu0_L1D WRITEBACK ACCESS:          0  HIT:          0  MISS:          0
cpu0_L2C TOTAL     ACCESS:     133184  HIT:      59055  MISS:      74129
cpu0_L2C LOAD      ACCESS:      87174  HIT:      21640  MISS:      65534
cpu0_L2C RFO       ACCESS:      15607  HIT:       7019  MISS:       8588
cpu0_L2C PREFETCH  ACCESS:          0  HIT:          0  MISS:          0
cpu0_L2C WRITEBACK ACCESS:      30232  HIT:      30231  MISS:          1
LLC TOTAL     ACCESS:      92424  HIT:      55711  MISS:      36713
LLC LOAD      ACCESS:      65534  HIT:      28888  MISS:      36646
LLC RFO       ACCESS:       8588  HIT:       8523  MISS:         65
LLC PREFETCH  ACCESS:          0  HIT:          0  MISS:          0
LLC WRITEBACK ACCESS:      18296  HIT:      18295  MISS:          1
Heartbeat CPU 0 instructions: 62000003 cycles: 27476230 heartbeat IPC: 1.45828 cumulative IPC: 1.4416 (Simulation time: 0 hr 56 min 57 sec) 

Region of Interest Statistics
cpu0_DTLB TOTAL     ACCESS:    2923015  HIT:    2920148  MISS:       2867
cpu0_DTLB LOAD      ACCESS:    2631021  HIT:    2628599  MISS:       2422
cpu0_DTLB RFO       ACCESS:     291994  HIT:     291549  MISS:        445
cpu0_DTLB PREFETCH  ACCESS:          0  HIT:          0  MISS:          0
cpu0_DTLB WRITEBACK ACCESS:          0  HIT:          0  MISS:          0
cpu0_ITLB TOTAL     ACCESS:     112193  HIT:     112193  MISS:          0
cpu0_ITLB LOAD      ACCESS:     112193  HIT:     112193  MISS:          0
cpu0_ITLB RFO       ACCESS:          0  HIT:          0  MISS:          0
cpu0_ITLB PREFETCH  ACCESS:          0  HIT:          0  MISS:          0
cpu0_ITLB WRITEBACK ACCESS:          0  HIT:          0  MISS:          0
cpu0_L1I TOTAL     ACCESS:     103708  HIT:     103708  MISS:          0
cpu0_L1I LOAD      ACCESS:     103708  HIT:     103708  MISS:          0
cpu0_L1I RFO       ACCESS:          0  HIT:          0  MISS:          0
cpu0_L1I PREFETCH  ACCESS:          0  HIT:          0  MISS:          0
cpu0_L1I WRITEBACK ACCESS:          0  HIT:          0  MISS:          0
cpu0_STLB TOTAL     ACCESS:       2867  HIT:       2207  MISS:        660
cpu0_STLB LOAD      ACCESS:       2422  HIT:       1762  MISS:        660
cpu0_STLB RFO       ACCESS:        445  HIT:        445  MISS:          0
cpu0_STLB PREFETCH  ACCESS:          0  HIT:          0  MISS:          0
cpu0_STLB WRITEBACK ACCESS:          0  HIT:          0  MISS:          0
cpu0_L1D TOTAL     ACCESS:    3237017  HIT:    3114098  MISS:     122919
cpu0_L1D LOAD      ACCESS:    2804980  HIT:    2701595  MISS:     103385
cpu0_L1D RFO       ACCESS:     431410  HIT:     412091  MISS:      19319
cpu0_L1D PREFETCH  ACCESS:          0  HIT:          0  MISS:          0
cpu0_L1D WRITEBACK ACCESS:          0  HIT:          0  MISS:          0
cpu0_L2C TOTAL     ACCESS:     157970  HIT:      70493  MISS:      87477
cpu0_L2C LOAD      ACCESS:     103378  HIT:      26596  MISS:      76782
cpu0_L2C RFO       ACCESS:      19319  HIT:       8631  MISS:      10688
cpu0_L2C PREFETCH  ACCESS:          0  HIT:          0  MISS:          0
cpu0_L2C WRITEBACK ACCESS:      35058  HIT:      35057  MISS:          1
LLC TOTAL     ACCESS:     107913  HIT:      64344  MISS:      43569
LLC LOAD      ACCESS:      76782  HIT:      33280  MISS:      43502
LLC RFO       ACCESS:      10688  HIT:      10623  MISS:         65
LLC PREFETCH  ACCESS:          0  HIT:          0  MISS:          0
LLC WRITEBACK ACCESS:      20437  HIT:      20436  MISS:          1
Heartbeat CPU 0 instructions: 64000002 cycles: 28871964 heartbeat IPC: 1.43294 cumulative IPC: 1.44036 (Simulation time: 0 hr 59 min 22 sec) 

Region of Interest Statistics
cpu0_DTLB TOTAL     ACCESS:    3413864  HIT:    3410556  MISS:       3308
cpu0_DTLB LOAD      ACCESS:    3068998  HIT:    3066199  MISS:       2799
cpu0_DTLB RFO       ACCESS:     344866  HIT:     344357  MISS:        509
cpu0_DTLB PREFETCH  ACCESS:          0  HIT:          0  MISS:          0
cpu0_DTLB WRITEBACK ACCESS:          0  HIT:          0  MISS:          0
cpu0_ITLB TOTAL     ACCESS:     131215  HIT:     131215  MISS:          0
cpu0_ITLB LOAD      ACCESS:     131215  HIT:     131215  MISS:          0
cpu0_ITLB RFO       ACCESS:          0  HIT:          0  MISS:          0
cpu0_ITLB PREFETCH  ACCESS:          0  HIT:          0  MISS:          0
cpu0_ITLB WRITEBACK ACCESS:          0  HIT:          0  MISS:          0
cpu0_L1I TOTAL     ACCESS:     123259  HIT:     123259  MISS:          0
cpu0_L1I LOAD      ACCESS:     123259  HIT:     123259  MISS:          0
cpu0_L1I RFO       ACCESS:          0  HIT:          0  MISS:          0
cpu0_L1I PREFETCH  ACCESS:          0  HIT:          0  MISS:          0
cpu0_L1I WRITEBACK ACCESS:          0  HIT:          0  MISS:          0
cpu0_STLB TOTAL     ACCESS:       3308  HIT:       2553  MISS:        755
cpu0_STLB LOAD      ACCESS:       2799  HIT:       2044  MISS:        755
cpu0_STLB RFO       ACCESS:        509  HIT:        509  MISS:          0
cpu0_STLB PREFETCH  ACCESS:          0  HIT:          0  MISS:          0
cpu0_STLB WRITEBACK ACCESS:          0  HIT:          0  MISS:          0
cpu0_L1D TOTAL     ACCESS:    3790872  HIT:    3647465  MISS:     143407
cpu0_L1D LOAD      ACCESS:    3288922  HIT:    3168919  MISS:     120003
cpu0_L1D RFO       ACCESS:     501240  HIT:     478087  MISS:      23153
cpu0_L1D PREFETCH  ACCESS:          0  HIT:          0  MISS:          0
cpu0_L1D WRITEBACK ACCESS:          0  HIT:          0  MISS:          0
cpu0_L2C TOTAL     ACCESS:     183521  HIT:      82535  MISS:     100986
cpu0_L2C LOAD      ACCESS:     119996  HIT:      31806  MISS:      88190
cpu0_L2C RFO       ACCESS:      23153  HIT:      10365  MISS:      12788
cpu0_L2C PREFETCH  ACCESS:          0  HIT:          0  MISS:          0
cpu0_L2C WRITEBACK ACCESS:      40121  HIT:      40119  MISS:          2
LLC TOTAL     ACCESS:     123565  HIT:      73016  MISS:      50549
LLC LOAD      ACCESS:      88190  HIT:      37797  MISS:      50393
LLC RFO       ACCESS:      12788  HIT:      12634  MISS:        154
LLC PREFETCH  ACCESS:          0  HIT:          0  MISS:          0
LLC WRITEBACK ACCESS:      22581  HIT:      22580  MISS:          1
Heartbeat CPU 0 instructions: 66000002 cycles: 30322818 heartbeat IPC: 1.3785 cumulative IPC: 1.43232 (Simulation time: 1 hr 1 min 56 sec) 

Region of Interest Statistics
cpu0_DTLB TOTAL     ACCESS:    3878281  HIT:    3874616  MISS:       3665
cpu0_DTLB LOAD      ACCESS:    3504081  HIT:    3500940  MISS:       3141
cpu0_DTLB RFO       ACCESS:     374200  HIT:     373676  MISS:        524
cpu0_DTLB PREFETCH  ACCESS:          0  HIT:          0  MISS:          0
cpu0_DTLB WRITEBACK ACCESS:          0  HIT:          0  MISS:          0
cpu0_ITLB TOTAL     ACCESS:     146263  HIT:     146263  MISS:          0
cpu0_ITLB LOAD      ACCESS:     146263  HIT:     146263  MISS:          0
cpu0_ITLB RFO       ACCESS:          0  HIT:          0  MISS:          0
cpu0_ITLB PREFETCH  ACCESS:          0  HIT:          0  MISS:          0
cpu0_ITLB WRITEBACK ACCESS:          0  HIT:          0  MISS:          0
cpu0_L1I TOTAL     ACCESS:     127578  HIT:     127578  MISS:          0
cpu0_L1I LOAD      ACCESS:     127578  HIT:     127578  MISS:          0
cpu0_L1I RFO       ACCESS:          0  HIT:          0  MISS:          0
cpu0_L1I PREFETCH  ACCESS:          0  HIT:          0  MISS:          0
cpu0_L1I WRITEBACK ACCESS:          0  HIT:          0  MISS:          0
cpu0_STLB TOTAL     ACCESS:       3665  HIT:       2753  MISS:        912
cpu0_STLB LOAD      ACCESS:       3141  HIT:       2229  MISS:        912
cpu0_STLB RFO       ACCESS:        524  HIT:        524  MISS:          0
cpu0_STLB PREFETCH  ACCESS:          0  HIT:          0  MISS:          0
cpu0_STLB WRITEBACK ACCESS:          0  HIT:          0  MISS:          0
cpu0_L1D TOTAL     ACCESS:    4263017  HIT:    4098372  MISS:     164645
cpu0_L1D LOAD      ACCESS:    3680330  HIT:    3539799  MISS:     140531
cpu0_L1D RFO       ACCESS:     581822  HIT:     557966  MISS:      23856
cpu0_L1D PREFETCH  ACCESS:          0  HIT:          0  MISS:          0
cpu0_L1D WRITEBACK ACCESS:          0  HIT:          0  MISS:          0
cpu0_L2C TOTAL     ACCESS:     214358  HIT:      93864  MISS:     120494
cpu0_L2C LOAD      ACCESS:     140524  HIT:      33202  MISS:     107322
cpu0_L2C RFO       ACCESS:      23856  HIT:      10693  MISS:      13163
cpu0_L2C PREFETCH  ACCESS:          0  HIT:          0  MISS:          0
cpu0_L2C WRITEBACK ACCESS:      49720  HIT:      49718  MISS:          2
LLC TOTAL     ACCESS:     149427  HIT:      88730  MISS:      60697
LLC LOAD      ACCESS:     107322  HIT:      46815  MISS:      60507
LLC RFO       ACCESS:      13163  HIT:      13009  MISS:        154
LLC PREFETCH  ACCESS:          0  HIT:          0  MISS:          0
LLC WRITEBACK ACCESS:      28935  HIT:      28900  MISS:         35
Heartbeat CPU 0 instructions: 68000000 cycles: 31762283 heartbeat IPC: 1.3894 cumulative IPC: 1.42742 (Simulation time: 1 hr 4 min 26 sec) 

Region of Interest Statistics
cpu0_DTLB TOTAL     ACCESS:    4367375  HIT:    4363118  MISS:       4257
cpu0_DTLB LOAD      ACCESS:    3943009  HIT:    3939390  MISS:       3619
cpu0_DTLB RFO       ACCESS:     424366  HIT:     423728  MISS:        638
cpu0_DTLB PREFETCH  ACCESS:          0  HIT:          0  MISS:          0
cpu0_DTLB WRITEBACK ACCESS:          0  HIT:          0  MISS:          0
cpu0_ITLB TOTAL     ACCESS:     165218  HIT:     165218  MISS:          0
cpu0_ITLB LOAD      ACCESS:     165218  HIT:     165218  MISS:          0
cpu0_ITLB RFO       ACCESS:          0  HIT:          0  MISS:          0
cpu0_ITLB PREFETCH  ACCESS:          0  HIT:          0  MISS:          0
cpu0_ITLB WRITEBACK ACCESS:          0  HIT:          0  MISS:          0
cpu0_L1I TOTAL     ACCESS:     146338  HIT:     146338  MISS:          0
cpu0_L1I LOAD      ACCESS:     146338  HIT:     146338  MISS:          0
cpu0_L1I RFO       ACCESS:          0  HIT:          0  MISS:          0
cpu0_L1I PREFETCH  ACCESS:          0  HIT:          0  MISS:          0
cpu0_L1I WRITEBACK ACCESS:          0  HIT:          0  MISS:          0
cpu0_STLB TOTAL     ACCESS:       4257  HIT:       3222  MISS:       1035
cpu0_STLB LOAD      ACCESS:       3619  HIT:       2584  MISS:       1035
cpu0_STLB RFO       ACCESS:        638  HIT:        638  MISS:          0
cpu0_STLB PREFETCH  ACCESS:          0  HIT:          0  MISS:          0
cpu0_STLB WRITEBACK ACCESS:          0  HIT:          0  MISS:          0
cpu0_L1D TOTAL     ACCESS:    4809676  HIT:    4624243  MISS:     185433
cpu0_L1D LOAD      ACCESS:    4155525  HIT:    3997932  MISS:     157593
cpu0_L1D RFO       ACCESS:     653170  HIT:     625636  MISS:      27534
cpu0_L1D PREFETCH  ACCESS:          0  HIT:          0  MISS:          0
cpu0_L1D WRITEBACK ACCESS:          0  HIT:          0  MISS:          0
cpu0_L2C TOTAL     ACCESS:     240813  HIT:     106150  MISS:     134663
cpu0_L2C LOAD      ACCESS:     157586  HIT:      37964  MISS:     119622
cpu0_L2C RFO       ACCESS:      27534  HIT:      12506  MISS:      15028
cpu0_L2C PREFETCH  ACCESS:          0  HIT:          0  MISS:          0
cpu0_L2C WRITEBACK ACCESS:      55387  HIT:      55385  MISS:          2
LLC TOTAL     ACCESS:     169178  HIT:     100759  MISS:      68419
LLC LOAD      ACCESS:     119622  HIT:      51487  MISS:      68135
LLC RFO       ACCESS:      15028  HIT:      14780  MISS:        248
LLC PREFETCH  ACCESS:          0  HIT:          0  MISS:          0
LLC WRITEBACK ACCESS:      34517  HIT:      34482  MISS:         35
Heartbeat CPU 0 instructions: 70000001 cycles: 33183717 heartbeat IPC: 1.40703 cumulative IPC: 1.42536 (Simulation time: 1 hr 6 min 57 sec) 

Region of Interest Statistics
cpu0_DTLB TOTAL     ACCESS:    4858672  HIT:    4854018  MISS:       4654
cpu0_DTLB LOAD      ACCESS:    4381502  HIT:    4377556  MISS:       3946
cpu0_DTLB RFO       ACCESS:     477170  HIT:     476462  MISS:        708
cpu0_DTLB PREFETCH  ACCESS:          0  HIT:          0  MISS:          0
cpu0_DTLB WRITEBACK ACCESS:          0  HIT:          0  MISS:          0
cpu0_ITLB TOTAL     ACCESS:     184165  HIT:     184165  MISS:          0
cpu0_ITLB LOAD      ACCESS:     184165  HIT:     184165  MISS:          0
cpu0_ITLB RFO       ACCESS:          0  HIT:          0  MISS:          0
cpu0_ITLB PREFETCH  ACCESS:          0  HIT:          0  MISS:          0
cpu0_ITLB WRITEBACK ACCESS:          0  HIT:          0  MISS:          0
cpu0_L1I TOTAL     ACCESS:     166777  HIT:     166777  MISS:          0
cpu0_L1I LOAD      ACCESS:     166777  HIT:     166777  MISS:          0
cpu0_L1I RFO       ACCESS:          0  HIT:          0  MISS:          0
cpu0_L1I PREFETCH  ACCESS:          0  HIT:          0  MISS:          0
cpu0_L1I WRITEBACK ACCESS:          0  HIT:          0  MISS:          0
cpu0_STLB TOTAL     ACCESS:       4654  HIT:       3526  MISS:       1128
cpu0_STLB LOAD      ACCESS:       3946  HIT:       2818  MISS:       1128
cpu0_STLB RFO       ACCESS:        708  HIT:        708  MISS:          0
cpu0_STLB PREFETCH  ACCESS:          0  HIT:          0  MISS:          0
cpu0_STLB WRITEBACK ACCESS:          0  HIT:          0  MISS:          0
cpu0_L1D TOTAL     ACCESS:    5363707  HIT:    5157908  MISS:     205799
cpu0_L1D LOAD      ACCESS:    4639536  HIT:    4465318  MISS:     174218
cpu0_L1D RFO       ACCESS:     723107  HIT:     691867  MISS:      31240
cpu0_L1D PREFETCH  ACCESS:          0  HIT:          0  MISS:          0
cpu0_L1D WRITEBACK ACCESS:          0  HIT:          0  MISS:          0
cpu0_L2C TOTAL     ACCESS:     266258  HIT:     118222  MISS:     148036
cpu0_L2C LOAD      ACCESS:     174211  HIT:      43318  MISS:     130893
cpu0_L2C RFO       ACCESS:      31240  HIT:      14112  MISS:      17128
cpu0_L2C PREFETCH  ACCESS:          0  HIT:          0  MISS:          0
cpu0_L2C WRITEBACK ACCESS:      60466  HIT:      60462  MISS:          4
LLC TOTAL     ACCESS:     184647  HIT:     109176  MISS:      75471
LLC LOAD      ACCESS:     130893  HIT:      55706  MISS:      75187
LLC RFO       ACCESS:      17128  HIT:      16880  MISS:        248
LLC PREFETCH  ACCESS:          0  HIT:          0  MISS:          0
LLC WRITEBACK ACCESS:      36615  HIT:      36580  MISS:         35
Heartbeat CPU 0 instructions: 72000000 cycles: 34571345 heartbeat IPC: 1.44131 cumulative IPC: 1.42679 (Simulation time: 1 hr 9 min 13 sec) 

Region of Interest Statistics
cpu0_DTLB TOTAL     ACCESS:    5350034  HIT:    5344914  MISS:       5120
cpu0_DTLB LOAD      ACCESS:    4819768  HIT:    4815442  MISS:       4326
cpu0_DTLB RFO       ACCESS:     530266  HIT:     529472  MISS:        794
cpu0_DTLB PREFETCH  ACCESS:          0  HIT:          0  MISS:          0
cpu0_DTLB WRITEBACK ACCESS:          0  HIT:          0  MISS:          0
cpu0_ITLB TOTAL     ACCESS:     203321  HIT:     203321  MISS:          0
cpu0_ITLB LOAD      ACCESS:     203321  HIT:     203321  MISS:          0
cpu0_ITLB RFO       ACCESS:          0  HIT:          0  MISS:          0
cpu0_ITLB PREFETCH  ACCESS:          0  HIT:          0  MISS:          0
cpu0_ITLB WRITEBACK ACCESS:          0  HIT:          0  MISS:          0
cpu0_L1I TOTAL     ACCESS:     186652  HIT:     186652  MISS:          0
cpu0_L1I LOAD      ACCESS:     186652  HIT:     186652  MISS:          0
cpu0_L1I RFO       ACCESS:          0  HIT:          0  MISS:          0
cpu0_L1I PREFETCH  ACCESS:          0  HIT:          0  MISS:          0
cpu0_L1I WRITEBACK ACCESS:          0  HIT:          0  MISS:          0
cpu0_STLB TOTAL     ACCESS:       5120  HIT:       3900  MISS:       1220
cpu0_STLB LOAD      ACCESS:       4326  HIT:       3106  MISS:       1220
cpu0_STLB RFO       ACCESS:        794  HIT:        794  MISS:          0
cpu0_STLB PREFETCH  ACCESS:          0  HIT:          0  MISS:          0
cpu0_STLB WRITEBACK ACCESS:          0  HIT:          0  MISS:          0
cpu0_L1D TOTAL     ACCESS:    5917480  HIT:    5691660  MISS:     225820
cpu0_L1D LOAD      ACCESS:    5123175  HIT:    4932619  MISS:     190556
cpu0_L1D RFO       ACCESS:     793154  HIT:     758270  MISS:      34884
cpu0_L1D PREFETCH  ACCESS:          0  HIT:          0  MISS:          0
cpu0_L1D WRITEBACK ACCESS:          0  HIT:          0  MISS:          0
cpu0_L2C TOTAL     ACCESS:     291093  HIT:     129560  MISS:     161533
cpu0_L2C LOAD      ACCESS:     190549  HIT:      48260  MISS:     142289
cpu0_L2C RFO       ACCESS:      34884  HIT:      15656  MISS:      19228
cpu0_L2C PREFETCH  ACCESS:          0  HIT:          0  MISS:          0
cpu0_L2C WRITEBACK ACCESS:      65280  HIT:      65275  MISS:          5
LLC TOTAL     ACCESS:     200466  HIT:     118166  MISS:      82300
LLC LOAD      ACCESS:     142289  HIT:      60273  MISS:      82016
LLC RFO       ACCESS:      19228  HIT:      18980  MISS:        248
LLC PREFETCH  ACCESS:          0  HIT:          0  MISS:          0
LLC WRITEBACK ACCESS:      38938  HIT:      38903  MISS:         35
Heartbeat CPU 0 instructions: 74000000 cycles: 35954997 heartbeat IPC: 1.44545 cumulative IPC: 1.42833 (Simulation time: 1 hr 11 min 38 sec) 

Region of Interest Statistics
cpu0_DTLB TOTAL     ACCESS:    5841726  HIT:    5836142  MISS:       5584
cpu0_DTLB LOAD      ACCESS:    5258556  HIT:    5253841  MISS:       4715
cpu0_DTLB RFO       ACCESS:     583170  HIT:     582301  MISS:        869
cpu0_DTLB PREFETCH  ACCESS:          0  HIT:          0  MISS:          0
cpu0_DTLB WRITEBACK ACCESS:          0  HIT:          0  MISS:          0
cpu0_ITLB TOTAL     ACCESS:     222284  HIT:     222284  MISS:          0
cpu0_ITLB LOAD      ACCESS:     222284  HIT:     222284  MISS:          0
cpu0_ITLB RFO       ACCESS:          0  HIT:          0  MISS:          0
cpu0_ITLB PREFETCH  ACCESS:          0  HIT:          0  MISS:          0
cpu0_ITLB WRITEBACK ACCESS:          0  HIT:          0  MISS:          0
cpu0_L1I TOTAL     ACCESS:     206509  HIT:     206509  MISS:          0
cpu0_L1I LOAD      ACCESS:     206509  HIT:     206509  MISS:          0
cpu0_L1I RFO       ACCESS:          0  HIT:          0  MISS:          0
cpu0_L1I PREFETCH  ACCESS:          0  HIT:          0  MISS:          0
cpu0_L1I WRITEBACK ACCESS:          0  HIT:          0  MISS:          0
cpu0_STLB TOTAL     ACCESS:       5584  HIT:       4264  MISS:       1320
cpu0_STLB LOAD      ACCESS:       4715  HIT:       3395  MISS:       1320
cpu0_STLB RFO       ACCESS:        869  HIT:        869  MISS:          0
cpu0_STLB PREFETCH  ACCESS:          0  HIT:          0  MISS:          0
cpu0_STLB WRITEBACK ACCESS:          0  HIT:          0  MISS:          0
cpu0_L1D TOTAL     ACCESS:    6472049  HIT:    6225859  MISS:     246190
cpu0_L1D LOAD      ACCESS:    5607966  HIT:    5400864  MISS:     207102
cpu0_L1D RFO       ACCESS:     862839  HIT:     824172  MISS:      38667
cpu0_L1D PREFETCH  ACCESS:          0  HIT:          0  MISS:          0
cpu0_L1D WRITEBACK ACCESS:          0  HIT:          0  MISS:          0
cpu0_L2C TOTAL     ACCESS:     316421  HIT:     141449  MISS:     174972
cpu0_L2C LOAD      ACCESS:     207094  HIT:      53419  MISS:     153675
cpu0_L2C RFO       ACCESS:      38667  HIT:      17386  MISS:      21281
cpu0_L2C PREFETCH  ACCESS:          0  HIT:          0  MISS:          0
cpu0_L2C WRITEBACK ACCESS:      70239  HIT:      70234  MISS:          5
LLC TOTAL     ACCESS:     215766  HIT:     126624  MISS:      89142
LLC LOAD      ACCESS:     153675  HIT:      64877  MISS:      88798
LLC RFO       ACCESS:      21281  HIT:      20973  MISS:        308
LLC PREFETCH  ACCESS:          0  HIT:          0  MISS:          0
LLC WRITEBACK ACCESS:      40799  HIT:      40764  MISS:         35
Heartbeat CPU 0 instructions: 76000003 cycles: 37390297 heartbeat IPC: 1.39344 cumulative IPC: 1.42558 (Simulation time: 1 hr 14 min 9 sec) 

Region of Interest Statistics
cpu0_DTLB TOTAL     ACCESS:    6314410  HIT:    6308497  MISS:       5913
cpu0_DTLB LOAD      ACCESS:    5695249  HIT:    5690225  MISS:       5024
cpu0_DTLB RFO       ACCESS:     619161  HIT:     618272  MISS:        889
cpu0_DTLB PREFETCH  ACCESS:          0  HIT:          0  MISS:          0
cpu0_DTLB WRITEBACK ACCESS:          0  HIT:          0  MISS:          0
cpu0_ITLB TOTAL     ACCESS:     238740  HIT:     238740  MISS:          0
cpu0_ITLB LOAD      ACCESS:     238740  HIT:     238740  MISS:          0
cpu0_ITLB RFO       ACCESS:          0  HIT:          0  MISS:          0
cpu0_ITLB PREFETCH  ACCESS:          0  HIT:          0  MISS:          0
cpu0_ITLB WRITEBACK ACCESS:          0  HIT:          0  MISS:          0
cpu0_L1I TOTAL     ACCESS:     215233  HIT:     215233  MISS:          0
cpu0_L1I LOAD      ACCESS:     215233  HIT:     215233  MISS:          0
cpu0_L1I RFO       ACCESS:          0  HIT:          0  MISS:          0
cpu0_L1I PREFETCH  ACCESS:          0  HIT:          0  MISS:          0
cpu0_L1I WRITEBACK ACCESS:          0  HIT:          0  MISS:          0
cpu0_STLB TOTAL     ACCESS:       5913  HIT:       4450  MISS:       1463
cpu0_STLB LOAD      ACCESS:       5024  HIT:       3561  MISS:       1463
cpu0_STLB RFO       ACCESS:        889  HIT:        889  MISS:          0
cpu0_STLB PREFETCH  ACCESS:          0  HIT:          0  MISS:          0
cpu0_STLB WRITEBACK ACCESS:          0  HIT:          0  MISS:          0
cpu0_L1D TOTAL     ACCESS:    6966750  HIT:    6699470  MISS:     267280
cpu0_L1D LOAD      ACCESS:    6025164  HIT:    5798566  MISS:     226598
cpu0_L1D RFO       ACCESS:     940204  HIT:     899960  MISS:      40244
cpu0_L1D PREFETCH  ACCESS:          0  HIT:          0  MISS:          0
cpu0_L1D WRITEBACK ACCESS:          0  HIT:          0  MISS:          0
cpu0_L2C TOTAL     ACCESS:     345856  HIT:     153174  MISS:     192682
cpu0_L2C LOAD      ACCESS:     226590  HIT:      56078  MISS:     170512
cpu0_L2C RFO       ACCESS:      40244  HIT:      18091  MISS:      22153
cpu0_L2C PREFETCH  ACCESS:          0  HIT:          0  MISS:          0
cpu0_L2C WRITEBACK ACCESS:      78584  HIT:      78579  MISS:          5
LLC TOTAL     ACCESS:     237781  HIT:     139294  MISS:      98487
LLC LOAD      ACCESS:     170512  HIT:      72575  MISS:      97937
LLC RFO       ACCESS:      22153  HIT:      21752  MISS:        401
LLC PREFETCH  ACCESS:          0  HIT:          0  MISS:          0
LLC WRITEBACK ACCESS:      45104  HIT:      44956  MISS:        148
Heartbeat CPU 0 instructions: 78000003 cycles: 38823879 heartbeat IPC: 1.39511 cumulative IPC: 1.42336 (Simulation time: 1 hr 16 min 39 sec) 

Region of Interest Statistics
cpu0_DTLB TOTAL     ACCESS:    6795674  HIT:    6789250  MISS:       6424
cpu0_DTLB LOAD      ACCESS:    6133011  HIT:    6127556  MISS:       5455
cpu0_DTLB RFO       ACCESS:     662663  HIT:     661694  MISS:        969
cpu0_DTLB PREFETCH  ACCESS:          0  HIT:          0  MISS:          0
cpu0_DTLB WRITEBACK ACCESS:          0  HIT:          0  MISS:          0
cpu0_ITLB TOTAL     ACCESS:     257068  HIT:     257068  MISS:          0
cpu0_ITLB LOAD      ACCESS:     257068  HIT:     257068  MISS:          0
cpu0_ITLB RFO       ACCESS:          0  HIT:          0  MISS:          0
cpu0_ITLB PREFETCH  ACCESS:          0  HIT:          0  MISS:          0
cpu0_ITLB WRITEBACK ACCESS:          0  HIT:          0  MISS:          0
cpu0_L1I TOTAL     ACCESS:     229655  HIT:     229655  MISS:          0
cpu0_L1I LOAD      ACCESS:     229655  HIT:     229655  MISS:          0
cpu0_L1I RFO       ACCESS:          0  HIT:          0  MISS:          0
cpu0_L1I PREFETCH  ACCESS:          0  HIT:          0  MISS:          0
cpu0_L1I WRITEBACK ACCESS:          0  HIT:          0  MISS:          0
cpu0_STLB TOTAL     ACCESS:       6424  HIT:       4826  MISS:       1598
cpu0_STLB LOAD      ACCESS:       5455  HIT:       3857  MISS:       1598
cpu0_STLB RFO       ACCESS:        969  HIT:        969  MISS:          0
cpu0_STLB PREFETCH  ACCESS:          0  HIT:          0  MISS:          0
cpu0_STLB WRITEBACK ACCESS:          0  HIT:          0  MISS:          0
cpu0_L1D TOTAL     ACCESS:    7488870  HIT:    7200730  MISS:     288140
cpu0_L1D LOAD      ACCESS:    6472715  HIT:    6228089  MISS:     244626
cpu0_L1D RFO       ACCESS:    1014643  HIT:     971601  MISS:      43042
cpu0_L1D PREFETCH  ACCESS:          0  HIT:          0  MISS:          0
cpu0_L1D WRITEBACK ACCESS:          0  HIT:          0  MISS:          0
cpu0_L2C TOTAL     ACCESS:     373687  HIT:     165108  MISS:     208579
cpu0_L2C LOAD      ACCESS:     244618  HIT:      59641  MISS:     184977
cpu0_L2C RFO       ACCESS:      43042  HIT:      19461  MISS:      23581
cpu0_L2C PREFETCH  ACCESS:          0  HIT:          0  MISS:          0
cpu0_L2C WRITEBACK ACCESS:      85555  HIT:      85550  MISS:          5
LLC TOTAL     ACCESS:     261482  HIT:     154473  MISS:     107009
LLC LOAD      ACCESS:     184977  HIT:      78518  MISS:     106459
LLC RFO       ACCESS:      23581  HIT:      23180  MISS:        401
LLC PREFETCH  ACCESS:          0  HIT:          0  MISS:          0
LLC WRITEBACK ACCESS:      52908  HIT:      52760  MISS:        148
Heartbeat CPU 0 instructions: 80000000 cycles: 40199716 heartbeat IPC: 1.45366 cumulative IPC: 1.42534 (Simulation time: 1 hr 19 min 3 sec) 

Region of Interest Statistics
cpu0_DTLB TOTAL     ACCESS:    7287812  HIT:    7280883  MISS:       6929
cpu0_DTLB LOAD      ACCESS:    6572211  HIT:    6566331  MISS:       5880
cpu0_DTLB RFO       ACCESS:     715601  HIT:     714552  MISS:       1049
cpu0_DTLB PREFETCH  ACCESS:          0  HIT:          0  MISS:          0
cpu0_DTLB WRITEBACK ACCESS:          0  HIT:          0  MISS:          0
cpu0_ITLB TOTAL     ACCESS:     276955  HIT:     276955  MISS:          0
cpu0_ITLB LOAD      ACCESS:     276955  HIT:     276955  MISS:          0
cpu0_ITLB RFO       ACCESS:          0  HIT:          0  MISS:          0
cpu0_ITLB PREFETCH  ACCESS:          0  HIT:          0  MISS:          0
cpu0_ITLB WRITEBACK ACCESS:          0  HIT:          0  MISS:          0
cpu0_L1I TOTAL     ACCESS:     250044  HIT:     250044  MISS:          0
cpu0_L1I LOAD      ACCESS:     250044  HIT:     250044  MISS:          0
cpu0_L1I RFO       ACCESS:          0  HIT:          0  MISS:          0
cpu0_L1I PREFETCH  ACCESS:          0  HIT:          0  MISS:          0
cpu0_L1I WRITEBACK ACCESS:          0  HIT:          0  MISS:          0
cpu0_STLB TOTAL     ACCESS:       6929  HIT:       5234  MISS:       1695
cpu0_STLB LOAD      ACCESS:       5880  HIT:       4185  MISS:       1695
cpu0_STLB RFO       ACCESS:       1049  HIT:       1049  MISS:          0
cpu0_STLB PREFETCH  ACCESS:          0  HIT:          0  MISS:          0
cpu0_STLB WRITEBACK ACCESS:          0  HIT:          0  MISS:          0
cpu0_L1D TOTAL     ACCESS:    8043248  HIT:    7734569  MISS:     308679
cpu0_L1D LOAD      ACCESS:    6957170  HIT:    6695806  MISS:     261364
cpu0_L1D RFO       ACCESS:    1084478  HIT:    1037674  MISS:      46804
cpu0_L1D PREFETCH  ACCESS:          0  HIT:          0  MISS:          0
cpu0_L1D WRITEBACK ACCESS:          0  HIT:          0  MISS:          0
cpu0_L2C TOTAL     ACCESS:     399296  HIT:     177293  MISS:     222003
cpu0_L2C LOAD      ACCESS:     261356  HIT:      65055  MISS:     196301
cpu0_L2C RFO       ACCESS:      46804  HIT:      21123  MISS:      25681
cpu0_L2C PREFETCH  ACCESS:          0  HIT:          0  MISS:          0
cpu0_L2C WRITEBACK ACCESS:      90625  HIT:      90620  MISS:          5
LLC TOTAL     ACCESS:     276730  HIT:     163167  MISS:     113563
LLC LOAD      ACCESS:     196301  HIT:      83288  MISS:     113013
LLC RFO       ACCESS:      25681  HIT:      25280  MISS:        401
LLC PREFETCH  ACCESS:          0  HIT:          0  MISS:          0
LLC WRITEBACK ACCESS:      54732  HIT:      54584  MISS:        148
Heartbeat CPU 0 instructions: 82000001 cycles: 41581467 heartbeat IPC: 1.44744 cumulative IPC: 1.4267 (Simulation time: 1 hr 21 min 26 sec) 

Region of Interest Statistics
cpu0_DTLB TOTAL     ACCESS:    7780061  HIT:    7772715  MISS:       7346
cpu0_DTLB LOAD      ACCESS:    7011559  HIT:    7005332  MISS:       6227
cpu0_DTLB RFO       ACCESS:     768502  HIT:     767383  MISS:       1119
cpu0_DTLB PREFETCH  ACCESS:          0  HIT:          0  MISS:          0
cpu0_DTLB WRITEBACK ACCESS:          0  HIT:          0  MISS:          0
cpu0_ITLB TOTAL     ACCESS:     296329  HIT:     296329  MISS:          0
cpu0_ITLB LOAD      ACCESS:     296329  HIT:     296329  MISS:          0
cpu0_ITLB RFO       ACCESS:          0  HIT:          0  MISS:          0
cpu0_ITLB PREFETCH  ACCESS:          0  HIT:          0  MISS:          0
cpu0_ITLB WRITEBACK ACCESS:          0  HIT:          0  MISS:          0
cpu0_L1I TOTAL     ACCESS:     269601  HIT:     269601  MISS:          0
cpu0_L1I LOAD      ACCESS:     269601  HIT:     269601  MISS:          0
cpu0_L1I RFO       ACCESS:          0  HIT:          0  MISS:          0
cpu0_L1I PREFETCH  ACCESS:          0  HIT:          0  MISS:          0
cpu0_L1I WRITEBACK ACCESS:          0  HIT:          0  MISS:          0
cpu0_STLB TOTAL     ACCESS:       7346  HIT:       5554  MISS:       1792
cpu0_STLB LOAD      ACCESS:       6227  HIT:       4435  MISS:       1792
cpu0_STLB RFO       ACCESS:       1119  HIT:       1119  MISS:          0
cpu0_STLB PREFETCH  ACCESS:          0  HIT:          0  MISS:          0
cpu0_STLB WRITEBACK ACCESS:          0  HIT:          0  MISS:          0
cpu0_L1D TOTAL     ACCESS:    8598121  HIT:    8269346  MISS:     328775
cpu0_L1D LOAD      ACCESS:    7442051  HIT:    7164300  MISS:     277751
cpu0_L1D RFO       ACCESS:    1154379  HIT:    1103903  MISS:      50476
cpu0_L1D PREFETCH  ACCESS:          0  HIT:          0  MISS:          0
cpu0_L1D WRITEBACK ACCESS:          0  HIT:          0  MISS:          0
cpu0_L2C TOTAL     ACCESS:     424324  HIT:     188830  MISS:     235494
cpu0_L2C LOAD      ACCESS:     277738  HIT:      70032  MISS:     207706
cpu0_L2C RFO       ACCESS:      50476  HIT:      22709  MISS:      27767
cpu0_L2C PREFETCH  ACCESS:          0  HIT:          0  MISS:          0
cpu0_L2C WRITEBACK ACCESS:      95562  HIT:      95557  MISS:          5
LLC TOTAL     ACCESS:     292427  HIT:     171951  MISS:     120476
LLC LOAD      ACCESS:     207706  HIT:      87780  MISS:     119926
LLC RFO       ACCESS:      27767  HIT:      27366  MISS:        401
LLC PREFETCH  ACCESS:          0  HIT:          0  MISS:          0
LLC WRITEBACK ACCESS:      56938  HIT:      56790  MISS:        148
Heartbeat CPU 0 instructions: 84000002 cycles: 42999389 heartbeat IPC: 1.41052 cumulative IPC: 1.42574 (Simulation time: 1 hr 23 min 58 sec) 

Region of Interest Statistics
cpu0_DTLB TOTAL     ACCESS:    8272328  HIT:    8264440  MISS:       7888
cpu0_DTLB LOAD      ACCESS:    7451324  HIT:    7444664  MISS:       6660
cpu0_DTLB RFO       ACCESS:     821004  HIT:     819776  MISS:       1228
cpu0_DTLB PREFETCH  ACCESS:          0  HIT:          0  MISS:          0
cpu0_DTLB WRITEBACK ACCESS:          0  HIT:          0  MISS:          0
cpu0_ITLB TOTAL     ACCESS:     315349  HIT:     315349  MISS:          0
cpu0_ITLB LOAD      ACCESS:     315349  HIT:     315349  MISS:          0
cpu0_ITLB RFO       ACCESS:          0  HIT:          0  MISS:          0
cpu0_ITLB PREFETCH  ACCESS:          0  HIT:          0  MISS:          0
cpu0_ITLB WRITEBACK ACCESS:          0  HIT:          0  MISS:          0
cpu0_L1I TOTAL     ACCESS:     290090  HIT:     290090  MISS:          0
cpu0_L1I LOAD      ACCESS:     290090  HIT:     290090  MISS:          0
cpu0_L1I RFO       ACCESS:          0  HIT:          0  MISS:          0
cpu0_L1I PREFETCH  ACCESS:          0  HIT:          0  MISS:          0
cpu0_L1I WRITEBACK ACCESS:          0  HIT:          0  MISS:          0
cpu0_STLB TOTAL     ACCESS:       7888  HIT:       5997  MISS:       1891
cpu0_STLB LOAD      ACCESS:       6660  HIT:       4769  MISS:       1891
cpu0_STLB RFO       ACCESS:       1228  HIT:       1228  MISS:          0
cpu0_STLB PREFETCH  ACCESS:          0  HIT:          0  MISS:          0
cpu0_STLB WRITEBACK ACCESS:          0  HIT:          0  MISS:          0
cpu0_L1D TOTAL     ACCESS:    9152418  HIT:    8803383  MISS:     349035
cpu0_L1D LOAD      ACCESS:    7926569  HIT:    7632341  MISS:     294228
cpu0_L1D RFO       ACCESS:    1224069  HIT:    1169853  MISS:      54216
cpu0_L1D PREFETCH  ACCESS:          0  HIT:          0  MISS:          0
cpu0_L1D WRITEBACK ACCESS:          0  HIT:          0  MISS:          0
cpu0_L2C TOTAL     ACCESS:     449523  HIT:     200611  MISS:     248912
cpu0_L2C LOAD      ACCESS:     294215  HIT:      75131  MISS:     219084
cpu0_L2C RFO       ACCESS:      54216  HIT:      24410  MISS:      29806
cpu0_L2C PREFETCH  ACCESS:          0  HIT:          0  MISS:          0
cpu0_L2C WRITEBACK ACCESS:     100501  HIT:     100496  MISS:          5
LLC TOTAL     ACCESS:     308066  HIT:     180117  MISS:     127949
LLC LOAD      ACCESS:     219084  HIT:      91865  MISS:     127219
LLC RFO       ACCESS:      29806  HIT:      29225  MISS:        581
LLC PREFETCH  ACCESS:          0  HIT:          0  MISS:          0
LLC WRITEBACK ACCESS:      59159  HIT:      59011  MISS:        148
Heartbeat CPU 0 instructions: 86000001 cycles: 44430066 heartbeat IPC: 1.39794 cumulative IPC: 1.42417 (Simulation time: 1 hr 26 min 25 sec) 

Region of Interest Statistics
cpu0_DTLB TOTAL     ACCESS:    8753895  HIT:    8745612  MISS:       8283
cpu0_DTLB LOAD      ACCESS:    7890362  HIT:    7883353  MISS:       7009
cpu0_DTLB RFO       ACCESS:     863533  HIT:     862259  MISS:       1274
cpu0_DTLB PREFETCH  ACCESS:          0  HIT:          0  MISS:          0
cpu0_DTLB WRITEBACK ACCESS:          0  HIT:          0  MISS:          0
cpu0_ITLB TOTAL     ACCESS:     332759  HIT:     332759  MISS:          0
cpu0_ITLB LOAD      ACCESS:     332759  HIT:     332759  MISS:          0
cpu0_ITLB RFO       ACCESS:          0  HIT:          0  MISS:          0
cpu0_ITLB PREFETCH  ACCESS:          0  HIT:          0  MISS:          0
cpu0_ITLB WRITEBACK ACCESS:          0  HIT:          0  MISS:          0
cpu0_L1I TOTAL     ACCESS:     303216  HIT:     303216  MISS:          0
cpu0_L1I LOAD      ACCESS:     303216  HIT:     303216  MISS:          0
cpu0_L1I RFO       ACCESS:          0  HIT:          0  MISS:          0
cpu0_L1I PREFETCH  ACCESS:          0  HIT:          0  MISS:          0
cpu0_L1I WRITEBACK ACCESS:          0  HIT:          0  MISS:          0
cpu0_STLB TOTAL     ACCESS:       8283  HIT:       6263  MISS:       2020
cpu0_STLB LOAD      ACCESS:       7009  HIT:       4989  MISS:       2020
cpu0_STLB RFO       ACCESS:       1274  HIT:       1274  MISS:          0
cpu0_STLB PREFETCH  ACCESS:          0  HIT:          0  MISS:          0
cpu0_STLB WRITEBACK ACCESS:          0  HIT:          0  MISS:          0
cpu0_L1D TOTAL     ACCESS:    9671893  HIT:    9301972  MISS:     369921
cpu0_L1D LOAD      ACCESS:    8371320  HIT:    8058664  MISS:     312656
cpu0_L1D RFO       ACCESS:    1298668  HIT:    1242018  MISS:      56650
cpu0_L1D PREFETCH  ACCESS:          0  HIT:          0  MISS:          0
cpu0_L1D WRITEBACK ACCESS:          0  HIT:          0  MISS:          0
cpu0_L2C TOTAL     ACCESS:     477452  HIT:     212464  MISS:     264988
cpu0_L2C LOAD      ACCESS:     312643  HIT:      78835  MISS:     233808
cpu0_L2C RFO       ACCESS:      56650  HIT:      25494  MISS:      31156
cpu0_L2C PREFETCH  ACCESS:          0  HIT:          0  MISS:          0
cpu0_L2C WRITEBACK ACCESS:     107544  HIT:     107538  MISS:          6
LLC TOTAL     ACCESS:     326907  HIT:     190430  MISS:     136477
LLC LOAD      ACCESS:     233808  HIT:      98314  MISS:     135494
LLC RFO       ACCESS:      31156  HIT:      30435  MISS:        721
LLC PREFETCH  ACCESS:          0  HIT:          0  MISS:          0
LLC WRITEBACK ACCESS:      61925  HIT:      61664  MISS:        261
Heartbeat CPU 0 instructions: 88000001 cycles: 46438781 heartbeat IPC: 0.995661 cumulative IPC: 1.39262 (Simulation time: 1 hr 29 min 21 sec) 

Region of Interest Statistics
cpu0_DTLB TOTAL     ACCESS:    9170461  HIT:    9161798  MISS:       8663
cpu0_DTLB LOAD      ACCESS:    8279108  HIT:    8271793  MISS:       7315
cpu0_DTLB RFO       ACCESS:     891353  HIT:     890005  MISS:       1348
cpu0_DTLB PREFETCH  ACCESS:          0  HIT:          0  MISS:          0
cpu0_DTLB WRITEBACK ACCESS:          0  HIT:          0  MISS:          0
cpu0_ITLB TOTAL     ACCESS:     352816  HIT:     352809  MISS:          7
cpu0_ITLB LOAD      ACCESS:     352816  HIT:     352809  MISS:          7
cpu0_ITLB RFO       ACCESS:          0  HIT:          0  MISS:          0
cpu0_ITLB PREFETCH  ACCESS:          0  HIT:          0  MISS:          0
cpu0_ITLB WRITEBACK ACCESS:          0  HIT:          0  MISS:          0
cpu0_L1I TOTAL     ACCESS:     304085  HIT:     303998  MISS:         87
cpu0_L1I LOAD      ACCESS:     304085  HIT:     303998  MISS:         87
cpu0_L1I RFO       ACCESS:          0  HIT:          0  MISS:          0
cpu0_L1I PREFETCH  ACCESS:          0  HIT:          0  MISS:          0
cpu0_L1I WRITEBACK ACCESS:          0  HIT:          0  MISS:          0
cpu0_STLB TOTAL     ACCESS:       8670  HIT:       6405  MISS:       2265
cpu0_STLB LOAD      ACCESS:       7322  HIT:       5097  MISS:       2225
cpu0_STLB RFO       ACCESS:       1348  HIT:       1308  MISS:         40
cpu0_STLB PREFETCH  ACCESS:          0  HIT:          0  MISS:          0
cpu0_STLB WRITEBACK ACCESS:          0  HIT:          0  MISS:          0
cpu0_L1D TOTAL     ACCESS:   10110294  HIT:    9717467  MISS:     392827
cpu0_L1D LOAD      ACCESS:    8760346  HIT:    8429401  MISS:     330945
cpu0_L1D RFO       ACCESS:    1347799  HIT:    1286537  MISS:      61262
cpu0_L1D PREFETCH  ACCESS:          0  HIT:          0  MISS:          0
cpu0_L1D WRITEBACK ACCESS:          0  HIT:          0  MISS:          0
cpu0_L2C TOTAL     ACCESS:     510881  HIT:     223440  MISS:     287441
cpu0_L2C LOAD      ACCESS:     331019  HIT:      79356  MISS:     251663
cpu0_L2C RFO       ACCESS:      61262  HIT:      25514  MISS:      35748
cpu0_L2C PREFETCH  ACCESS:          0  HIT:          0  MISS:          0
cpu0_L2C WRITEBACK ACCESS:     117980  HIT:     117972  MISS:          8
LLC TOTAL     ACCESS:     360756  HIT:     209745  MISS:     151011
LLC LOAD      ACCESS:     251663  HIT:     104049  MISS:     147614
LLC RFO       ACCESS:      35748  HIT:      32616  MISS:       3132
LLC PREFETCH  ACCESS:          0  HIT:          0  MISS:          0
LLC WRITEBACK ACCESS:      73323  HIT:      73062  MISS:        261
Heartbeat CPU 0 instructions: 90000003 cycles: 47931437 heartbeat IPC: 1.33989 cumulative IPC: 1.38989 (Simulation time: 1 hr 31 min 33 sec) 

Region of Interest Statistics
cpu0_DTLB TOTAL     ACCESS:    9571630  HIT:    9562611  MISS:       9019
cpu0_DTLB LOAD      ACCESS:    8668433  HIT:    8660851  MISS:       7582
cpu0_DTLB RFO       ACCESS:     903197  HIT:     901760  MISS:       1437
cpu0_DTLB PREFETCH  ACCESS:          0  HIT:          0  MISS:          0
cpu0_DTLB WRITEBACK ACCESS:          0  HIT:          0  MISS:          0
cpu0_ITLB TOTAL     ACCESS:     361235  HIT:     361228  MISS:          7
cpu0_ITLB LOAD      ACCESS:     361235  HIT:     361228  MISS:          7
cpu0_ITLB RFO       ACCESS:          0  HIT:          0  MISS:          0
cpu0_ITLB PREFETCH  ACCESS:          0  HIT:          0  MISS:          0
cpu0_ITLB WRITEBACK ACCESS:          0  HIT:          0  MISS:          0
cpu0_L1I TOTAL     ACCESS:     304085  HIT:     303998  MISS:         87
cpu0_L1I LOAD      ACCESS:     304085  HIT:     303998  MISS:         87
cpu0_L1I RFO       ACCESS:          0  HIT:          0  MISS:          0
cpu0_L1I PREFETCH  ACCESS:          0  HIT:          0  MISS:          0
cpu0_L1I WRITEBACK ACCESS:          0  HIT:          0  MISS:          0
cpu0_STLB TOTAL     ACCESS:       9026  HIT:       6583  MISS:       2443
cpu0_STLB LOAD      ACCESS:       7589  HIT:       5275  MISS:       2314
cpu0_STLB RFO       ACCESS:       1437  HIT:       1308  MISS:        129
cpu0_STLB PREFETCH  ACCESS:          0  HIT:          0  MISS:          0
cpu0_STLB WRITEBACK ACCESS:          0  HIT:          0  MISS:          0
cpu0_L1D TOTAL     ACCESS:   10597374  HIT:   10182475  MISS:     414899
cpu0_L1D LOAD      ACCESS:    9241731  HIT:    8894231  MISS:     347500
cpu0_L1D RFO       ACCESS:    1353316  HIT:    1286537  MISS:      66779
cpu0_L1D PREFETCH  ACCESS:          0  HIT:          0  MISS:          0
cpu0_L1D WRITEBACK ACCESS:          0  HIT:          0  MISS:          0
cpu0_L2C TOTAL     ACCESS:     538468  HIT:     235477  MISS:     302991
cpu0_L2C LOAD      ACCESS:     347574  HIT:      85878  MISS:     261696
cpu0_L2C RFO       ACCESS:      66779  HIT:      25514  MISS:      41265
cpu0_L2C PREFETCH  ACCESS:          0  HIT:          0  MISS:          0
cpu0_L2C WRITEBACK ACCESS:     123495  HIT:     123487  MISS:          8
LLC TOTAL     ACCESS:     382304  HIT:     220259  MISS:     162045
LLC LOAD      ACCESS:     261696  HIT:     108565  MISS:     153131
LLC RFO       ACCESS:      41265  HIT:      32616  MISS:       8649
LLC PREFETCH  ACCESS:          0  HIT:          0  MISS:          0
LLC WRITEBACK ACCESS:      79321  HIT:      79060  MISS:        261
Heartbeat CPU 0 instructions: 92000003 cycles: 49387236 heartbeat IPC: 1.37382 cumulative IPC: 1.38911 (Simulation time: 1 hr 33 min 58 sec) 

Region of Interest Statistics
cpu0_DTLB TOTAL     ACCESS:    9972799  HIT:    9963428  MISS:       9371
cpu0_DTLB LOAD      ACCESS:    9057807  HIT:    9049961  MISS:       7846
cpu0_DTLB RFO       ACCESS:     914992  HIT:     913467  MISS:       1525
cpu0_DTLB PREFETCH  ACCESS:          0  HIT:          0  MISS:          0
cpu0_DTLB WRITEBACK ACCESS:          0  HIT:          0  MISS:          0
cpu0_ITLB TOTAL     ACCESS:     369649  HIT:     369642  MISS:          7
cpu0_ITLB LOAD      ACCESS:     369649  HIT:     369642  MISS:          7
cpu0_ITLB RFO       ACCESS:          0  HIT:          0  MISS:          0
cpu0_ITLB PREFETCH  ACCESS:          0  HIT:          0  MISS:          0
cpu0_ITLB WRITEBACK ACCESS:          0  HIT:          0  MISS:          0
cpu0_L1I TOTAL     ACCESS:     304085  HIT:     303998  MISS:         87
cpu0_L1I LOAD      ACCESS:     304085  HIT:     303998  MISS:         87
cpu0_L1I RFO       ACCESS:          0  HIT:          0  MISS:          0
cpu0_L1I PREFETCH  ACCESS:          0  HIT:          0  MISS:          0
cpu0_L1I WRITEBACK ACCESS:          0  HIT:          0  MISS:          0
cpu0_STLB TOTAL     ACCESS:       9378  HIT:       6759  MISS:       2619
cpu0_STLB LOAD      ACCESS:       7853  HIT:       5451  MISS:       2402
cpu0_STLB RFO       ACCESS:       1525  HIT:       1308  MISS:        217
cpu0_STLB PREFETCH  ACCESS:          0  HIT:          0  MISS:          0
cpu0_STLB WRITEBACK ACCESS:          0  HIT:          0  MISS:          0
cpu0_L1D TOTAL     ACCESS:   11084646  HIT:   10647677  MISS:     436969
cpu0_L1D LOAD      ACCESS:    9723310  HIT:    9359257  MISS:     364053
cpu0_L1D RFO       ACCESS:    1358833  HIT:    1286537  MISS:      72296
cpu0_L1D PREFETCH  ACCESS:          0  HIT:          0  MISS:          0
cpu0_L1D WRITEBACK ACCESS:          0  HIT:          0  MISS:          0
cpu0_L2C TOTAL     ACCESS:     566056  HIT:     247154  MISS:     318902
cpu0_L2C LOAD      ACCESS:     364127  HIT:      92037  MISS:     272090
cpu0_L2C RFO       ACCESS:      72296  HIT:      25514  MISS:      46782
cpu0_L2C PREFETCH  ACCESS:          0  HIT:          0  MISS:          0
cpu0_L2C WRITEBACK ACCESS:     129013  HIT:     129005  MISS:          8
LLC TOTAL     ACCESS:     403258  HIT:     230179  MISS:     173079
LLC LOAD      ACCESS:     272090  HIT:     113442  MISS:     158648
LLC RFO       ACCESS:      46782  HIT:      32616  MISS:      14166
LLC PREFETCH  ACCESS:          0  HIT:          0  MISS:          0
LLC WRITEBACK ACCESS:      84364  HIT:      84103  MISS:        261
Heartbeat CPU 0 instructions: 94000004 cycles: 50873242 heartbeat IPC: 1.34589 cumulative IPC: 1.38709 (Simulation time: 1 hr 36 min 16 sec) 

Region of Interest Statistics
cpu0_DTLB TOTAL     ACCESS:   10374034  HIT:   10364307  MISS:       9727
cpu0_DTLB LOAD      ACCESS:    9447158  HIT:    9439045  MISS:       8113
cpu0_DTLB RFO       ACCESS:     926876  HIT:     925262  MISS:       1614
cpu0_DTLB PREFETCH  ACCESS:          0  HIT:          0  MISS:          0
cpu0_DTLB WRITEBACK ACCESS:          0  HIT:          0  MISS:          0
cpu0_ITLB TOTAL     ACCESS:     378052  HIT:     378045  MISS:          7
cpu0_ITLB LOAD      ACCESS:     378052  HIT:     378045  MISS:          7
cpu0_ITLB RFO       ACCESS:          0  HIT:          0  MISS:          0
cpu0_ITLB PREFETCH  ACCESS:          0  HIT:          0  MISS:          0
cpu0_ITLB WRITEBACK ACCESS:          0  HIT:          0  MISS:          0
cpu0_L1I TOTAL     ACCESS:     304085  HIT:     303998  MISS:         87
cpu0_L1I LOAD      ACCESS:     304085  HIT:     303998  MISS:         87
cpu0_L1I RFO       ACCESS:          0  HIT:          0  MISS:          0
cpu0_L1I PREFETCH  ACCESS:          0  HIT:          0  MISS:          0
cpu0_L1I WRITEBACK ACCESS:          0  HIT:          0  MISS:          0
cpu0_STLB TOTAL     ACCESS:       9734  HIT:       6937  MISS:       2797
cpu0_STLB LOAD      ACCESS:       8120  HIT:       5629  MISS:       2491
cpu0_STLB RFO       ACCESS:       1614  HIT:       1308  MISS:        306
cpu0_STLB PREFETCH  ACCESS:          0  HIT:          0  MISS:          0
cpu0_STLB WRITEBACK ACCESS:          0  HIT:          0  MISS:          0
cpu0_L1D TOTAL     ACCESS:   11571697  HIT:   11112654  MISS:     459043
cpu0_L1D LOAD      ACCESS:   10204665  HIT:    9824056  MISS:     380609
cpu0_L1D RFO       ACCESS:    1364351  HIT:    1286537  MISS:      77814
cpu0_L1D PREFETCH  ACCESS:          0  HIT:          0  MISS:          0
cpu0_L1D WRITEBACK ACCESS:          0  HIT:          0  MISS:          0
cpu0_L2C TOTAL     ACCESS:     593651  HIT:     257876  MISS:     335775
cpu0_L2C LOAD      ACCESS:     380683  HIT:      97238  MISS:     283445
cpu0_L2C RFO       ACCESS:      77814  HIT:      25514  MISS:      52300
cpu0_L2C PREFETCH  ACCESS:          0  HIT:          0  MISS:          0
cpu0_L2C WRITEBACK ACCESS:     134534  HIT:     134526  MISS:          8
LLC TOTAL     ACCESS:     425772  HIT:     241657  MISS:     184115
LLC LOAD      ACCESS:     283445  HIT:     119279  MISS:     164166
LLC RFO       ACCESS:      52300  HIT:      32616  MISS:      19684
LLC PREFETCH  ACCESS:          0  HIT:          0  MISS:          0
LLC WRITEBACK ACCESS:      90005  HIT:      89744  MISS:        261
Heartbeat CPU 0 instructions: 96000001 cycles: 52372307 heartbeat IPC: 1.33416 cumulative IPC: 1.3847 (Simulation time: 1 hr 38 min 34 sec) 

Region of Interest Statistics
cpu0_DTLB TOTAL     ACCESS:   10775258  HIT:   10765175  MISS:      10083
cpu0_DTLB LOAD      ACCESS:    9836527  HIT:    9828147  MISS:       8380
cpu0_DTLB RFO       ACCESS:     938731  HIT:     937028  MISS:       1703
cpu0_DTLB PREFETCH  ACCESS:          0  HIT:          0  MISS:          0
cpu0_DTLB WRITEBACK ACCESS:          0  HIT:          0  MISS:          0
cpu0_ITLB TOTAL     ACCESS:     386455  HIT:     386448  MISS:          7
cpu0_ITLB LOAD      ACCESS:     386455  HIT:     386448  MISS:          7
cpu0_ITLB RFO       ACCESS:          0  HIT:          0  MISS:          0
cpu0_ITLB PREFETCH  ACCESS:          0  HIT:          0  MISS:          0
cpu0_ITLB WRITEBACK ACCESS:          0  HIT:          0  MISS:          0
cpu0_L1I TOTAL     ACCESS:     304085  HIT:     303998  MISS:         87
cpu0_L1I LOAD      ACCESS:     304085  HIT:     303998  MISS:         87
cpu0_L1I RFO       ACCESS:          0  HIT:          0  MISS:          0
cpu0_L1I PREFETCH  ACCESS:          0  HIT:          0  MISS:          0
cpu0_L1I WRITEBACK ACCESS:          0  HIT:          0  MISS:          0
cpu0_STLB TOTAL     ACCESS:      10090  HIT:       7115  MISS:       2975
cpu0_STLB LOAD      ACCESS:       8387  HIT:       5807  MISS:       2580
cpu0_STLB RFO       ACCESS:       1703  HIT:       1308  MISS:        395
cpu0_STLB PREFETCH  ACCESS:          0  HIT:          0  MISS:          0
cpu0_STLB WRITEBACK ACCESS:          0  HIT:          0  MISS:          0
cpu0_L1D TOTAL     ACCESS:   12058743  HIT:   11577628  MISS:     481115
cpu0_L1D LOAD      ACCESS:   10686016  HIT:   10288852  MISS:     397164
cpu0_L1D RFO       ACCESS:    1369868  HIT:    1286537  MISS:      83331
cpu0_L1D PREFETCH  ACCESS:          0  HIT:          0  MISS:          0
cpu0_L1D WRITEBACK ACCESS:          0  HIT:          0  MISS:          0
cpu0_L2C TOTAL     ACCESS:     621242  HIT:     270150  MISS:     351092
cpu0_L2C LOAD      ACCESS:     397238  HIT:     103993  MISS:     293245
cpu0_L2C RFO       ACCESS:      83331  HIT:      25514  MISS:      57817
cpu0_L2C PREFETCH  ACCESS:          0  HIT:          0  MISS:          0
cpu0_L2C WRITEBACK ACCESS:     140053  HIT:     140045  MISS:          8
LLC TOTAL     ACCESS:     446703  HIT:     251554  MISS:     195149
LLC LOAD      ACCESS:     293245  HIT:     123562  MISS:     169683
LLC RFO       ACCESS:      57817  HIT:      32616  MISS:      25201
LLC PREFETCH  ACCESS:          0  HIT:          0  MISS:          0
LLC WRITEBACK ACCESS:      95619  HIT:      95358  MISS:        261
Heartbeat CPU 0 instructions: 98000001 cycles: 54183978 heartbeat IPC: 1.10395 cumulative IPC: 1.37018 (Simulation time: 1 hr 41 min 17 sec) 

Region of Interest Statistics
cpu0_DTLB TOTAL     ACCESS:   11172732  HIT:   11162292  MISS:      10440
cpu0_DTLB LOAD      ACCESS:   10222052  HIT:   10213404  MISS:       8648
cpu0_DTLB RFO       ACCESS:     950680  HIT:     948888  MISS:       1792
cpu0_DTLB PREFETCH  ACCESS:          0  HIT:          0  MISS:          0
cpu0_DTLB WRITEBACK ACCESS:          0  HIT:          0  MISS:          0
cpu0_ITLB TOTAL     ACCESS:     394875  HIT:     394868  MISS:          7
cpu0_ITLB LOAD      ACCESS:     394875  HIT:     394868  MISS:          7
cpu0_ITLB RFO       ACCESS:          0  HIT:          0  MISS:          0
cpu0_ITLB PREFETCH  ACCESS:          0  HIT:          0  MISS:          0
cpu0_ITLB WRITEBACK ACCESS:          0  HIT:          0  MISS:          0
cpu0_L1I TOTAL     ACCESS:     304085  HIT:     303998  MISS:         87
cpu0_L1I LOAD      ACCESS:     304085  HIT:     303998  MISS:         87
cpu0_L1I RFO       ACCESS:          0  HIT:          0  MISS:          0
cpu0_L1I PREFETCH  ACCESS:          0  HIT:          0  MISS:          0
cpu0_L1I WRITEBACK ACCESS:          0  HIT:          0  MISS:          0
cpu0_STLB TOTAL     ACCESS:      10447  HIT:       7265  MISS:       3182
cpu0_STLB LOAD      ACCESS:       8655  HIT:       5948  MISS:       2707
cpu0_STLB RFO       ACCESS:       1792  HIT:       1317  MISS:        475
cpu0_STLB PREFETCH  ACCESS:          0  HIT:          0  MISS:          0
cpu0_STLB WRITEBACK ACCESS:          0  HIT:          0  MISS:          0
cpu0_L1D TOTAL     ACCESS:   12543037  HIT:   12039847  MISS:     503190
cpu0_L1D LOAD      ACCESS:   11160816  HIT:   10747096  MISS:     413720
cpu0_L1D RFO       ACCESS:    1379156  HIT:    1290307  MISS:      88849
cpu0_L1D PREFETCH  ACCESS:          0  HIT:          0  MISS:          0
cpu0_L1D WRITEBACK ACCESS:          0  HIT:          0  MISS:          0
cpu0_L2C TOTAL     ACCESS:     648833  HIT:     281127  MISS:     367706
cpu0_L2C LOAD      ACCESS:     413794  HIT:     109454  MISS:     304340
cpu0_L2C RFO       ACCESS:      88849  HIT:      25514  MISS:      63335
cpu0_L2C PREFETCH  ACCESS:          0  HIT:          0  MISS:          0
cpu0_L2C WRITEBACK ACCESS:     145569  HIT:     145561  MISS:          8
LLC TOTAL     ACCESS:     469232  HIT:     261628  MISS:     207604
LLC LOAD      ACCESS:     304340  HIT:     126825  MISS:     177515
LLC RFO       ACCESS:      63335  HIT:      33511  MISS:      29824
LLC PREFETCH  ACCESS:          0  HIT:          0  MISS:          0
LLC WRITEBACK ACCESS:     101534  HIT:     101273  MISS:        261
Heartbeat CPU 0 instructions: 100000001 cycles: 55985558 heartbeat IPC: 1.11014 cumulative IPC: 1.35746 (Simulation time: 1 hr 43 min 58 sec) 

Region of Interest Statistics
cpu0_DTLB TOTAL     ACCESS:   11571528  HIT:   11560729  MISS:      10799
cpu0_DTLB LOAD      ACCESS:   10608867  HIT:   10599949  MISS:       8918
cpu0_DTLB RFO       ACCESS:     962661  HIT:     960780  MISS:       1881
cpu0_DTLB PREFETCH  ACCESS:          0  HIT:          0  MISS:          0
cpu0_DTLB WRITEBACK ACCESS:          0  HIT:          0  MISS:          0
cpu0_ITLB TOTAL     ACCESS:     403278  HIT:     403271  MISS:          7
cpu0_ITLB LOAD      ACCESS:     403278  HIT:     403271  MISS:          7
cpu0_ITLB RFO       ACCESS:          0  HIT:          0  MISS:          0
cpu0_ITLB PREFETCH  ACCESS:          0  HIT:          0  MISS:          0
cpu0_ITLB WRITEBACK ACCESS:          0  HIT:          0  MISS:          0
cpu0_L1I TOTAL     ACCESS:     304085  HIT:     303998  MISS:         87
cpu0_L1I LOAD      ACCESS:     304085  HIT:     303998  MISS:         87
cpu0_L1I RFO       ACCESS:          0  HIT:          0  MISS:          0
cpu0_L1I PREFETCH  ACCESS:          0  HIT:          0  MISS:          0
cpu0_L1I WRITEBACK ACCESS:          0  HIT:          0  MISS:          0
cpu0_STLB TOTAL     ACCESS:      10806  HIT:       7421  MISS:       3385
cpu0_STLB LOAD      ACCESS:       8925  HIT:       6104  MISS:       2821
cpu0_STLB RFO       ACCESS:       1881  HIT:       1317  MISS:        564
cpu0_STLB PREFETCH  ACCESS:          0  HIT:          0  MISS:          0
cpu0_STLB WRITEBACK ACCESS:          0  HIT:          0  MISS:          0
cpu0_L1D TOTAL     ACCESS:   13025787  HIT:   12500522  MISS:     525265
cpu0_L1D LOAD      ACCESS:   11637657  HIT:   11207380  MISS:     430277
cpu0_L1D RFO       ACCESS:    1384862  HIT:    1290495  MISS:      94367
cpu0_L1D PREFETCH  ACCESS:          0  HIT:          0  MISS:          0
cpu0_L1D WRITEBACK ACCESS:          0  HIT:          0  MISS:          0
cpu0_L2C TOTAL     ACCESS:     676424  HIT:     291731  MISS:     384693
cpu0_L2C LOAD      ACCESS:     430351  HIT:     114542  MISS:     315809
cpu0_L2C RFO       ACCESS:      94367  HIT:      25514  MISS:      68853
cpu0_L2C PREFETCH  ACCESS:          0  HIT:          0  MISS:          0
cpu0_L2C WRITEBACK ACCESS:     151085  HIT:     151077  MISS:          8
LLC TOTAL     ACCESS:     491063  HIT:     270892  MISS:     220171
LLC LOAD      ACCESS:     315809  HIT:     131245  MISS:     184564
LLC RFO       ACCESS:      68853  HIT:      33511  MISS:      35342
LLC PREFETCH  ACCESS:          0  HIT:          0  MISS:          0
LLC WRITEBACK ACCESS:     106378  HIT:     106117  MISS:        261
Heartbeat CPU 0 instructions: 102000003 cycles: 57568579 heartbeat IPC: 1.26341 cumulative IPC: 1.35359 (Simulation time: 1 hr 46 min 28 sec) 

Region of Interest Statistics
cpu0_DTLB TOTAL     ACCESS:   11972864  HIT:   11961709  MISS:      11155
cpu0_DTLB LOAD      ACCESS:   10998251  HIT:   10989066  MISS:       9185
cpu0_DTLB RFO       ACCESS:     974613  HIT:     972643  MISS:       1970
cpu0_DTLB PREFETCH  ACCESS:          0  HIT:          0  MISS:          0
cpu0_DTLB WRITEBACK ACCESS:          0  HIT:          0  MISS:          0
cpu0_ITLB TOTAL     ACCESS:     411681  HIT:     411674  MISS:          7
cpu0_ITLB LOAD      ACCESS:     411681  HIT:     411674  MISS:          7
cpu0_ITLB RFO       ACCESS:          0  HIT:          0  MISS:          0
cpu0_ITLB PREFETCH  ACCESS:          0  HIT:          0  MISS:          0
cpu0_ITLB WRITEBACK ACCESS:          0  HIT:          0  MISS:          0
cpu0_L1I TOTAL     ACCESS:     304085  HIT:     303998  MISS:         87
cpu0_L1I LOAD      ACCESS:     304085  HIT:     303998  MISS:         87
cpu0_L1I RFO       ACCESS:          0  HIT:          0  MISS:          0
cpu0_L1I PREFETCH  ACCESS:          0  HIT:          0  MISS:          0
cpu0_L1I WRITEBACK ACCESS:          0  HIT:          0  MISS:          0
cpu0_STLB TOTAL     ACCESS:      11162  HIT:       7599  MISS:       3563
cpu0_STLB LOAD      ACCESS:       9192  HIT:       6282  MISS:       2910
cpu0_STLB RFO       ACCESS:       1970  HIT:       1317  MISS:        653
cpu0_STLB PREFETCH  ACCESS:          0  HIT:          0  MISS:          0
cpu0_STLB WRITEBACK ACCESS:          0  HIT:          0  MISS:          0
cpu0_L1D TOTAL     ACCESS:   13512598  HIT:   12965261  MISS:     547337
cpu0_L1D LOAD      ACCESS:   12118773  HIT:   11671941  MISS:     446832
cpu0_L1D RFO       ACCESS:    1390379  HIT:    1290495  MISS:      99884
cpu0_L1D PREFETCH  ACCESS:          0  HIT:          0  MISS:          0
cpu0_L1D WRITEBACK ACCESS:          0  HIT:          0  MISS:          0
cpu0_L2C TOTAL     ACCESS:     704013  HIT:     304636  MISS:     399377
cpu0_L2C LOAD      ACCESS:     446906  HIT:     121930  MISS:     324976
cpu0_L2C RFO       ACCESS:      99884  HIT:      25514  MISS:      74370
cpu0_L2C PREFETCH  ACCESS:          0  HIT:          0  MISS:          0
cpu0_L2C WRITEBACK ACCESS:     156602  HIT:     156594  MISS:          8
LLC TOTAL     ACCESS:     511617  HIT:     280412  MISS:     231205
LLC LOAD      ACCESS:     324976  HIT:     134895  MISS:     190081
LLC RFO       ACCESS:      74370  HIT:      33511  MISS:      40859
LLC PREFETCH  ACCESS:          0  HIT:          0  MISS:          0
LLC WRITEBACK ACCESS:     112248  HIT:     111987  MISS:        261
Heartbeat CPU 0 instructions: 104000003 cycles: 59206588 heartbeat IPC: 1.22099 cumulative IPC: 1.34817 (Simulation time: 1 hr 49 min 1 sec) 

Region of Interest Statistics
cpu0_DTLB TOTAL     ACCESS:   12374306  HIT:   12362794  MISS:      11512
cpu0_DTLB LOAD      ACCESS:   11387634  HIT:   11378182  MISS:       9452
cpu0_DTLB RFO       ACCESS:     986672  HIT:     984612  MISS:       2060
cpu0_DTLB PREFETCH  ACCESS:          0  HIT:          0  MISS:          0
cpu0_DTLB WRITEBACK ACCESS:          0  HIT:          0  MISS:          0
cpu0_ITLB TOTAL     ACCESS:     420084  HIT:     420077  MISS:          7
cpu0_ITLB LOAD      ACCESS:     420084  HIT:     420077  MISS:          7
cpu0_ITLB RFO       ACCESS:          0  HIT:          0  MISS:          0
cpu0_ITLB PREFETCH  ACCESS:          0  HIT:          0  MISS:          0
cpu0_ITLB WRITEBACK ACCESS:          0  HIT:          0  MISS:          0
cpu0_L1I TOTAL     ACCESS:     304085  HIT:     303998  MISS:         87
cpu0_L1I LOAD      ACCESS:     304085  HIT:     303998  MISS:         87
cpu0_L1I RFO       ACCESS:          0  HIT:          0  MISS:          0
cpu0_L1I PREFETCH  ACCESS:          0  HIT:          0  MISS:          0
cpu0_L1I WRITEBACK ACCESS:          0  HIT:          0  MISS:          0
cpu0_STLB TOTAL     ACCESS:      11519  HIT:       7777  MISS:       3742
cpu0_STLB LOAD      ACCESS:       9459  HIT:       6460  MISS:       2999
cpu0_STLB RFO       ACCESS:       2060  HIT:       1317  MISS:        743
cpu0_STLB PREFETCH  ACCESS:          0  HIT:          0  MISS:          0
cpu0_STLB WRITEBACK ACCESS:          0  HIT:          0  MISS:          0
cpu0_L1D TOTAL     ACCESS:   13999205  HIT:   13429794  MISS:     569411
cpu0_L1D LOAD      ACCESS:   12599683  HIT:   12136295  MISS:     463388
cpu0_L1D RFO       ACCESS:    1395897  HIT:    1290495  MISS:     105402
cpu0_L1D PREFETCH  ACCESS:          0  HIT:          0  MISS:          0
cpu0_L1D WRITEBACK ACCESS:          0  HIT:          0  MISS:          0
cpu0_L2C TOTAL     ACCESS:     731605  HIT:     316042  MISS:     415563
cpu0_L2C LOAD      ACCESS:     463462  HIT:     127818  MISS:     335644
cpu0_L2C RFO       ACCESS:     105402  HIT:      25514  MISS:      79888
cpu0_L2C PREFETCH  ACCESS:          0  HIT:          0  MISS:          0
cpu0_L2C WRITEBACK ACCESS:     162120  HIT:     162112  MISS:          8
LLC TOTAL     ACCESS:     533387  HIT:     291146  MISS:     242241
LLC LOAD      ACCESS:     335644  HIT:     140045  MISS:     195599
LLC RFO       ACCESS:      79888  HIT:      33511  MISS:      46377
LLC PREFETCH  ACCESS:          0  HIT:          0  MISS:          0
LLC WRITEBACK ACCESS:     117832  HIT:     117571  MISS:        261
Heartbeat CPU 0 instructions: 106000000 cycles: 60827810 heartbeat IPC: 1.23364 cumulative IPC: 1.34371 (Simulation time: 1 hr 51 min 27 sec) 

Region of Interest Statistics
cpu0_DTLB TOTAL     ACCESS:   12775735  HIT:   12763867  MISS:      11868
cpu0_DTLB LOAD      ACCESS:   11776990  HIT:   11767271  MISS:       9719
cpu0_DTLB RFO       ACCESS:     998745  HIT:     996596  MISS:       2149
cpu0_DTLB PREFETCH  ACCESS:          0  HIT:          0  MISS:          0
cpu0_DTLB WRITEBACK ACCESS:          0  HIT:          0  MISS:          0
cpu0_ITLB TOTAL     ACCESS:     428487  HIT:     428480  MISS:          7
cpu0_ITLB LOAD      ACCESS:     428487  HIT:     428480  MISS:          7
cpu0_ITLB RFO       ACCESS:          0  HIT:          0  MISS:          0
cpu0_ITLB PREFETCH  ACCESS:          0  HIT:          0  MISS:          0
cpu0_ITLB WRITEBACK ACCESS:          0  HIT:          0  MISS:          0
cpu0_L1I TOTAL     ACCESS:     304085  HIT:     303998  MISS:         87
cpu0_L1I LOAD      ACCESS:     304085  HIT:     303998  MISS:         87
cpu0_L1I RFO       ACCESS:          0  HIT:          0  MISS:          0
cpu0_L1I PREFETCH  ACCESS:          0  HIT:          0  MISS:          0
cpu0_L1I WRITEBACK ACCESS:          0  HIT:          0  MISS:          0
cpu0_STLB TOTAL     ACCESS:      11875  HIT:       7955  MISS:       3920
cpu0_STLB LOAD      ACCESS:       9726  HIT:       6638  MISS:       3088
cpu0_STLB RFO       ACCESS:       2149  HIT:       1317  MISS:        832
cpu0_STLB PREFETCH  ACCESS:          0  HIT:          0  MISS:          0
cpu0_STLB WRITEBACK ACCESS:          0  HIT:          0  MISS:          0
cpu0_L1D TOTAL     ACCESS:   14485748  HIT:   13894265  MISS:     591483
cpu0_L1D LOAD      ACCESS:   13080531  HIT:   12600588  MISS:     479943
cpu0_L1D RFO       ACCESS:    1401414  HIT:    1290495  MISS:     110919
cpu0_L1D PREFETCH  ACCESS:          0  HIT:          0  MISS:          0
cpu0_L1D WRITEBACK ACCESS:          0  HIT:          0  MISS:          0
cpu0_L2C TOTAL     ACCESS:     759190  HIT:     327392  MISS:     431798
cpu0_L2C LOAD      ACCESS:     480017  HIT:     133655  MISS:     346362
cpu0_L2C RFO       ACCESS:     110919  HIT:      25514  MISS:      85405
cpu0_L2C PREFETCH  ACCESS:          0  HIT:          0  MISS:          0
[...]
cpu0_DTLB WRITEBACK ACCESS:          0  HIT:          0  MISS:          0
cpu0_DTLB TRANSLATION ACCESS:          0  HIT:          0  MISS:          0
cpu0_DTLB PREFETCH  REQUESTED:          0  ISSUED:          0  USEFUL:          0  USELESS:          0
cpu0_DTLB AVERAGE MISS LATENCY: 22.9013 cycles
cpu0_ITLB TOTAL     ACCESS:   17953064  HIT:   17952994  MISS:         70
cpu0_ITLB LOAD      ACCESS:   17953064  HIT:   17952994  MISS:         70
cpu0_ITLB RFO       ACCESS:          0  HIT:          0  MISS:          0
cpu0_ITLB PREFETCH  ACCESS:          0  HIT:          0  MISS:          0
cpu0_ITLB WRITEBACK ACCESS:          0  HIT:          0  MISS:          0
cpu0_ITLB TRANSLATION ACCESS:          0  HIT:          0  MISS:          0
cpu0_ITLB PREFETCH  REQUESTED:          0  ISSUED:          0  USEFUL:          0  USELESS:          0
cpu0_ITLB AVERAGE MISS LATENCY: 198.7 cycles
cpu0_L1I TOTAL     ACCESS:   32013355  HIT:   32011912  MISS:       1443
cpu0_L1I LOAD      ACCESS:   32013355  HIT:   32011912  MISS:       1443
cpu0_L1I RFO       ACCESS:          0  HIT:          0  MISS:          0
cpu0_L1I PREFETCH  ACCESS:          0  HIT:          0  MISS:          0
cpu0_L1I WRITEBACK ACCESS:          0  HIT:          0  MISS:          0
cpu0_L1I TRANSLATION ACCESS:          0  HIT:          0  MISS:          0
cpu0_L1I PREFETCH  REQUESTED:          0  ISSUED:          0  USEFUL:          0  USELESS:          0
cpu0_L1I AVERAGE MISS LATENCY: 297.221 cycles
cpu0_STLB TOTAL     ACCESS:     359461  HIT:     194192  MISS:     165269
cpu0_STLB LOAD      ACCESS:     285839  HIT:     167336  MISS:     118503
cpu0_STLB RFO       ACCESS:      73622  HIT:      26856  MISS:      46766
cpu0_STLB PREFETCH  ACCESS:          0  HIT:          0  MISS:          0
cpu0_STLB WRITEBACK ACCESS:          0  HIT:          0  MISS:          0
cpu0_STLB TRANSLATION ACCESS:          0  HIT:          0  MISS:          0
cpu0_STLB PREFETCH  REQUESTED:          0  ISSUED:          0  USEFUL:          0  USELESS:          0
cpu0_STLB AVERAGE MISS LATENCY: 30.2531 cycles
cpu0_L1D TOTAL     ACCESS:  400503919  HIT:  385681875  MISS:   14822044
cpu0_L1D LOAD      ACCESS:  362440367  HIT:  351114472  MISS:   11325895
cpu0_L1D RFO       ACCESS:   37908277  HIT:   34432056  MISS:    3476221
cpu0_L1D PREFETCH  ACCESS:          0  HIT:          0  MISS:          0
cpu0_L1D WRITEBACK ACCESS:          0  HIT:          0  MISS:          0
cpu0_L1D TRANSLATION ACCESS:     155275  HIT:     135347  MISS:      19928
cpu0_L1D PREFETCH  REQUESTED:          0  ISSUED:          0  USEFUL:          0  USELESS:          0
cpu0_L1D AVERAGE MISS LATENCY: 203.806 cycles
cpu0_L2C TOTAL     ACCESS:   19381630  HIT:    8099214  MISS:   11282416
cpu0_L2C LOAD      ACCESS:   11327153  HIT:    2646989  MISS:    8680164
cpu0_L2C RFO       ACCESS:    3476125  HIT:     879747  MISS:    2596378
cpu0_L2C PREFETCH  ACCESS:          0  HIT:          0  MISS:          0
cpu0_L2C WRITEBACK ACCESS:    4558424  HIT:    4553113  MISS:       5311
cpu0_L2C TRANSLATION ACCESS:      19928  HIT:      19365  MISS:        563
cpu0_L2C PREFETCH  REQUESTED:          0  ISSUED:          0  USEFUL:          0  USELESS:          0
cpu0_L2C AVERAGE MISS LATENCY: 253.313 cycles
LLC TOTAL     ACCESS:   14646781  HIT:    5638602  MISS:    9008179
LLC LOAD      ACCESS:    8680162  HIT:    2010597  MISS:    6669565
LLC RFO       ACCESS:    2596378  HIT:     261139  MISS:    2335239
LLC PREFETCH  ACCESS:          0  HIT:          0  MISS:          0
LLC WRITEBACK ACCESS:    3369678  HIT:    3366414  MISS:       3264
LLC TRANSLATION ACCESS:        563  HIT:        452  MISS:        111
LLC PREFETCH  REQUESTED:          0  ISSUED:          0  USEFUL:          0  USELESS:          0
LLC AVERAGE MISS LATENCY: 290.975 cycles
~~~~~~~~~~Reuse Distance Profiler output~~~~~~~~~~
0	11561824	7026800
1	15283072	11654752
2	23109008	18654576
3	25927440	23998832
4	28414544	27463024
5	24534112	23846736
6	25037904	24252224
7	23556080	22734048
8	17954864	17246304
9	14921488	14434416
10	13475920	12796400
11	10974400	10265936
12	9039632	8358064
13	8322512	7535392
14	7622032	6812784
15	7418688	6517104
16	5802416	4963024
17	5861056	5237248
18	5156144	4524400
19	5425840	4972256
20	5180288	4730544
21	4591536	4069648
22	4895472	4495552
23	4411168	4130336
24	4711088	4371440
25	3657408	3395856
26	3626896	3393264
27	3105392	2869104
28	3010704	2776016
29	3612544	3357456
30	3509120	3269568
31	3374496	3120912
32	2482544	2276608
33	2845056	2646368
34	2817472	2658560
35	2071200	1892816
36	3163584	2980656
37	3927232	3583984
38	2287744	2179232
39	1650560	1545616
40	1848096	1640320
41	1732928	1567888
42	1769248	1625008
43	1814416	1702112
44	1608240	1393984
45	1623376	1483152
46	1640624	1554176
47	1575776	1498544
48	1238464	1146560
49	1451040	1369712
50	1234080	1147040
51	994112	848608
52	812048	683312
53	960848	886128
54	713392	567104
55	856320	754768
56	609216	516768
57	624576	566448
58	475760	428720
59	541456	433792
60	528912	489200
61	609152	571936
62	617392	552672
63	428240	359840
64	883744	780128
66	974624	856176
68	826160	750096
70	788144	715872
72	809328	749056
74	555904	494336
76	511936	447568
78	313760	283392
80	343488	300960
82	422576	398640
84	302064	263744
86	317760	293328
88	235312	223600
90	265664	245824
92	246848	239440
94	170256	163456
96	130304	126016
98	240240	192528
100	219888	214960
102	180464	177008
104	137024	133968
106	78128	75424
108	59792	56816
110	247392	245152
112	85840	83952
114	132592	130432
116	204496	202368
118	55648	53936
120	31264	29216
122	27776	25408
124	39008	37040
126	76720	75392
128	46432	44688
132	28944	27376
136	28560	27152
140	24864	23536
144	17632	16928
148	18896	18496
152	20144	19984
156	47088	47056
160	46608	46608
164	31536	31536
168	42592	42576
172	20112	20112
176	13072	13072
180	5872	5808
184	7632	5184
188	9248	3616
192	15344	8784
196	13568	9120
200	7280	3168
204	11168	6608
208	4400	2448
212	3728	3600
216	2256	2256
220	1200	1200
224	736	736
228	1152	1152
232	1104	1104
236	1296	1296
240	1072	1072
244	688	688
248	1072	1072
252	960	960
256	1696	1696
264	4512	4512
272	3600	3584
280	4464	4464
288	6912	6912
296	10464	10448
304	12512	12416
312	14576	14448
320	18624	18560
328	22176	22128
336	20480	20288
344	20400	18464
352	22576	18320
360	21696	18496
368	18496	18032
376	16944	16128
384	17968	14288
392	21952	18864
400	17152	15280
408	14832	14640
416	19104	19104
424	20384	20384
432	23520	23520
440	27056	27056
448	30528	30528
456	37856	37856
464	35536	35536
472	41504	41504
480	46624	46624
488	52992	52992
496	58176	58160
504	60240	60192
512	117696	117680
528	114000	113664
544	124528	119968
560	111536	109872
576	92192	91744
592	66448	63696
608	66112	62192
624	88480	86496
640	101664	101664
656	91152	91152
672	79680	79664
688	37536	37424
704	17904	17792
720	18992	18896
736	30848	29600
752	38112	36848
768	39232	38480
784	35984	35024
800	38496	36784
816	39264	38672
832	41968	41968
848	33248	33248
864	27904	27904
880	23216	23216
896	19920	19920
912	20880	20832
928	38608	38576
944	13712	13472
960	10768	10512
976	13152	12736
992	10592	10064
1008	8608	8032
1024	21392	19968
1056	20528	17056
1088	40864	39568
1120	26688	26672
1152	8400	8400
1184	14848	14816
1216	4768	4704
1248	66656	66192
1280	271664	269568
1312	15744	14608
1344	50672	48400
1376	31248	30400
1408	22368	20432
1440	10816	8944
1472	16288	13840
1504	10576	8816
1536	8000	7424
1568	4912	3680
1600	8032	6336
1632	11936	8016
1664	7920	7472
1696	8576	7136
1728	7232	5600
1760	7296	7296
1792	5136	5120
1824	6400	5856
1856	4960	4288
1888	11200	7200
1920	17472	15648
1952	15456	14896
1984	17968	16368
2016	17424	15152
2048	21840	21152
2112	8720	6976
2176	13680	8560
2240	8576	7728
2304	13232	10528
2368	16560	16080
2432	12528	8640
2496	10560	9664
2560	11664	7584
2624	17984	16672
2688	33152	28608
2752	20128	19024
2816	16560	15376
2880	24480	21472
2944	15552	12208
3008	16544	12144
3072	31904	20672
3136	41952	12544
3200	50928	17600
3264	45360	10992
3328	46704	15936
3392	58416	25872
3456	59168	19856
3520	46832	13648
3584	22672	11136
3648	20576	20144
3712	26896	24848
3776	23888	18608
3840	16320	16160
3904	13408	13408
3968	11056	10736
4032	23776	17488
4096	50560	50192
4224	54304	52336
4352	95456	90720
4480	87472	83824
4608	72096	65456
4736	80240	79792
4864	70672	67136
4992	89056	82304
5120	99888	96672
5248	82800	82720
5376	90272	90272
5504	74128	74128
5632	67360	67360
5760	67296	67296
5888	41712	39280
6016	31552	30720
6144	45856	42544
6272	15952	15792
6400	21344	20224
6528	47184	38192
6656	38896	32432
6784	49664	37520
6912	59152	45936
7040	41616	27136
7168	25056	15808
7296	13856	5264
7424	13904	5328
7552	19232	10288
7680	41232	32560
7808	63920	54640
7936	64624	55456
8064	47552	39152
8192	94288	78336
8448	94864	77696
8704	99200	83984
8960	106928	95648
9216	75088	69872
9472	38368	37760
9728	32640	31744
9984	53344	40288
10240	118368	51632
10496	114048	52176
10752	100784	45728
11008	122432	67296
11264	150192	94720
11520	133312	81600
11776	117840	74320
12032	109248	76016
12288	94368	72688
12544	83216	76240
12800	81872	80112
13056	63920	62800
13312	53776	51744
13568	59696	41520
13824	119376	77152
14080	141168	86864
14336	138464	81568
14592	150288	89920
14848	148816	86096
15104	135936	75520
15360	103376	60752
15616	75424	52304
15872	61088	42848
16128	47472	34432
16384	175840	75408
16896	107072	78992
17408	104704	60560
17920	91136	41408
18432	93360	30400
18944	75648	24688
19456	263584	172544
19968	293344	180656
20480	116672	60336
20992	25648	11696
21504	22224	11088
22016	12592	2688
22528	11744	976
23040	10272	4848
23552	242432	187632
24064	162560	119312
24576	2368	1632
25088	30432	11744
25600	256	256
26112	0	0
26624	96	96
27136	1584	1584
27648	112	112
28160	2928	2928
28672	1856	1856
29184	496	448
29696	2688	576
30208	1696	336
30720	512	480
31232	9552	5936
31744	8560	8560
32256	8896	8896
32768	17344	17344
33792	8976	8976
34816	0	0
35840	0	0
36864	96	96
37888	2048	1008
38912	4320	1584
39936	4944	1504
40960	1712	1712
41984	1488	1488
43008	208	208
44032	0	0
45056	0	0
46080	96	48
47104	26144	23792
48128	84896	82768
49152	5136	1472
50176	3472	1312
51200	3216	1840
52224	736	736
53248	272	64
54272	2400	0
55296	2768	0
56320	2144	336
57344	5968	1824
58368	7424	1600
59392	7344	2000
60416	3280	1840
61440	9856	2368
62464	8048	576
63488	4064	208
64512	3408	608
65536	9472	2560
67584	16384	6112
69632	6272	2832
71680	592	592
73728	32	0
75776	1280	752
77824	9680	3216
79872	3696	2752
81920	528	528
83968	16	16
86016	8896	5328
88064	7344	3056
90112	5312	2112
92160	144	144
94208	176	80
96256	6112	2400
98304	6704	2832
100352	1872	1840
102400	64	32
104448	2080	1072
106496	11248	5360
108544	7264	3024
110592	1104	976
112640	48	32
114688	880	800
116736	7552	2912
118784	5328	2576
120832	688	688
122880	96	32
124928	7792	4384
126976	7184	3440
129024	5984	2688
131072	368	320
135168	12224	4784
139264	2400	2368
143360	11440	6592
147456	10432	4592
151552	848	752
155648	14720	7328
159744	8768	8720
163840	291712	284272
167936	256144	252640
172032	4000	2144
176128	10352	5232
180224	1360	1216
184320	16112	7728
188416	3840	2144
192512	7888	3040
196608	8416	5152
200704	4272	2240
204800	16176	7088
208896	1360	864
212992	10608	4592
217088	4896	3104
221184	8960	4512
225280	11856	5536
229376	1152	960
233472	12832	5232
237568	2656	2416
241664	13504	6960
245760	9008	4176
249856	2592	1296
253952	12912	6144
258048	1472	1312
262144	23472	11456
270336	61840	26256
278528	47488	20656
286720	11808	4640
294912	14176	8816
303104	16416	10848
311296	9728	4336
319488	10304	5264
327680	3616	2224
335872	48928	48272
344064	415344	413936
352256	220128	219680
360448	1232	304
368640	2528	1232
376832	816	240
385024	3120	1616
393216	1920	640
401408	3616	912
409600	1712	1232
417792	352	224
425984	2960	1536
434176	464	272
442368	2448	1264
450560	576	464
458752	1616	640
466944	1824	1184
475136	448	272
483328	2880	1648
491520	224	176
499712	2656	1328
507904	816	640
516096	768	528
524288	3504	1984
540672	3856	2448
557056	3520	1936
573440	3760	2208
589824	3424	1840
606208	2224	1392
622592	2720	1744
638976	3360	2176
655360	3184	1696
671744	3616	2048
688128	3536	1904
704512	3120	1664
720896	3392	1552
737280	3728	2080
753664	3456	1920
770048	3904	2224
786432	4048	2336
802816	2912	1520
819200	2800	1664
835584	2960	1632
851968	3200	1856
868352	3888	2432
884736	3408	1920
901120	3472	2016
917504	2320	1408
933888	2448	1552
950272	3744	2128
966656	3504	1968
983040	4144	2432
999424	3664	2032
1015808	2768	1552
1032192	3152	2048
1048576	6384	3904
1081344	7408	4320
1114112	5744	3536
1146880	6816	3728
1179648	7056	4048
1212416	6304	3440
1245184	6576	3744
1277952	7424	4256
1310720	6640	3584
1343488	6352	3504
1376256	7136	4208
1409024	7616	4032
1441792	64592	62352
1474560	20960	18320
1507328	13792	10464
1540096	13088	10848
1572864	14688	11536
1605632	13472	10656
1638400	13456	10832
1671168	13120	9728
1703936	63568	60528
1736704	25872	23184
1769472	7360	4800
1802240	68048	65328
1835008	85152	82400
1867776	7024	4656
1900544	7888	4960
1933312	7872	5056
1966080	7040	4592
1998848	7952	4880
2031616	7216	4256
2064384	6896	4400
2097152	16800	10016
2162688	13888	8464
2228224	15120	9344
2293760	17712	11696
2359296	14000	9200
2424832	14224	9024
2490368	13152	8736
2555904	9744	6432
2621440	10032	6944
2686976	7120	5024
2752512	195376	193536
2818048	451696	450032
2883584	285520	283440
2949120	8224	6656
3014656	10176	8688
3080192	8896	7360
3145728	7600	5952
3211264	5616	4368
3276800	6080	4816
3342336	6272	4960
3407872	5584	4144
3473408	7056	5840
3538944	8048	6848
3604480	8128	7360
3670016	9328	8768
3735552	41104	40512
3801088	58624	58288
3866624	5056	4416
3932160	5152	4848
3997696	5120	4672
4063232	5184	4400
4128768	4336	4048
4194304	31040	30304
4325376	50816	50128
4456448	9248	8432
4587520	9056	8416
4718592	10624	9904
4849664	8608	7680
4980736	10752	10000
5111808	9728	9040
5242880	9712	9136
5373952	11776	11040
5505024	11088	10016
5636096	11888	10672
5767168	13552	12400
5898240	11296	10336
6029312	13552	12400
6160384	12688	11552
6291456	13152	11888
6422528	13952	12864
6553600	12832	11504
6684672	14352	13104
6815744	13760	12624
6946816	12176	10928
7077888	17664	15984
7208960	20432	19152
7340032	20624	19392
7471104	22144	20752
7602176	21120	19776
7733248	22736	21536
7864320	20384	19440
7995392	20688	19472
8126464	26848	25376
8257536	25056	23328
8388608	57904	54528
8650752	68752	65424
8912896	69776	66064
9175040	74992	70880
9437184	75488	72016
9699328	74224	70736
9961472	64192	61056
10223616	55136	52016
10485760	57920	54864
10747904	56656	52704
11010048	57520	53200
11272192	58352	54256
11534336	66336	62000
11796480	73808	68880
12058624	72176	67408
12320768	55408	51184
12582912	46224	42784
12845056	101664	98960
13107200	37216	33648
13369344	37792	33760
13631488	38128	34272
13893632	41408	37776
14155776	48624	44256
14417920	52992	48176
14680064	49088	43008
14942208	48864	43616
15204352	37232	32000
15466496	27536	22864
15728640	25616	20112
15990784	27952	21088
16252928	26176	18352
16515072	25616	16816
16777216	50544	37232
17301504	51904	35456
17825792	52656	35904
18350080	49264	32576
18874368	44272	27792
19398656	40656	25584
19922944	40912	25152
20447232	42720	28016
20971520	41760	28128
21495808	42384	27088
22020096	38992	24384
22544384	41216	26960
23068672	39728	26816
23592960	38336	26032
24117248	38000	24032
24641536	38544	25504
25165824	37776	23408
25690112	38704	25424
26214400	34560	21744
26738688	39536	25504
27262976	37696	22784
27787264	39728	22448
28311552	34592	19568
28835840	37088	22464
29360128	36352	21264
29884416	38816	23232
30408704	35392	19792
30932992	39648	23728
31457280	37216	21776
31981568	37408	22720
32505856	39488	21360
33030144	43280	23840
33554432	83584	45504
34603008	81456	44784
35651584	79184	45456
36700160	79472	44368
37748736	82832	49440
38797312	82560	48368
39845888	75968	44384
40894464	73296	39616
41943040	63792	31936
42991616	61536	28320
44040192	60560	29424
45088768	56928	28032
46137344	53856	26736
47185920	52400	26112
48234496	49136	24064
49283072	45296	22672
50331648	48368	21120
51380224	50768	20176
52428800	46464	17936
53477376	45952	16240
54525952	43904	17360
55574528	49648	19664
56623104	42464	16640
57671680	39376	16144
58720256	43168	17456
59768832	47056	22800
60817408	49264	23152
61865984	51328	26496
62914560	57344	28400
63963136	59136	30640
65011712	62416	35488
66060288	53648	35328
67108864	238144	170096
69206016	241920	207600
71303168	338032	300768
73400320	481808	415088
75497472	59616	40576
77594624	41872	26432
79691776	20512	15744
81788928	16720	14432
83886080	15600	13664
85983232	13328	12320
88080384	12320	11712
90177536	245920	184976
92274688	9024	8880
94371840	7904	7776
96468992	6784	6624
98566144	5312	5104
100663296	4064	3904
102760448	6416	3280
104857600	11776	2752
106954752	10176	1472
109051904	5456	1568
111149056	1360	1264
113246208	1440	1408
115343360	1408	1072
117440512	1232	1088
119537664	960	784
121634816	768	640
123731968	640	544
125829120	416	368
127926272	4208	320
130023424	176	128
132120576	48	0
134217728	2800	320
138412032	8992	816
142606336	4992	1280
146800640	17232	448
150994944	48	0
155189248	9264	5744
159383552	26352	11488
163577856	16	16
167772160	0	0
171966464	80	80
176160768	1776	1776
180355072	2464	2464
184549376	2000	2000
188743680	2304	2304
192937984	2288	2288
197132288	2448	2448
201326592	2320	2288
205520896	2448	2448
209715200	2496	2496
213909504	2144	2016
218103808	4624	336
222298112	1504	0
226492416	5584	320
230686720	250272	219440
234881024	112	112
239075328	0	0
243269632	0	0
247463936	0	0
251658240	0	0
255852544	0	0
260046848	0	0
264241152	0	0
268435456	0	0
276824064	0	0
285212672	0	0
293601280	0	0
301989888	14784	1968
310378496	15520	1392
318767104	1536	0
327155712	0	0
335544320	0	0
343932928	0	0
352321536	0	0
360710144	0	0
369098752	0	0
377487360	0	0
385875968	0	0
394264576	0	0
402653184	0	0
411041792	0	0
419430400	0	0
427819008	0	0
436207616	0	0
444596224	0	0
452984832	0	0
461373440	0	0
469762048	0	0
478150656	0	0
486539264	0	0
494927872	0	0
503316480	0	0
511705088	0	0
520093696	0	0
528482304	0	0
536870912	0	0
553648128	0	0
570425344	0	0
587202560	0	0
603979776	0	0
620756992	0	0
637534208	0	0
654311424	0	0
671088640	0	0
687865856	0	0
704643072	0	0
721420288	0	0
738197504	0	0
754974720	0	0
771751936	0	0
788529152	0	0
805306368	0	0
822083584	0	0
838860800	0	0
855638016	0	0
872415232	0	0
889192448	0	0
905969664	0	0
922746880	0	0
939524096	0	0
956301312	0	0
973078528	0	0
989855744	0	0
1006632960	0	0
1023410176	0	0
1040187392	0	0
1056964608	0	0
1073741824	0	0
1107296256	0	0
1140850688	0	0
1174405120	0	0
1207959552	0	0
1241513984	0	0
1275068416	0	0
1308622848	0	0
1342177280	0	0
1375731712	0	0
1409286144	0	0
1442840576	0	0
1476395008	0	0
1509949440	0	0
1543503872	0	0
1577058304	0	0
1610612736	0	0
1644167168	0	0
1677721600	0	0
1711276032	0	0
1744830464	0	0
1778384896	0	0
1811939328	0	0
1845493760	0	0
1879048192	0	0
1912602624	0	0
1946157056	0	0
1979711488	0	0
2013265920	0	0
2046820352	0	0
2080374784	0	0
2113929216	0	0
2147483648	0	0
2214592512	0	0
2281701376	0	0
2348810240	0	0
2415919104	0	0
2483027968	0	0
2550136832	0	0
2617245696	0	0
2684354560	0	0
2751463424	0	0
2818572288	0	0
2885681152	0	0
2952790016	0	0
3019898880	0	0
3087007744	0	0
3154116608	0	0
3221225472	0	0
3288334336	0	0
3355443200	0	0
3422552064	0	0
3489660928	0	0
3556769792	0	0
3623878656	0	0
3690987520	0	0
3758096384	0	0
3825205248	0	0
3892314112	0	0
3959422976	0	0
4026531840	0	0
4093640704	0	0
4160749568	0	0
4227858432	0	0
~~~~~~~~~~Reuse Distance Profiler output end~~~~~~~~~~

Sampler size:76713

DRAM Statistics
 CHANNEL 0
 RQ ROW_BUFFER_HIT:     427158  ROW_BUFFER_MISS:    8577527
 DBUS AVG_CONGESTED_CYCLE:    3.95338
 WQ ROW_BUFFER_HIT:     509746  ROW_BUFFER_MISS:    2572966  FULL:          0


CPU 0 Branch Prediction Accuracy: 98.2724% MPKI: 0.440688 Average ROB Occupancy at Mispredict: 311.182
Branch type MPKI
BRANCH_DIRECT_JUMP: 8.93333e-05
BRANCH_INDIRECT: 1.66667e-05
BRANCH_CONDITIONAL: 0.440311
BRANCH_DIRECT_CALL: 0.000136667
BRANCH_INDIRECT_CALL: 5.33333e-06
BRANCH_RETURN: 0.000128667

