
*** ChampSim Multicore Out-of-Order Simulator ***

Warmup Instructions: 50000000
Simulation Instructions: 1500000000
Number of CPUs: 1
Off-chip DRAM Size: 4 GiB Channels: 1 Width: 64-bit Data Rate: 3200 MT/s

VirtualMemory physical capacity: 8588881920 num_ppages: 2096895
VirtualMemory page size: 4096 log2_page_size: 12

CPU 0 runs /s/traces/champsim_traces/445.gobmk-17B.champsimtrace.xz
CPU 0 Bimodal branch predictor
Basic BTB sets: 1024 ways: 8 indirect buffer size: 4096 RAS size: 64
Initializing LRU.
Initializing LRU.
Initializing LRU.
Initializing LRU.
Initializing rdLRU.
Initializing LRU.
Initializing LRU.
Heartbeat CPU 0 instructions: 2000000 cycles: 509196 heartbeat IPC: 3.92776 cumulative IPC: 3.92776 (Simulation time: 0 hr 1 min 5 sec) 
Heartbeat CPU 0 instructions: 4000000 cycles: 1020554 heartbeat IPC: 3.91115 cumulative IPC: 3.91944 (Simulation time: 0 hr 2 min 8 sec) 
Heartbeat CPU 0 instructions: 6000000 cycles: 1528469 heartbeat IPC: 3.93767 cumulative IPC: 3.9255 (Simulation time: 0 hr 3 min 8 sec) 
Heartbeat CPU 0 instructions: 8000001 cycles: 2038166 heartbeat IPC: 3.9239 cumulative IPC: 3.9251 (Simulation time: 0 hr 4 min 6 sec) 
Heartbeat CPU 0 instructions: 10000001 cycles: 2543907 heartbeat IPC: 3.95459 cumulative IPC: 3.93096 (Simulation time: 0 hr 5 min 10 sec) 
Heartbeat CPU 0 instructions: 12000001 cycles: 3046601 heartbeat IPC: 3.97856 cumulative IPC: 3.93882 (Simulation time: 0 hr 6 min 12 sec) 
Heartbeat CPU 0 instructions: 14000001 cycles: 3550503 heartbeat IPC: 3.96903 cumulative IPC: 3.9431 (Simulation time: 0 hr 7 min 15 sec) 
Heartbeat CPU 0 instructions: 16000000 cycles: 4071743 heartbeat IPC: 3.837 cumulative IPC: 3.92952 (Simulation time: 0 hr 8 min 21 sec) 
Heartbeat CPU 0 instructions: 18000001 cycles: 4584377 heartbeat IPC: 3.90142 cumulative IPC: 3.92638 (Simulation time: 0 hr 9 min 26 sec) 
Heartbeat CPU 0 instructions: 20000002 cycles: 5095769 heartbeat IPC: 3.9109 cumulative IPC: 3.92483 (Simulation time: 0 hr 10 min 30 sec) 
Heartbeat CPU 0 instructions: 22000004 cycles: 5607190 heartbeat IPC: 3.91068 cumulative IPC: 3.92353 (Simulation time: 0 hr 11 min 32 sec) 
Heartbeat CPU 0 instructions: 24000001 cycles: 6123340 heartbeat IPC: 3.87484 cumulative IPC: 3.91943 (Simulation time: 0 hr 12 min 37 sec) 
Heartbeat CPU 0 instructions: 26000003 cycles: 6639514 heartbeat IPC: 3.87467 cumulative IPC: 3.91595 (Simulation time: 0 hr 13 min 43 sec) 
Heartbeat CPU 0 instructions: 28000000 cycles: 7152405 heartbeat IPC: 3.89946 cumulative IPC: 3.91477 (Simulation time: 0 hr 14 min 46 sec) 
Heartbeat CPU 0 instructions: 30000002 cycles: 7663836 heartbeat IPC: 3.9106 cumulative IPC: 3.91449 (Simulation time: 0 hr 15 min 50 sec) 
Heartbeat CPU 0 instructions: 32000000 cycles: 8177456 heartbeat IPC: 3.89393 cumulative IPC: 3.9132 (Simulation time: 0 hr 16 min 52 sec) 
Heartbeat CPU 0 instructions: 34000003 cycles: 8690059 heartbeat IPC: 3.90166 cumulative IPC: 3.91252 (Simulation time: 0 hr 17 min 57 sec) 
Heartbeat CPU 0 instructions: 36000000 cycles: 9204910 heartbeat IPC: 3.88461 cumulative IPC: 3.91096 (Simulation time: 0 hr 19 min 3 sec) 
Heartbeat CPU 0 instructions: 38000002 cycles: 9723788 heartbeat IPC: 3.85447 cumulative IPC: 3.90794 (Simulation time: 0 hr 20 min 9 sec) 
Heartbeat CPU 0 instructions: 40000001 cycles: 10240556 heartbeat IPC: 3.87021 cumulative IPC: 3.90604 (Simulation time: 0 hr 21 min 15 sec) 
Heartbeat CPU 0 instructions: 42000000 cycles: 10758323 heartbeat IPC: 3.86274 cumulative IPC: 3.90395 (Simulation time: 0 hr 22 min 21 sec) 
Heartbeat CPU 0 instructions: 44000000 cycles: 11273135 heartbeat IPC: 3.88491 cumulative IPC: 3.90308 (Simulation time: 0 hr 23 min 25 sec) 
Heartbeat CPU 0 instructions: 46000001 cycles: 11789041 heartbeat IPC: 3.87668 cumulative IPC: 3.90193 (Simulation time: 0 hr 24 min 30 sec) 
Heartbeat CPU 0 instructions: 48000002 cycles: 12300525 heartbeat IPC: 3.91019 cumulative IPC: 3.90227 (Simulation time: 0 hr 25 min 34 sec) 
Heartbeat CPU 0 instructions: 50000001 cycles: 12814033 heartbeat IPC: 3.89478 cumulative IPC: 3.90197 (Simulation time: 0 hr 26 min 32 sec) 

Warmup complete CPU 0 instructions: 50000001 cycles: 12814033 (Simulation time: 0 hr 26 min 32 sec) 

Heartbeat CPU 0 instructions: 52000002 cycles: 14851788 heartbeat IPC: 0.981473 cumulative IPC: 0.981473 (Simulation time: 0 hr 27 min 36 sec) 

Region of Interest Statistics
cpu0_DTLB TOTAL     ACCESS:     487066  HIT:     487016  MISS:         50
cpu0_DTLB LOAD      ACCESS:     300559  HIT:     300526  MISS:         33
cpu0_DTLB RFO       ACCESS:     186507  HIT:     186490  MISS:         17
cpu0_DTLB PREFETCH  ACCESS:          0  HIT:          0  MISS:          0
cpu0_DTLB WRITEBACK ACCESS:          0  HIT:          0  MISS:          0
cpu0_ITLB TOTAL     ACCESS:     169337  HIT:     169337  MISS:          0
cpu0_ITLB LOAD      ACCESS:     169337  HIT:     169337  MISS:          0
cpu0_ITLB RFO       ACCESS:          0  HIT:          0  MISS:          0
cpu0_ITLB PREFETCH  ACCESS:          0  HIT:          0  MISS:          0
cpu0_ITLB WRITEBACK ACCESS:          0  HIT:          0  MISS:          0
cpu0_L1I TOTAL     ACCESS:     207027  HIT:     204138  MISS:       2889
cpu0_L1I LOAD      ACCESS:     207027  HIT:     204138  MISS:       2889
cpu0_L1I RFO       ACCESS:          0  HIT:          0  MISS:          0
cpu0_L1I PREFETCH  ACCESS:          0  HIT:          0  MISS:          0
cpu0_L1I WRITEBACK ACCESS:          0  HIT:          0  MISS:          0
cpu0_STLB TOTAL     ACCESS:         50  HIT:         46  MISS:          4
cpu0_STLB LOAD      ACCESS:         33  HIT:         29  MISS:          4
cpu0_STLB RFO       ACCESS:         17  HIT:         17  MISS:          0
cpu0_STLB PREFETCH  ACCESS:          0  HIT:          0  MISS:          0
cpu0_STLB WRITEBACK ACCESS:          0  HIT:          0  MISS:          0
cpu0_L1D TOTAL     ACCESS:     638092  HIT:     636398  MISS:       1694
cpu0_L1D LOAD      ACCESS:     299152  HIT:     298520  MISS:        632
cpu0_L1D RFO       ACCESS:     338936  HIT:     337878  MISS:       1058
cpu0_L1D PREFETCH  ACCESS:          0  HIT:          0  MISS:          0
cpu0_L1D WRITEBACK ACCESS:          0  HIT:          0  MISS:          0
cpu0_L2C TOTAL     ACCESS:       5866  HIT:       5840  MISS:         26
cpu0_L2C LOAD      ACCESS:       3521  HIT:       3495  MISS:         26
cpu0_L2C RFO       ACCESS:       1058  HIT:       1058  MISS:          0
cpu0_L2C PREFETCH  ACCESS:          0  HIT:          0  MISS:          0
cpu0_L2C WRITEBACK ACCESS:       1283  HIT:       1283  MISS:          0
LLC TOTAL     ACCESS:         38  HIT:         12  MISS:         26
LLC LOAD      ACCESS:         26  HIT:          0  MISS:         26
LLC RFO       ACCESS:          0  HIT:          0  MISS:          0
LLC PREFETCH  ACCESS:          0  HIT:          0  MISS:          0
LLC WRITEBACK ACCESS:         12  HIT:         12  MISS:          0
Heartbeat CPU 0 instructions: 54000002 cycles: 16953591 heartbeat IPC: 0.951564 cumulative IPC: 0.966287 (Simulation time: 0 hr 28 min 39 sec) 

Region of Interest Statistics
cpu0_DTLB TOTAL     ACCESS:     974471  HIT:     974268  MISS:        203
cpu0_DTLB LOAD      ACCESS:     603276  HIT:     603117  MISS:        159
cpu0_DTLB RFO       ACCESS:     371195  HIT:     371151  MISS:         44
cpu0_DTLB PREFETCH  ACCESS:          0  HIT:          0  MISS:          0
cpu0_DTLB WRITEBACK ACCESS:          0  HIT:          0  MISS:          0
cpu0_ITLB TOTAL     ACCESS:     340914  HIT:     340914  MISS:          0
cpu0_ITLB LOAD      ACCESS:     340914  HIT:     340914  MISS:          0
cpu0_ITLB RFO       ACCESS:          0  HIT:          0  MISS:          0
cpu0_ITLB PREFETCH  ACCESS:          0  HIT:          0  MISS:          0
cpu0_ITLB WRITEBACK ACCESS:          0  HIT:          0  MISS:          0
cpu0_L1I TOTAL     ACCESS:     413640  HIT:     407190  MISS:       6450
cpu0_L1I LOAD      ACCESS:     413640  HIT:     407190  MISS:       6450
cpu0_L1I RFO       ACCESS:          0  HIT:          0  MISS:          0
cpu0_L1I PREFETCH  ACCESS:          0  HIT:          0  MISS:          0
cpu0_L1I WRITEBACK ACCESS:          0  HIT:          0  MISS:          0
cpu0_STLB TOTAL     ACCESS:        203  HIT:        194  MISS:          9
cpu0_STLB LOAD      ACCESS:        159  HIT:        150  MISS:          9
cpu0_STLB RFO       ACCESS:         44  HIT:         44  MISS:          0
cpu0_STLB PREFETCH  ACCESS:          0  HIT:          0  MISS:          0
cpu0_STLB WRITEBACK ACCESS:          0  HIT:          0  MISS:          0
cpu0_L1D TOTAL     ACCESS:    1272643  HIT:    1268856  MISS:       3787
cpu0_L1D LOAD      ACCESS:     600581  HIT:     599217  MISS:       1364
cpu0_L1D RFO       ACCESS:     672053  HIT:     669638  MISS:       2415
cpu0_L1D PREFETCH  ACCESS:          0  HIT:          0  MISS:          0
cpu0_L1D WRITEBACK ACCESS:          0  HIT:          0  MISS:          0
cpu0_L2C TOTAL     ACCESS:      13169  HIT:      13105  MISS:         64
cpu0_L2C LOAD      ACCESS:       7814  HIT:       7750  MISS:         64
cpu0_L2C RFO       ACCESS:       2415  HIT:       2415  MISS:          0
cpu0_L2C PREFETCH  ACCESS:          0  HIT:          0  MISS:          0
cpu0_L2C WRITEBACK ACCESS:       2932  HIT:       2932  MISS:          0
LLC TOTAL     ACCESS:         95  HIT:         31  MISS:         64
LLC LOAD      ACCESS:         64  HIT:          0  MISS:         64
LLC RFO       ACCESS:          0  HIT:          0  MISS:          0
LLC PREFETCH  ACCESS:          0  HIT:          0  MISS:          0
LLC WRITEBACK ACCESS:         31  HIT:         31  MISS:          0
Heartbeat CPU 0 instructions: 56000000 cycles: 19032407 heartbeat IPC: 0.962085 cumulative IPC: 0.964882 (Simulation time: 0 hr 29 min 41 sec) 

Region of Interest Statistics
cpu0_DTLB TOTAL     ACCESS:    1463219  HIT:    1462928  MISS:        291
cpu0_DTLB LOAD      ACCESS:     905500  HIT:     905267  MISS:        233
cpu0_DTLB RFO       ACCESS:     557719  HIT:     557661  MISS:         58
cpu0_DTLB PREFETCH  ACCESS:          0  HIT:          0  MISS:          0
cpu0_DTLB WRITEBACK ACCESS:          0  HIT:          0  MISS:          0
cpu0_ITLB TOTAL     ACCESS:     513352  HIT:     513352  MISS:          0
cpu0_ITLB LOAD      ACCESS:     513352  HIT:     513352  MISS:          0
cpu0_ITLB RFO       ACCESS:          0  HIT:          0  MISS:          0
cpu0_ITLB PREFETCH  ACCESS:          0  HIT:          0  MISS:          0
cpu0_ITLB WRITEBACK ACCESS:          0  HIT:          0  MISS:          0
cpu0_L1I TOTAL     ACCESS:     620507  HIT:     610937  MISS:       9570
cpu0_L1I LOAD      ACCESS:     620507  HIT:     610937  MISS:       9570
cpu0_L1I RFO       ACCESS:          0  HIT:          0  MISS:          0
cpu0_L1I PREFETCH  ACCESS:          0  HIT:          0  MISS:          0
cpu0_L1I WRITEBACK ACCESS:          0  HIT:          0  MISS:          0
cpu0_STLB TOTAL     ACCESS:        291  HIT:        282  MISS:          9
cpu0_STLB LOAD      ACCESS:        233  HIT:        224  MISS:          9
cpu0_STLB RFO       ACCESS:         58  HIT:         58  MISS:          0
cpu0_STLB PREFETCH  ACCESS:          0  HIT:          0  MISS:          0
cpu0_STLB WRITEBACK ACCESS:          0  HIT:          0  MISS:          0
cpu0_L1D TOTAL     ACCESS:    1911080  HIT:    1905693  MISS:       5387
cpu0_L1D LOAD      ACCESS:     900898  HIT:     898906  MISS:       1992
cpu0_L1D RFO       ACCESS:    1010173  HIT:    1006786  MISS:       3387
cpu0_L1D PREFETCH  ACCESS:          0  HIT:          0  MISS:          0
cpu0_L1D WRITEBACK ACCESS:          0  HIT:          0  MISS:          0
cpu0_L2C TOTAL     ACCESS:      19064  HIT:      18969  MISS:         95
cpu0_L2C LOAD      ACCESS:      11562  HIT:      11467  MISS:         95
cpu0_L2C RFO       ACCESS:       3387  HIT:       3387  MISS:          0
cpu0_L2C PREFETCH  ACCESS:          0  HIT:          0  MISS:          0
cpu0_L2C WRITEBACK ACCESS:       4107  HIT:       4107  MISS:          0
LLC TOTAL     ACCESS:        144  HIT:         51  MISS:         93
LLC LOAD      ACCESS:         95  HIT:          2  MISS:         93
LLC RFO       ACCESS:          0  HIT:          0  MISS:          0
LLC PREFETCH  ACCESS:          0  HIT:          0  MISS:          0
LLC WRITEBACK ACCESS:         49  HIT:         49  MISS:          0
Heartbeat CPU 0 instructions: 58000000 cycles: 21144830 heartbeat IPC: 0.94678 cumulative IPC: 0.960292 (Simulation time: 0 hr 30 min 41 sec) 

Region of Interest Statistics
cpu0_DTLB TOTAL     ACCESS:    1955705  HIT:    1955303  MISS:        402
cpu0_DTLB LOAD      ACCESS:    1211692  HIT:    1211359  MISS:        333
cpu0_DTLB RFO       ACCESS:     744013  HIT:     743944  MISS:         69
cpu0_DTLB PREFETCH  ACCESS:          0  HIT:          0  MISS:          0
cpu0_DTLB WRITEBACK ACCESS:          0  HIT:          0  MISS:          0
cpu0_ITLB TOTAL     ACCESS:     687562  HIT:     687562  MISS:          0
cpu0_ITLB LOAD      ACCESS:     687562  HIT:     687562  MISS:          0
cpu0_ITLB RFO       ACCESS:          0  HIT:          0  MISS:          0
cpu0_ITLB PREFETCH  ACCESS:          0  HIT:          0  MISS:          0
cpu0_ITLB WRITEBACK ACCESS:          0  HIT:          0  MISS:          0
cpu0_L1I TOTAL     ACCESS:     826062  HIT:     812589  MISS:      13473
cpu0_L1I LOAD      ACCESS:     826062  HIT:     812589  MISS:      13473
cpu0_L1I RFO       ACCESS:          0  HIT:          0  MISS:          0
cpu0_L1I PREFETCH  ACCESS:          0  HIT:          0  MISS:          0
cpu0_L1I WRITEBACK ACCESS:          0  HIT:          0  MISS:          0
cpu0_STLB TOTAL     ACCESS:        402  HIT:        391  MISS:         11
cpu0_STLB LOAD      ACCESS:        333  HIT:        322  MISS:         11
cpu0_STLB RFO       ACCESS:         69  HIT:         69  MISS:          0
cpu0_STLB PREFETCH  ACCESS:          0  HIT:          0  MISS:          0
cpu0_STLB WRITEBACK ACCESS:          0  HIT:          0  MISS:          0
cpu0_L1D TOTAL     ACCESS:    2550732  HIT:    2543782  MISS:       6950
cpu0_L1D LOAD      ACCESS:    1204746  HIT:    1202163  MISS:       2583
cpu0_L1D RFO       ACCESS:    1345975  HIT:    1341618  MISS:       4357
cpu0_L1D PREFETCH  ACCESS:          0  HIT:          0  MISS:          0
cpu0_L1D WRITEBACK ACCESS:          0  HIT:          0  MISS:          0
cpu0_L2C TOTAL     ACCESS:      25693  HIT:      25577  MISS:        116
cpu0_L2C LOAD      ACCESS:      16056  HIT:      15940  MISS:        116
cpu0_L2C RFO       ACCESS:       4357  HIT:       4357  MISS:          0
cpu0_L2C PREFETCH  ACCESS:          0  HIT:          0  MISS:          0
cpu0_L2C WRITEBACK ACCESS:       5270  HIT:       5270  MISS:          0
LLC TOTAL     ACCESS:        173  HIT:         60  MISS:        113
LLC LOAD      ACCESS:        116  HIT:          3  MISS:        113
LLC RFO       ACCESS:          0  HIT:          0  MISS:          0
LLC PREFETCH  ACCESS:          0  HIT:          0  MISS:          0
LLC WRITEBACK ACCESS:         57  HIT:         57  MISS:          0
Heartbeat CPU 0 instructions: 60000000 cycles: 23303070 heartbeat IPC: 0.926681 cumulative IPC: 0.953376 (Simulation time: 0 hr 31 min 39 sec) 

Region of Interest Statistics
cpu0_DTLB TOTAL     ACCESS:    2447164  HIT:    2446539  MISS:        625
cpu0_DTLB LOAD      ACCESS:    1520168  HIT:    1519628  MISS:        540
cpu0_DTLB RFO       ACCESS:     926996  HIT:     926911  MISS:         85
cpu0_DTLB PREFETCH  ACCESS:          0  HIT:          0  MISS:          0
cpu0_DTLB WRITEBACK ACCESS:          0  HIT:          0  MISS:          0
cpu0_ITLB TOTAL     ACCESS:     864491  HIT:     864491  MISS:          0
cpu0_ITLB LOAD      ACCESS:     864491  HIT:     864491  MISS:          0
cpu0_ITLB RFO       ACCESS:          0  HIT:          0  MISS:          0
cpu0_ITLB PREFETCH  ACCESS:          0  HIT:          0  MISS:          0
cpu0_ITLB WRITEBACK ACCESS:          0  HIT:          0  MISS:          0
cpu0_L1I TOTAL     ACCESS:    1032380  HIT:    1014563  MISS:      17817
cpu0_L1I LOAD      ACCESS:    1032380  HIT:    1014563  MISS:      17817
cpu0_L1I RFO       ACCESS:          0  HIT:          0  MISS:          0
cpu0_L1I PREFETCH  ACCESS:          0  HIT:          0  MISS:          0
cpu0_L1I WRITEBACK ACCESS:          0  HIT:          0  MISS:          0
cpu0_STLB TOTAL     ACCESS:        625  HIT:        613  MISS:         12
cpu0_STLB LOAD      ACCESS:        540  HIT:        528  MISS:         12
cpu0_STLB RFO       ACCESS:         85  HIT:         85  MISS:          0
cpu0_STLB PREFETCH  ACCESS:          0  HIT:          0  MISS:          0
cpu0_STLB WRITEBACK ACCESS:          0  HIT:          0  MISS:          0
cpu0_L1D TOTAL     ACCESS:    3187287  HIT:    3179000  MISS:       8287
cpu0_L1D LOAD      ACCESS:    1513364  HIT:    1510299  MISS:       3065
cpu0_L1D RFO       ACCESS:    1673911  HIT:    1668700  MISS:       5211
cpu0_L1D PREFETCH  ACCESS:          0  HIT:          0  MISS:          0
cpu0_L1D WRITEBACK ACCESS:          0  HIT:          0  MISS:          0
cpu0_L2C TOTAL     ACCESS:      32415  HIT:      32274  MISS:        141
cpu0_L2C LOAD      ACCESS:      20882  HIT:      20741  MISS:        141
cpu0_L2C RFO       ACCESS:       5211  HIT:       5211  MISS:          0
cpu0_L2C PREFETCH  ACCESS:          0  HIT:          0  MISS:          0
cpu0_L2C WRITEBACK ACCESS:       6311  HIT:       6311  MISS:          0
LLC TOTAL     ACCESS:        206  HIT:         71  MISS:        135
LLC LOAD      ACCESS:        141  HIT:          6  MISS:        135
LLC RFO       ACCESS:          0  HIT:          0  MISS:          0
LLC PREFETCH  ACCESS:          0  HIT:          0  MISS:          0
LLC WRITEBACK ACCESS:         65  HIT:         65  MISS:          0
Heartbeat CPU 0 instructions: 62000004 cycles: 25432838 heartbeat IPC: 0.939071 cumulative IPC: 0.950962 (Simulation time: 0 hr 32 min 42 sec) 

Region of Interest Statistics
cpu0_DTLB TOTAL     ACCESS:    2936580  HIT:    2935833  MISS:        747
cpu0_DTLB LOAD      ACCESS:    1827846  HIT:    1827193  MISS:        653
cpu0_DTLB RFO       ACCESS:    1108734  HIT:    1108640  MISS:         94
cpu0_DTLB PREFETCH  ACCESS:          0  HIT:          0  MISS:          0
cpu0_DTLB WRITEBACK ACCESS:          0  HIT:          0  MISS:          0
cpu0_ITLB TOTAL     ACCESS:    1041349  HIT:    1041349  MISS:          0
cpu0_ITLB LOAD      ACCESS:    1041349  HIT:    1041349  MISS:          0
cpu0_ITLB RFO       ACCESS:          0  HIT:          0  MISS:          0
cpu0_ITLB PREFETCH  ACCESS:          0  HIT:          0  MISS:          0
cpu0_ITLB WRITEBACK ACCESS:          0  HIT:          0  MISS:          0
cpu0_L1I TOTAL     ACCESS:    1235679  HIT:    1213433  MISS:      22246
cpu0_L1I LOAD      ACCESS:    1235679  HIT:    1213433  MISS:      22246
cpu0_L1I RFO       ACCESS:          0  HIT:          0  MISS:          0
cpu0_L1I PREFETCH  ACCESS:          0  HIT:          0  MISS:          0
cpu0_L1I WRITEBACK ACCESS:          0  HIT:          0  MISS:          0
cpu0_STLB TOTAL     ACCESS:        747  HIT:        735  MISS:         12
cpu0_STLB LOAD      ACCESS:        653  HIT:        641  MISS:         12
cpu0_STLB RFO       ACCESS:         94  HIT:         94  MISS:          0
cpu0_STLB PREFETCH  ACCESS:          0  HIT:          0  MISS:          0
cpu0_STLB WRITEBACK ACCESS:          0  HIT:          0  MISS:          0
cpu0_L1D TOTAL     ACCESS:    3820358  HIT:    3810665  MISS:       9693
cpu0_L1D LOAD      ACCESS:    1820389  HIT:    1816817  MISS:       3572
cpu0_L1D RFO       ACCESS:    1999957  HIT:    1993847  MISS:       6110
cpu0_L1D PREFETCH  ACCESS:          0  HIT:          0  MISS:          0
cpu0_L1D WRITEBACK ACCESS:          0  HIT:          0  MISS:          0
cpu0_L2C TOTAL     ACCESS:      39340  HIT:      39142  MISS:        198
cpu0_L2C LOAD      ACCESS:      25818  HIT:      25657  MISS:        161
cpu0_L2C RFO       ACCESS:       6110  HIT:       6073  MISS:         37
cpu0_L2C PREFETCH  ACCESS:          0  HIT:          0  MISS:          0
cpu0_L2C WRITEBACK ACCESS:       7401  HIT:       7401  MISS:          0
LLC TOTAL     ACCESS:        282  HIT:        114  MISS:        168
LLC LOAD      ACCESS:        161  HIT:         10  MISS:        151
LLC RFO       ACCESS:         37  HIT:         20  MISS:         17
LLC PREFETCH  ACCESS:          0  HIT:          0  MISS:          0
LLC WRITEBACK ACCESS:         84  HIT:         84  MISS:          0
Heartbeat CPU 0 instructions: 64000004 cycles: 27601759 heartbeat IPC: 0.922117 cumulative IPC: 0.946731 (Simulation time: 0 hr 33 min 42 sec) 

Region of Interest Statistics
cpu0_DTLB TOTAL     ACCESS:    3423261  HIT:    3422472  MISS:        789
cpu0_DTLB LOAD      ACCESS:    2137730  HIT:    2137037  MISS:        693
cpu0_DTLB RFO       ACCESS:    1285531  HIT:    1285435  MISS:         96
cpu0_DTLB PREFETCH  ACCESS:          0  HIT:          0  MISS:          0
cpu0_DTLB WRITEBACK ACCESS:          0  HIT:          0  MISS:          0
cpu0_ITLB TOTAL     ACCESS:    1220986  HIT:    1220986  MISS:          0
cpu0_ITLB LOAD      ACCESS:    1220986  HIT:    1220986  MISS:          0
cpu0_ITLB RFO       ACCESS:          0  HIT:          0  MISS:          0
cpu0_ITLB PREFETCH  ACCESS:          0  HIT:          0  MISS:          0
cpu0_ITLB WRITEBACK ACCESS:          0  HIT:          0  MISS:          0
cpu0_L1I TOTAL     ACCESS:    1438019  HIT:    1410245  MISS:      27774
cpu0_L1I LOAD      ACCESS:    1438019  HIT:    1410245  MISS:      27774
cpu0_L1I RFO       ACCESS:          0  HIT:          0  MISS:          0
cpu0_L1I PREFETCH  ACCESS:          0  HIT:          0  MISS:          0
cpu0_L1I WRITEBACK ACCESS:          0  HIT:          0  MISS:          0
cpu0_STLB TOTAL     ACCESS:        789  HIT:        777  MISS:         12
cpu0_STLB LOAD      ACCESS:        693  HIT:        681  MISS:         12
cpu0_STLB RFO       ACCESS:         96  HIT:         96  MISS:          0
cpu0_STLB PREFETCH  ACCESS:          0  HIT:          0  MISS:          0
cpu0_STLB WRITEBACK ACCESS:          0  HIT:          0  MISS:          0
cpu0_L1D TOTAL     ACCESS:    4446706  HIT:    4435420  MISS:      11286
cpu0_L1D LOAD      ACCESS:    2129408  HIT:    2125261  MISS:       4147
cpu0_L1D RFO       ACCESS:    2317286  HIT:    2310158  MISS:       7128
cpu0_L1D PREFETCH  ACCESS:          0  HIT:          0  MISS:          0
cpu0_L1D WRITEBACK ACCESS:          0  HIT:          0  MISS:          0
cpu0_L2C TOTAL     ACCESS:      47725  HIT:      47441  MISS:        284
cpu0_L2C LOAD      ACCESS:      31921  HIT:      31746  MISS:        175
cpu0_L2C RFO       ACCESS:       7128  HIT:       7019  MISS:        109
cpu0_L2C PREFETCH  ACCESS:          0  HIT:          0  MISS:          0
cpu0_L2C WRITEBACK ACCESS:       8665  HIT:       8665  MISS:          0
LLC TOTAL     ACCESS:        402  HIT:        184  MISS:        218
LLC LOAD      ACCESS:        175  HIT:         17  MISS:        158
LLC RFO       ACCESS:        109  HIT:         50  MISS:         59
LLC PREFETCH  ACCESS:          0  HIT:          0  MISS:          0
LLC WRITEBACK ACCESS:        118  HIT:        117  MISS:          1
Heartbeat CPU 0 instructions: 66000001 cycles: 29759358 heartbeat IPC: 0.926955 cumulative IPC: 0.944213 (Simulation time: 0 hr 34 min 41 sec) 

Region of Interest Statistics
cpu0_DTLB TOTAL     ACCESS:    3906086  HIT:    3905257  MISS:        829
cpu0_DTLB LOAD      ACCESS:    2446618  HIT:    2445887  MISS:        731
cpu0_DTLB RFO       ACCESS:    1459468  HIT:    1459370  MISS:         98
cpu0_DTLB PREFETCH  ACCESS:          0  HIT:          0  MISS:          0
cpu0_DTLB WRITEBACK ACCESS:          0  HIT:          0  MISS:          0
cpu0_ITLB TOTAL     ACCESS:    1400346  HIT:    1400346  MISS:          0
cpu0_ITLB LOAD      ACCESS:    1400346  HIT:    1400346  MISS:          0
cpu0_ITLB RFO       ACCESS:          0  HIT:          0  MISS:          0
cpu0_ITLB PREFETCH  ACCESS:          0  HIT:          0  MISS:          0
cpu0_ITLB WRITEBACK ACCESS:          0  HIT:          0  MISS:          0
cpu0_L1I TOTAL     ACCESS:    1642538  HIT:    1609740  MISS:      32798
cpu0_L1I LOAD      ACCESS:    1642538  HIT:    1609740  MISS:      32798
cpu0_L1I RFO       ACCESS:          0  HIT:          0  MISS:          0
cpu0_L1I PREFETCH  ACCESS:          0  HIT:          0  MISS:          0
cpu0_L1I WRITEBACK ACCESS:          0  HIT:          0  MISS:          0
cpu0_STLB TOTAL     ACCESS:        829  HIT:        817  MISS:         12
cpu0_STLB LOAD      ACCESS:        731  HIT:        719  MISS:         12
cpu0_STLB RFO       ACCESS:         98  HIT:         98  MISS:          0
cpu0_STLB PREFETCH  ACCESS:          0  HIT:          0  MISS:          0
cpu0_STLB WRITEBACK ACCESS:          0  HIT:          0  MISS:          0
cpu0_L1D TOTAL     ACCESS:    5069232  HIT:    5056293  MISS:      12939
cpu0_L1D LOAD      ACCESS:    2437206  HIT:    2432457  MISS:       4749
cpu0_L1D RFO       ACCESS:    2632014  HIT:    2623835  MISS:       8179
cpu0_L1D PREFETCH  ACCESS:          0  HIT:          0  MISS:          0
cpu0_L1D WRITEBACK ACCESS:          0  HIT:          0  MISS:          0
cpu0_L2C TOTAL     ACCESS:      55711  HIT:      55423  MISS:        288
cpu0_L2C LOAD      ACCESS:      37547  HIT:      37369  MISS:        178
cpu0_L2C RFO       ACCESS:       8179  HIT:       8069  MISS:        110
cpu0_L2C PREFETCH  ACCESS:          0  HIT:          0  MISS:          0
cpu0_L2C WRITEBACK ACCESS:       9974  HIT:       9974  MISS:          0
LLC TOTAL     ACCESS:        406  HIT:        184  MISS:        222
LLC LOAD      ACCESS:        178  HIT:         17  MISS:        161
LLC RFO       ACCESS:        110  HIT:         50  MISS:         60
LLC PREFETCH  ACCESS:          0  HIT:          0  MISS:          0
LLC WRITEBACK ACCESS:        118  HIT:        117  MISS:          1
Heartbeat CPU 0 instructions: 68000002 cycles: 31941203 heartbeat IPC: 0.916656 cumulative IPC: 0.94107 (Simulation time: 0 hr 35 min 40 sec) 

Region of Interest Statistics
cpu0_DTLB TOTAL     ACCESS:    4391574  HIT:    4390702  MISS:        872
cpu0_DTLB LOAD      ACCESS:    2758059  HIT:    2757287  MISS:        772
cpu0_DTLB RFO       ACCESS:    1633515  HIT:    1633415  MISS:        100
cpu0_DTLB PREFETCH  ACCESS:          0  HIT:          0  MISS:          0
cpu0_DTLB WRITEBACK ACCESS:          0  HIT:          0  MISS:          0
cpu0_ITLB TOTAL     ACCESS:    1580737  HIT:    1580737  MISS:          0
cpu0_ITLB LOAD      ACCESS:    1580737  HIT:    1580737  MISS:          0
cpu0_ITLB RFO       ACCESS:          0  HIT:          0  MISS:          0
cpu0_ITLB PREFETCH  ACCESS:          0  HIT:          0  MISS:          0
cpu0_ITLB WRITEBACK ACCESS:          0  HIT:          0  MISS:          0
cpu0_L1I TOTAL     ACCESS:    1844219  HIT:    1806122  MISS:      38097
cpu0_L1I LOAD      ACCESS:    1844219  HIT:    1806122  MISS:      38097
cpu0_L1I RFO       ACCESS:          0  HIT:          0  MISS:          0
cpu0_L1I PREFETCH  ACCESS:          0  HIT:          0  MISS:          0
cpu0_L1I WRITEBACK ACCESS:          0  HIT:          0  MISS:          0
cpu0_STLB TOTAL     ACCESS:        872  HIT:        860  MISS:         12
cpu0_STLB LOAD      ACCESS:        772  HIT:        760  MISS:         12
cpu0_STLB RFO       ACCESS:        100  HIT:        100  MISS:          0
cpu0_STLB PREFETCH  ACCESS:          0  HIT:          0  MISS:          0
cpu0_STLB WRITEBACK ACCESS:          0  HIT:          0  MISS:          0
cpu0_L1D TOTAL     ACCESS:    5692927  HIT:    5678515  MISS:      14412
cpu0_L1D LOAD      ACCESS:    2748733  HIT:    2743491  MISS:       5242
cpu0_L1D RFO       ACCESS:    2944182  HIT:    2935023  MISS:       9159
cpu0_L1D PREFETCH  ACCESS:          0  HIT:          0  MISS:          0
cpu0_L1D WRITEBACK ACCESS:          0  HIT:          0  MISS:          0
cpu0_L2C TOTAL     ACCESS:      63728  HIT:      63431  MISS:        297
cpu0_L2C LOAD      ACCESS:      43339  HIT:      43155  MISS:        184
cpu0_L2C RFO       ACCESS:       9159  HIT:       9046  MISS:        113
cpu0_L2C PREFETCH  ACCESS:          0  HIT:          0  MISS:          0
cpu0_L2C WRITEBACK ACCESS:      11219  HIT:      11219  MISS:          0
LLC TOTAL     ACCESS:        420  HIT:        188  MISS:        232
LLC LOAD      ACCESS:        184  HIT:         17  MISS:        167
LLC RFO       ACCESS:        113  HIT:         50  MISS:         63
LLC PREFETCH  ACCESS:          0  HIT:          0  MISS:          0
LLC WRITEBACK ACCESS:        123  HIT:        121  MISS:          2
Heartbeat CPU 0 instructions: 70000000 cycles: 34105000 heartbeat IPC: 0.9243 cumulative IPC: 0.939365 (Simulation time: 0 hr 36 min 41 sec) 

Region of Interest Statistics
cpu0_DTLB TOTAL     ACCESS:    4877618  HIT:    4876694  MISS:        924
cpu0_DTLB LOAD      ACCESS:    3067277  HIT:    3066456  MISS:        821
cpu0_DTLB RFO       ACCESS:    1810341  HIT:    1810238  MISS:        103
cpu0_DTLB PREFETCH  ACCESS:          0  HIT:          0  MISS:          0
cpu0_DTLB WRITEBACK ACCESS:          0  HIT:          0  MISS:          0
cpu0_ITLB TOTAL     ACCESS:    1759699  HIT:    1759699  MISS:          0
cpu0_ITLB LOAD      ACCESS:    1759699  HIT:    1759699  MISS:          0
cpu0_ITLB RFO       ACCESS:          0  HIT:          0  MISS:          0
cpu0_ITLB PREFETCH  ACCESS:          0  HIT:          0  MISS:          0
cpu0_ITLB WRITEBACK ACCESS:          0  HIT:          0  MISS:          0
cpu0_L1I TOTAL     ACCESS:    2047535  HIT:    2003956  MISS:      43579
cpu0_L1I LOAD      ACCESS:    2047535  HIT:    2003956  MISS:      43579
cpu0_L1I RFO       ACCESS:          0  HIT:          0  MISS:          0
cpu0_L1I PREFETCH  ACCESS:          0  HIT:          0  MISS:          0
cpu0_L1I WRITEBACK ACCESS:          0  HIT:          0  MISS:          0
cpu0_STLB TOTAL     ACCESS:        924  HIT:        911  MISS:         13
cpu0_STLB LOAD      ACCESS:        821  HIT:        808  MISS:         13
cpu0_STLB RFO       ACCESS:        103  HIT:        103  MISS:          0
cpu0_STLB PREFETCH  ACCESS:          0  HIT:          0  MISS:          0
cpu0_STLB WRITEBACK ACCESS:          0  HIT:          0  MISS:          0
cpu0_L1D TOTAL     ACCESS:    6319217  HIT:    6303145  MISS:      16072
cpu0_L1D LOAD      ACCESS:    3057594  HIT:    3051762  MISS:       5832
cpu0_L1D RFO       ACCESS:    3261610  HIT:    3251382  MISS:      10228
cpu0_L1D PREFETCH  ACCESS:          0  HIT:          0  MISS:          0
cpu0_L1D WRITEBACK ACCESS:          0  HIT:          0  MISS:          0
cpu0_L2C TOTAL     ACCESS:      72198  HIT:      71892  MISS:        306
cpu0_L2C LOAD      ACCESS:      49411  HIT:      49218  MISS:        193
cpu0_L2C RFO       ACCESS:      10228  HIT:      10115  MISS:        113
cpu0_L2C PREFETCH  ACCESS:          0  HIT:          0  MISS:          0
cpu0_L2C WRITEBACK ACCESS:      12547  HIT:      12547  MISS:          0
LLC TOTAL     ACCESS:        431  HIT:        196  MISS:        235
LLC LOAD      ACCESS:        193  HIT:         23  MISS:        170
LLC RFO       ACCESS:        113  HIT:         50  MISS:         63
LLC PREFETCH  ACCESS:          0  HIT:          0  MISS:          0
LLC WRITEBACK ACCESS:        125  HIT:        123  MISS:          2
Heartbeat CPU 0 instructions: 72000003 cycles: 36222783 heartbeat IPC: 0.944385 cumulative IPC: 0.93982 (Simulation time: 0 hr 37 min 43 sec) 

Region of Interest Statistics
cpu0_DTLB TOTAL     ACCESS:    5364801  HIT:    5363843  MISS:        958
cpu0_DTLB LOAD      ACCESS:    3374613  HIT:    3373765  MISS:        848
cpu0_DTLB RFO       ACCESS:    1990188  HIT:    1990078  MISS:        110
cpu0_DTLB PREFETCH  ACCESS:          0  HIT:          0  MISS:          0
cpu0_DTLB WRITEBACK ACCESS:          0  HIT:          0  MISS:          0
cpu0_ITLB TOTAL     ACCESS:    1938075  HIT:    1938075  MISS:          0
cpu0_ITLB LOAD      ACCESS:    1938075  HIT:    1938075  MISS:          0
cpu0_ITLB RFO       ACCESS:          0  HIT:          0  MISS:          0
cpu0_ITLB PREFETCH  ACCESS:          0  HIT:          0  MISS:          0
cpu0_ITLB WRITEBACK ACCESS:          0  HIT:          0  MISS:          0
cpu0_L1I TOTAL     ACCESS:    2248814  HIT:    2200356  MISS:      48458
cpu0_L1I LOAD      ACCESS:    2248814  HIT:    2200356  MISS:      48458
cpu0_L1I RFO       ACCESS:          0  HIT:          0  MISS:          0
cpu0_L1I PREFETCH  ACCESS:          0  HIT:          0  MISS:          0
cpu0_L1I WRITEBACK ACCESS:          0  HIT:          0  MISS:          0
cpu0_STLB TOTAL     ACCESS:        958  HIT:        944  MISS:         14
cpu0_STLB LOAD      ACCESS:        848  HIT:        835  MISS:         13
cpu0_STLB RFO       ACCESS:        110  HIT:        109  MISS:          1
cpu0_STLB PREFETCH  ACCESS:          0  HIT:          0  MISS:          0
cpu0_STLB WRITEBACK ACCESS:          0  HIT:          0  MISS:          0
cpu0_L1D TOTAL     ACCESS:    6949271  HIT:    6931687  MISS:      17584
cpu0_L1D LOAD      ACCESS:    3363632  HIT:    3357276  MISS:       6356
cpu0_L1D RFO       ACCESS:    3585625  HIT:    3574410  MISS:      11215
cpu0_L1D PREFETCH  ACCESS:          0  HIT:          0  MISS:          0
cpu0_L1D WRITEBACK ACCESS:          0  HIT:          0  MISS:          0
cpu0_L2C TOTAL     ACCESS:      79794  HIT:      79440  MISS:        354
cpu0_L2C LOAD      ACCESS:      54814  HIT:      54621  MISS:        193
cpu0_L2C RFO       ACCESS:      11214  HIT:      11053  MISS:        161
cpu0_L2C PREFETCH  ACCESS:          0  HIT:          0  MISS:          0
cpu0_L2C WRITEBACK ACCESS:      13753  HIT:      13753  MISS:          0
LLC TOTAL     ACCESS:        494  HIT:        212  MISS:        282
LLC LOAD      ACCESS:        193  HIT:         23  MISS:        170
LLC RFO       ACCESS:        161  HIT:         51  MISS:        110
LLC PREFETCH  ACCESS:          0  HIT:          0  MISS:          0
LLC WRITEBACK ACCESS:        140  HIT:        138  MISS:          2
Heartbeat CPU 0 instructions: 74000001 cycles: 38351747 heartbeat IPC: 0.939423 cumulative IPC: 0.939787 (Simulation time: 0 hr 38 min 44 sec) 

Region of Interest Statistics
cpu0_DTLB TOTAL     ACCESS:    5851864  HIT:    5850729  MISS:       1135
cpu0_DTLB LOAD      ACCESS:    3682840  HIT:    3681826  MISS:       1014
cpu0_DTLB RFO       ACCESS:    2169024  HIT:    2168903  MISS:        121
cpu0_DTLB PREFETCH  ACCESS:          0  HIT:          0  MISS:          0
cpu0_DTLB WRITEBACK ACCESS:          0  HIT:          0  MISS:          0
cpu0_ITLB TOTAL     ACCESS:    2115239  HIT:    2115239  MISS:          0
cpu0_ITLB LOAD      ACCESS:    2115239  HIT:    2115239  MISS:          0
cpu0_ITLB RFO       ACCESS:          0  HIT:          0  MISS:          0
cpu0_ITLB PREFETCH  ACCESS:          0  HIT:          0  MISS:          0
cpu0_ITLB WRITEBACK ACCESS:          0  HIT:          0  MISS:          0
cpu0_L1I TOTAL     ACCESS:    2451016  HIT:    2398200  MISS:      52816
cpu0_L1I LOAD      ACCESS:    2451016  HIT:    2398200  MISS:      52816
cpu0_L1I RFO       ACCESS:          0  HIT:          0  MISS:          0
cpu0_L1I PREFETCH  ACCESS:          0  HIT:          0  MISS:          0
cpu0_L1I WRITEBACK ACCESS:          0  HIT:          0  MISS:          0
cpu0_STLB TOTAL     ACCESS:       1135  HIT:       1120  MISS:         15
cpu0_STLB LOAD      ACCESS:       1014  HIT:       1000  MISS:         14
cpu0_STLB RFO       ACCESS:        121  HIT:        120  MISS:          1
cpu0_STLB PREFETCH  ACCESS:          0  HIT:          0  MISS:          0
cpu0_STLB WRITEBACK ACCESS:          0  HIT:          0  MISS:          0
cpu0_L1D TOTAL     ACCESS:    7579618  HIT:    7560288  MISS:      19330
cpu0_L1D LOAD      ACCESS:    3671567  HIT:    3664628  MISS:       6939
cpu0_L1D RFO       ACCESS:    3908036  HIT:    3895659  MISS:      12377
cpu0_L1D PREFETCH  ACCESS:          0  HIT:          0  MISS:          0
cpu0_L1D WRITEBACK ACCESS:          0  HIT:          0  MISS:          0
cpu0_L2C TOTAL     ACCESS:      87285  HIT:      86915  MISS:        370
cpu0_L2C LOAD      ACCESS:      59755  HIT:      59546  MISS:        209
cpu0_L2C RFO       ACCESS:      12376  HIT:      12215  MISS:        161
cpu0_L2C PREFETCH  ACCESS:          0  HIT:          0  MISS:          0
cpu0_L2C WRITEBACK ACCESS:      15140  HIT:      15140  MISS:          0
LLC TOTAL     ACCESS:        513  HIT:        216  MISS:        297
LLC LOAD      ACCESS:        209  HIT:         24  MISS:        185
LLC RFO       ACCESS:        161  HIT:         51  MISS:        110
LLC PREFETCH  ACCESS:          0  HIT:          0  MISS:          0
LLC WRITEBACK ACCESS:        143  HIT:        141  MISS:          2
Heartbeat CPU 0 instructions: 76000003 cycles: 40470427 heartbeat IPC: 0.943985 cumulative IPC: 0.940108 (Simulation time: 0 hr 39 min 43 sec) 

Region of Interest Statistics
cpu0_DTLB TOTAL     ACCESS:    6344795  HIT:    6343630  MISS:       1165
cpu0_DTLB LOAD      ACCESS:    3991763  HIT:    3990725  MISS:       1038
cpu0_DTLB RFO       ACCESS:    2353032  HIT:    2352905  MISS:        127
cpu0_DTLB PREFETCH  ACCESS:          0  HIT:          0  MISS:          0
cpu0_DTLB WRITEBACK ACCESS:          0  HIT:          0  MISS:          0
cpu0_ITLB TOTAL     ACCESS:    2292471  HIT:    2292471  MISS:          0
cpu0_ITLB LOAD      ACCESS:    2292471  HIT:    2292471  MISS:          0
cpu0_ITLB RFO       ACCESS:          0  HIT:          0  MISS:          0
cpu0_ITLB PREFETCH  ACCESS:          0  HIT:          0  MISS:          0
cpu0_ITLB WRITEBACK ACCESS:          0  HIT:          0  MISS:          0
cpu0_L1I TOTAL     ACCESS:    2655039  HIT:    2599120  MISS:      55919
cpu0_L1I LOAD      ACCESS:    2655039  HIT:    2599120  MISS:      55919
cpu0_L1I RFO       ACCESS:          0  HIT:          0  MISS:          0
cpu0_L1I PREFETCH  ACCESS:          0  HIT:          0  MISS:          0
cpu0_L1I WRITEBACK ACCESS:          0  HIT:          0  MISS:          0
cpu0_STLB TOTAL     ACCESS:       1165  HIT:       1150  MISS:         15
cpu0_STLB LOAD      ACCESS:       1038  HIT:       1024  MISS:         14
cpu0_STLB RFO       ACCESS:        127  HIT:        126  MISS:          1
cpu0_STLB PREFETCH  ACCESS:          0  HIT:          0  MISS:          0
cpu0_STLB WRITEBACK ACCESS:          0  HIT:          0  MISS:          0
cpu0_L1D TOTAL     ACCESS:    8218056  HIT:    8198156  MISS:      19900
cpu0_L1D LOAD      ACCESS:    3979711  HIT:    3972593  MISS:       7118
cpu0_L1D RFO       ACCESS:    4238330  HIT:    4225562  MISS:      12768
cpu0_L1D PREFETCH  ACCESS:          0  HIT:          0  MISS:          0
cpu0_L1D WRITEBACK ACCESS:          0  HIT:          0  MISS:          0
cpu0_L2C TOTAL     ACCESS:      91389  HIT:      91013  MISS:        376
cpu0_L2C LOAD      ACCESS:      63037  HIT:      62822  MISS:        215
cpu0_L2C RFO       ACCESS:      12767  HIT:      12606  MISS:        161
cpu0_L2C PREFETCH  ACCESS:          0  HIT:          0  MISS:          0
cpu0_L2C WRITEBACK ACCESS:      15571  HIT:      15571  MISS:          0
LLC TOTAL     ACCESS:        521  HIT:        218  MISS:        303
LLC LOAD      ACCESS:        215  HIT:         24  MISS:        191
LLC RFO       ACCESS:        161  HIT:         51  MISS:        110
LLC PREFETCH  ACCESS:          0  HIT:          0  MISS:          0
LLC WRITEBACK ACCESS:        145  HIT:        143  MISS:          2
Heartbeat CPU 0 instructions: 78000003 cycles: 42570974 heartbeat IPC: 0.952133 cumulative IPC: 0.940957 (Simulation time: 0 hr 40 min 43 sec) 

Region of Interest Statistics
cpu0_DTLB TOTAL     ACCESS:    6835966  HIT:    6834751  MISS:       1215
cpu0_DTLB LOAD      ACCESS:    4300195  HIT:    4299114  MISS:       1081
cpu0_DTLB RFO       ACCESS:    2535771  HIT:    2535637  MISS:        134
cpu0_DTLB PREFETCH  ACCESS:          0  HIT:          0  MISS:          0
cpu0_DTLB WRITEBACK ACCESS:          0  HIT:          0  MISS:          0
cpu0_ITLB TOTAL     ACCESS:    2468797  HIT:    2468797  MISS:          0
cpu0_ITLB LOAD      ACCESS:    2468797  HIT:    2468797  MISS:          0
cpu0_ITLB RFO       ACCESS:          0  HIT:          0  MISS:          0
cpu0_ITLB PREFETCH  ACCESS:          0  HIT:          0  MISS:          0
cpu0_ITLB WRITEBACK ACCESS:          0  HIT:          0  MISS:          0
cpu0_L1I TOTAL     ACCESS:    2858369  HIT:    2799229  MISS:      59140
cpu0_L1I LOAD      ACCESS:    2858369  HIT:    2799229  MISS:      59140
cpu0_L1I RFO       ACCESS:          0  HIT:          0  MISS:          0
cpu0_L1I PREFETCH  ACCESS:          0  HIT:          0  MISS:          0
cpu0_L1I WRITEBACK ACCESS:          0  HIT:          0  MISS:          0
cpu0_STLB TOTAL     ACCESS:       1215  HIT:       1199  MISS:         16
cpu0_STLB LOAD      ACCESS:       1081  HIT:       1066  MISS:         15
cpu0_STLB RFO       ACCESS:        134  HIT:        133  MISS:          1
cpu0_STLB PREFETCH  ACCESS:          0  HIT:          0  MISS:          0
cpu0_STLB WRITEBACK ACCESS:          0  HIT:          0  MISS:          0
cpu0_L1D TOTAL     ACCESS:    8853400  HIT:    8832312  MISS:      21088
cpu0_L1D LOAD      ACCESS:    4286336  HIT:    4278743  MISS:       7593
cpu0_L1D RFO       ACCESS:    4567048  HIT:    4553568  MISS:      13480
cpu0_L1D PREFETCH  ACCESS:          0  HIT:          0  MISS:          0
cpu0_L1D WRITEBACK ACCESS:          0  HIT:          0  MISS:          0
cpu0_L2C TOTAL     ACCESS:      96718  HIT:      96329  MISS:        389
cpu0_L2C LOAD      ACCESS:      66733  HIT:      66505  MISS:        228
cpu0_L2C RFO       ACCESS:      13479  HIT:      13318  MISS:        161
cpu0_L2C PREFETCH  ACCESS:          0  HIT:          0  MISS:          0
cpu0_L2C WRITEBACK ACCESS:      16491  HIT:      16491  MISS:          0
LLC TOTAL     ACCESS:        538  HIT:        222  MISS:        316
LLC LOAD      ACCESS:        228  HIT:         24  MISS:        204
LLC RFO       ACCESS:        161  HIT:         51  MISS:        110
LLC PREFETCH  ACCESS:          0  HIT:          0  MISS:          0
LLC WRITEBACK ACCESS:        149  HIT:        147  MISS:          2
Heartbeat CPU 0 instructions: 80000000 cycles: 44712290 heartbeat IPC: 0.934004 cumulative IPC: 0.94049 (Simulation time: 0 hr 41 min 44 sec) 

Region of Interest Statistics
cpu0_DTLB TOTAL     ACCESS:    7321803  HIT:    7320528  MISS:       1275
cpu0_DTLB LOAD      ACCESS:    4606937  HIT:    4605801  MISS:       1136
cpu0_DTLB RFO       ACCESS:    2714866  HIT:    2714727  MISS:        139
cpu0_DTLB PREFETCH  ACCESS:          0  HIT:          0  MISS:          0
cpu0_DTLB WRITEBACK ACCESS:          0  HIT:          0  MISS:          0
cpu0_ITLB TOTAL     ACCESS:    2647221  HIT:    2647221  MISS:          0
cpu0_ITLB LOAD      ACCESS:    2647221  HIT:    2647221  MISS:          0
cpu0_ITLB RFO       ACCESS:          0  HIT:          0  MISS:          0
cpu0_ITLB PREFETCH  ACCESS:          0  HIT:          0  MISS:          0
cpu0_ITLB WRITEBACK ACCESS:          0  HIT:          0  MISS:          0
cpu0_L1I TOTAL     ACCESS:    3062864  HIT:    2998966  MISS:      63898
cpu0_L1I LOAD      ACCESS:    3062864  HIT:    2998966  MISS:      63898
cpu0_L1I RFO       ACCESS:          0  HIT:          0  MISS:          0
cpu0_L1I PREFETCH  ACCESS:          0  HIT:          0  MISS:          0
cpu0_L1I WRITEBACK ACCESS:          0  HIT:          0  MISS:          0
cpu0_STLB TOTAL     ACCESS:       1275  HIT:       1259  MISS:         16
cpu0_STLB LOAD      ACCESS:       1136  HIT:       1121  MISS:         15
cpu0_STLB RFO       ACCESS:        139  HIT:        138  MISS:          1
cpu0_STLB PREFETCH  ACCESS:          0  HIT:          0  MISS:          0
cpu0_STLB WRITEBACK ACCESS:          0  HIT:          0  MISS:          0
cpu0_L1D TOTAL     ACCESS:    9481893  HIT:    9459405  MISS:      22488
cpu0_L1D LOAD      ACCESS:    4592505  HIT:    4584401  MISS:       8104
cpu0_L1D RFO       ACCESS:    4889372  HIT:    4875003  MISS:      14369
cpu0_L1D PREFETCH  ACCESS:          0  HIT:          0  MISS:          0
cpu0_L1D WRITEBACK ACCESS:          0  HIT:          0  MISS:          0
cpu0_L2C TOTAL     ACCESS:     103974  HIT:     103577  MISS:        397
cpu0_L2C LOAD      ACCESS:      72002  HIT:      71766  MISS:        236
cpu0_L2C RFO       ACCESS:      14368  HIT:      14207  MISS:        161
cpu0_L2C PREFETCH  ACCESS:          0  HIT:          0  MISS:          0
cpu0_L2C WRITEBACK ACCESS:      17589  HIT:      17589  MISS:          0
LLC TOTAL     ACCESS:        549  HIT:        225  MISS:        324
LLC LOAD      ACCESS:        236  HIT:         24  MISS:        212
LLC RFO       ACCESS:        161  HIT:         51  MISS:        110
LLC PREFETCH  ACCESS:          0  HIT:          0  MISS:          0
LLC WRITEBACK ACCESS:        152  HIT:        150  MISS:          2
Heartbeat CPU 0 instructions: 82000001 cycles: 46863284 heartbeat IPC: 0.929803 cumulative IPC: 0.939815 (Simulation time: 0 hr 42 min 46 sec) 

Region of Interest Statistics
cpu0_DTLB TOTAL     ACCESS:    7807799  HIT:    7806482  MISS:       1317
cpu0_DTLB LOAD      ACCESS:    4914813  HIT:    4913642  MISS:       1171
cpu0_DTLB RFO       ACCESS:    2892986  HIT:    2892840  MISS:        146
cpu0_DTLB PREFETCH  ACCESS:          0  HIT:          0  MISS:          0
cpu0_DTLB WRITEBACK ACCESS:          0  HIT:          0  MISS:          0
cpu0_ITLB TOTAL     ACCESS:    2826819  HIT:    2826819  MISS:          0
cpu0_ITLB LOAD      ACCESS:    2826819  HIT:    2826819  MISS:          0
cpu0_ITLB RFO       ACCESS:          0  HIT:          0  MISS:          0
cpu0_ITLB PREFETCH  ACCESS:          0  HIT:          0  MISS:          0
cpu0_ITLB WRITEBACK ACCESS:          0  HIT:          0  MISS:          0
cpu0_L1I TOTAL     ACCESS:    3263779  HIT:    3194492  MISS:      69287
cpu0_L1I LOAD      ACCESS:    3263779  HIT:    3194492  MISS:      69287
cpu0_L1I RFO       ACCESS:          0  HIT:          0  MISS:          0
cpu0_L1I PREFETCH  ACCESS:          0  HIT:          0  MISS:          0
cpu0_L1I WRITEBACK ACCESS:          0  HIT:          0  MISS:          0
cpu0_STLB TOTAL     ACCESS:       1317  HIT:       1301  MISS:         16
cpu0_STLB LOAD      ACCESS:       1171  HIT:       1156  MISS:         15
cpu0_STLB RFO       ACCESS:        146  HIT:        145  MISS:          1
cpu0_STLB PREFETCH  ACCESS:          0  HIT:          0  MISS:          0
cpu0_STLB WRITEBACK ACCESS:          0  HIT:          0  MISS:          0
cpu0_L1D TOTAL     ACCESS:   10107458  HIT:   10083228  MISS:      24230
cpu0_L1D LOAD      ACCESS:    4899037  HIT:    4890322  MISS:       8715
cpu0_L1D RFO       ACCESS:    5208405  HIT:    5192905  MISS:      15500
cpu0_L1D PREFETCH  ACCESS:          0  HIT:          0  MISS:          0
cpu0_L1D WRITEBACK ACCESS:          0  HIT:          0  MISS:          0
cpu0_L2C TOTAL     ACCESS:     112523  HIT:     112125  MISS:        398
cpu0_L2C LOAD      ACCESS:      78002  HIT:      77765  MISS:        237
cpu0_L2C RFO       ACCESS:      15499  HIT:      15338  MISS:        161
cpu0_L2C PREFETCH  ACCESS:          0  HIT:          0  MISS:          0
cpu0_L2C WRITEBACK ACCESS:      19007  HIT:      19007  MISS:          0
LLC TOTAL     ACCESS:        550  HIT:        225  MISS:        325
LLC LOAD      ACCESS:        237  HIT:         24  MISS:        213
LLC RFO       ACCESS:        161  HIT:         51  MISS:        110
LLC PREFETCH  ACCESS:          0  HIT:          0  MISS:          0
LLC WRITEBACK ACCESS:        152  HIT:        150  MISS:          2
Heartbeat CPU 0 instructions: 84000000 cycles: 49000923 heartbeat IPC: 0.935611 cumulative IPC: 0.939567 (Simulation time: 0 hr 43 min 46 sec) 

Region of Interest Statistics
cpu0_DTLB TOTAL     ACCESS:    8295213  HIT:    8293862  MISS:       1351
cpu0_DTLB LOAD      ACCESS:    5223623  HIT:    5222422  MISS:       1201
cpu0_DTLB RFO       ACCESS:    3071590  HIT:    3071440  MISS:        150
cpu0_DTLB PREFETCH  ACCESS:          0  HIT:          0  MISS:          0
cpu0_DTLB WRITEBACK ACCESS:          0  HIT:          0  MISS:          0
cpu0_ITLB TOTAL     ACCESS:    3005732  HIT:    3005732  MISS:          0
cpu0_ITLB LOAD      ACCESS:    3005732  HIT:    3005732  MISS:          0
cpu0_ITLB RFO       ACCESS:          0  HIT:          0  MISS:          0
cpu0_ITLB PREFETCH  ACCESS:          0  HIT:          0  MISS:          0
cpu0_ITLB WRITEBACK ACCESS:          0  HIT:          0  MISS:          0
cpu0_L1I TOTAL     ACCESS:    3464379  HIT:    3390081  MISS:      74298
cpu0_L1I LOAD      ACCESS:    3464379  HIT:    3390081  MISS:      74298
cpu0_L1I RFO       ACCESS:          0  HIT:          0  MISS:          0
cpu0_L1I PREFETCH  ACCESS:          0  HIT:          0  MISS:          0
cpu0_L1I WRITEBACK ACCESS:          0  HIT:          0  MISS:          0
cpu0_STLB TOTAL     ACCESS:       1351  HIT:       1335  MISS:         16
cpu0_STLB LOAD      ACCESS:       1201  HIT:       1186  MISS:         15
cpu0_STLB RFO       ACCESS:        150  HIT:        149  MISS:          1
cpu0_STLB PREFETCH  ACCESS:          0  HIT:          0  MISS:          0
cpu0_STLB WRITEBACK ACCESS:          0  HIT:          0  MISS:          0
cpu0_L1D TOTAL     ACCESS:   10736130  HIT:   10710355  MISS:      25775
cpu0_L1D LOAD      ACCESS:    5206338  HIT:    5197083  MISS:       9255
cpu0_L1D RFO       ACCESS:    5529776  HIT:    5513271  MISS:      16505
cpu0_L1D PREFETCH  ACCESS:          0  HIT:          0  MISS:          0
cpu0_L1D WRITEBACK ACCESS:          0  HIT:          0  MISS:          0
cpu0_L2C TOTAL     ACCESS:     120313  HIT:     119913  MISS:        400
cpu0_L2C LOAD      ACCESS:      83553  HIT:      83314  MISS:        239
cpu0_L2C RFO       ACCESS:      16504  HIT:      16343  MISS:        161
cpu0_L2C PREFETCH  ACCESS:          0  HIT:          0  MISS:          0
cpu0_L2C WRITEBACK ACCESS:      20241  HIT:      20241  MISS:          0
LLC TOTAL     ACCESS:        553  HIT:        226  MISS:        327
LLC LOAD      ACCESS:        239  HIT:         24  MISS:        215
LLC RFO       ACCESS:        161  HIT:         51  MISS:        110
LLC PREFETCH  ACCESS:          0  HIT:          0  MISS:          0
LLC WRITEBACK ACCESS:        153  HIT:        151  MISS:          2
Heartbeat CPU 0 instructions: 86000000 cycles: 51152664 heartbeat IPC: 0.92948 cumulative IPC: 0.939001 (Simulation time: 0 hr 44 min 46 sec) 

Region of Interest Statistics
cpu0_DTLB TOTAL     ACCESS:    8781674  HIT:    8780271  MISS:       1403
cpu0_DTLB LOAD      ACCESS:    5531778  HIT:    5530527  MISS:       1251
cpu0_DTLB RFO       ACCESS:    3249896  HIT:    3249744  MISS:        152
cpu0_DTLB PREFETCH  ACCESS:          0  HIT:          0  MISS:          0
cpu0_DTLB WRITEBACK ACCESS:          0  HIT:          0  MISS:          0
cpu0_ITLB TOTAL     ACCESS:    3184972  HIT:    3184972  MISS:          0
cpu0_ITLB LOAD      ACCESS:    3184972  HIT:    3184972  MISS:          0
cpu0_ITLB RFO       ACCESS:          0  HIT:          0  MISS:          0
cpu0_ITLB PREFETCH  ACCESS:          0  HIT:          0  MISS:          0
cpu0_ITLB WRITEBACK ACCESS:          0  HIT:          0  MISS:          0
cpu0_L1I TOTAL     ACCESS:    3667988  HIT:    3588527  MISS:      79461
cpu0_L1I LOAD      ACCESS:    3667988  HIT:    3588527  MISS:      79461
cpu0_L1I RFO       ACCESS:          0  HIT:          0  MISS:          0
cpu0_L1I PREFETCH  ACCESS:          0  HIT:          0  MISS:          0
cpu0_L1I WRITEBACK ACCESS:          0  HIT:          0  MISS:          0
cpu0_STLB TOTAL     ACCESS:       1403  HIT:       1386  MISS:         17
cpu0_STLB LOAD      ACCESS:       1251  HIT:       1235  MISS:         16
cpu0_STLB RFO       ACCESS:        152  HIT:        151  MISS:          1
cpu0_STLB PREFETCH  ACCESS:          0  HIT:          0  MISS:          0
cpu0_STLB WRITEBACK ACCESS:          0  HIT:          0  MISS:          0
cpu0_L1D TOTAL     ACCESS:   11364839  HIT:   11337333  MISS:      27506
cpu0_L1D LOAD      ACCESS:    5514433  HIT:    5504532  MISS:       9901
cpu0_L1D RFO       ACCESS:    5850389  HIT:    5832800  MISS:      17589
cpu0_L1D PREFETCH  ACCESS:          0  HIT:          0  MISS:          0
cpu0_L1D WRITEBACK ACCESS:          0  HIT:          0  MISS:          0
cpu0_L2C TOTAL     ACCESS:     128584  HIT:     128180  MISS:        404
cpu0_L2C LOAD      ACCESS:      89362  HIT:      89119  MISS:        243
cpu0_L2C RFO       ACCESS:      17588  HIT:      17427  MISS:        161
cpu0_L2C PREFETCH  ACCESS:          0  HIT:          0  MISS:          0
cpu0_L2C WRITEBACK ACCESS:      21618  HIT:      21618  MISS:          0
LLC TOTAL     ACCESS:        559  HIT:        228  MISS:        331
LLC LOAD      ACCESS:        243  HIT:         24  MISS:        219
LLC RFO       ACCESS:        161  HIT:         51  MISS:        110
LLC PREFETCH  ACCESS:          0  HIT:          0  MISS:          0
LLC WRITEBACK ACCESS:        155  HIT:        153  MISS:          2
Heartbeat CPU 0 instructions: 88000000 cycles: 53313274 heartbeat IPC: 0.925664 cumulative IPC: 0.938289 (Simulation time: 0 hr 45 min 46 sec) 

Region of Interest Statistics
cpu0_DTLB TOTAL     ACCESS:    9270280  HIT:    9268835  MISS:       1445
cpu0_DTLB LOAD      ACCESS:    5841383  HIT:    5840091  MISS:       1292
cpu0_DTLB RFO       ACCESS:    3428897  HIT:    3428744  MISS:        153
cpu0_DTLB PREFETCH  ACCESS:          0  HIT:          0  MISS:          0
cpu0_DTLB WRITEBACK ACCESS:          0  HIT:          0  MISS:          0
cpu0_ITLB TOTAL     ACCESS:    3364064  HIT:    3364064  MISS:          0
cpu0_ITLB LOAD      ACCESS:    3364064  HIT:    3364064  MISS:          0
cpu0_ITLB RFO       ACCESS:          0  HIT:          0  MISS:          0
cpu0_ITLB PREFETCH  ACCESS:          0  HIT:          0  MISS:          0
cpu0_ITLB WRITEBACK ACCESS:          0  HIT:          0  MISS:          0
cpu0_L1I TOTAL     ACCESS:    3871825  HIT:    3786839  MISS:      84986
cpu0_L1I LOAD      ACCESS:    3871825  HIT:    3786839  MISS:      84986
cpu0_L1I RFO       ACCESS:          0  HIT:          0  MISS:          0
cpu0_L1I PREFETCH  ACCESS:          0  HIT:          0  MISS:          0
cpu0_L1I WRITEBACK ACCESS:          0  HIT:          0  MISS:          0
cpu0_STLB TOTAL     ACCESS:       1445  HIT:       1428  MISS:         17
cpu0_STLB LOAD      ACCESS:       1292  HIT:       1276  MISS:         16
cpu0_STLB RFO       ACCESS:        153  HIT:        152  MISS:          1
cpu0_STLB PREFETCH  ACCESS:          0  HIT:          0  MISS:          0
cpu0_STLB WRITEBACK ACCESS:          0  HIT:          0  MISS:          0
cpu0_L1D TOTAL     ACCESS:   11996360  HIT:   11967351  MISS:      29009
cpu0_L1D LOAD      ACCESS:    5824106  HIT:    5813642  MISS:      10464
cpu0_L1D RFO       ACCESS:    6172237  HIT:    6153708  MISS:      18529
cpu0_L1D PREFETCH  ACCESS:          0  HIT:          0  MISS:          0
cpu0_L1D WRITEBACK ACCESS:          0  HIT:          0  MISS:          0
cpu0_L2C TOTAL     ACCESS:     136826  HIT:     136421  MISS:        405
cpu0_L2C LOAD      ACCESS:      95450  HIT:      95206  MISS:        244
cpu0_L2C RFO       ACCESS:      18528  HIT:      18367  MISS:        161
cpu0_L2C PREFETCH  ACCESS:          0  HIT:          0  MISS:          0
cpu0_L2C WRITEBACK ACCESS:      22832  HIT:      22832  MISS:          0
LLC TOTAL     ACCESS:        561  HIT:        229  MISS:        332
LLC LOAD      ACCESS:        244  HIT:         24  MISS:        220
LLC RFO       ACCESS:        161  HIT:         51  MISS:        110
LLC PREFETCH  ACCESS:          0  HIT:          0  MISS:          0
LLC WRITEBACK ACCESS:        156  HIT:        154  MISS:          2
Heartbeat CPU 0 instructions: 90000000 cycles: 55462588 heartbeat IPC: 0.930529 cumulative IPC: 0.937898 (Simulation time: 0 hr 46 min 45 sec) 

Region of Interest Statistics
cpu0_DTLB TOTAL     ACCESS:    9757736  HIT:    9756124  MISS:       1612
cpu0_DTLB LOAD      ACCESS:    6150176  HIT:    6148730  MISS:       1446
cpu0_DTLB RFO       ACCESS:    3607560  HIT:    3607394  MISS:        166
cpu0_DTLB PREFETCH  ACCESS:          0  HIT:          0  MISS:          0
cpu0_DTLB WRITEBACK ACCESS:          0  HIT:          0  MISS:          0
cpu0_ITLB TOTAL     ACCESS:    3543349  HIT:    3543349  MISS:          0
cpu0_ITLB LOAD      ACCESS:    3543349  HIT:    3543349  MISS:          0
cpu0_ITLB RFO       ACCESS:          0  HIT:          0  MISS:          0
cpu0_ITLB PREFETCH  ACCESS:          0  HIT:          0  MISS:          0
cpu0_ITLB WRITEBACK ACCESS:          0  HIT:          0  MISS:          0
cpu0_L1I TOTAL     ACCESS:    4072150  HIT:    3982135  MISS:      90015
cpu0_L1I LOAD      ACCESS:    4072150  HIT:    3982135  MISS:      90015
cpu0_L1I RFO       ACCESS:          0  HIT:          0  MISS:          0
cpu0_L1I PREFETCH  ACCESS:          0  HIT:          0  MISS:          0
cpu0_L1I WRITEBACK ACCESS:          0  HIT:          0  MISS:          0
cpu0_STLB TOTAL     ACCESS:       1612  HIT:       1594  MISS:         18
cpu0_STLB LOAD      ACCESS:       1446  HIT:       1429  MISS:         17
cpu0_STLB RFO       ACCESS:        166  HIT:        165  MISS:          1
cpu0_STLB PREFETCH  ACCESS:          0  HIT:          0  MISS:          0
cpu0_STLB WRITEBACK ACCESS:          0  HIT:          0  MISS:          0
cpu0_L1D TOTAL     ACCESS:   12625002  HIT:   12594215  MISS:      30787
cpu0_L1D LOAD      ACCESS:    6132304  HIT:    6121196  MISS:      11108
cpu0_L1D RFO       ACCESS:    6492680  HIT:    6473018  MISS:      19662
cpu0_L1D PREFETCH  ACCESS:          0  HIT:          0  MISS:          0
cpu0_L1D WRITEBACK ACCESS:          0  HIT:          0  MISS:          0
cpu0_L2C TOTAL     ACCESS:     145044  HIT:     144629  MISS:        415
cpu0_L2C LOAD      ACCESS:     101123  HIT:     100869  MISS:        254
cpu0_L2C RFO       ACCESS:      19661  HIT:      19500  MISS:        161
cpu0_L2C PREFETCH  ACCESS:          0  HIT:          0  MISS:          0
cpu0_L2C WRITEBACK ACCESS:      24243  HIT:      24243  MISS:          0
LLC TOTAL     ACCESS:        576  HIT:        234  MISS:        342
LLC LOAD      ACCESS:        254  HIT:         24  MISS:        230
LLC RFO       ACCESS:        161  HIT:         51  MISS:        110
LLC PREFETCH  ACCESS:          0  HIT:          0  MISS:          0
LLC WRITEBACK ACCESS:        161  HIT:        159  MISS:          2
Heartbeat CPU 0 instructions: 92000002 cycles: 57573502 heartbeat IPC: 0.947458 cumulative IPC: 0.938349 (Simulation time: 0 hr 47 min 44 sec) 

Region of Interest Statistics
cpu0_DTLB TOTAL     ACCESS:   10249565  HIT:   10247922  MISS:       1643
cpu0_DTLB LOAD      ACCESS:    6457764  HIT:    6456292  MISS:       1472
cpu0_DTLB RFO       ACCESS:    3791801  HIT:    3791630  MISS:        171
cpu0_DTLB PREFETCH  ACCESS:          0  HIT:          0  MISS:          0
cpu0_DTLB WRITEBACK ACCESS:          0  HIT:          0  MISS:          0
cpu0_ITLB TOTAL     ACCESS:    3720513  HIT:    3720513  MISS:          0
cpu0_ITLB LOAD      ACCESS:    3720513  HIT:    3720513  MISS:          0
cpu0_ITLB RFO       ACCESS:          0  HIT:          0  MISS:          0
cpu0_ITLB PREFETCH  ACCESS:          0  HIT:          0  MISS:          0
cpu0_ITLB WRITEBACK ACCESS:          0  HIT:          0  MISS:          0
cpu0_L1I TOTAL     ACCESS:    4277343  HIT:    4184035  MISS:      93308
cpu0_L1I LOAD      ACCESS:    4277343  HIT:    4184035  MISS:      93308
cpu0_L1I RFO       ACCESS:          0  HIT:          0  MISS:          0
cpu0_L1I PREFETCH  ACCESS:          0  HIT:          0  MISS:          0
cpu0_L1I WRITEBACK ACCESS:          0  HIT:          0  MISS:          0
cpu0_STLB TOTAL     ACCESS:       1643  HIT:       1625  MISS:         18
cpu0_STLB LOAD      ACCESS:       1472  HIT:       1455  MISS:         17
cpu0_STLB RFO       ACCESS:        171  HIT:        170  MISS:          1
cpu0_STLB PREFETCH  ACCESS:          0  HIT:          0  MISS:          0
cpu0_STLB WRITEBACK ACCESS:          0  HIT:          0  MISS:          0
cpu0_L1D TOTAL     ACCESS:   13263376  HIT:   13231682  MISS:      31694
cpu0_L1D LOAD      ACCESS:    6439206  HIT:    6427845  MISS:      11361
cpu0_L1D RFO       ACCESS:    6824152  HIT:    6803836  MISS:      20316
cpu0_L1D PREFETCH  ACCESS:          0  HIT:          0  MISS:          0
cpu0_L1D WRITEBACK ACCESS:          0  HIT:          0  MISS:          0
cpu0_L2C TOTAL     ACCESS:     149951  HIT:     149528  MISS:        423
cpu0_L2C LOAD      ACCESS:     104669  HIT:     104407  MISS:        262
cpu0_L2C RFO       ACCESS:      20315  HIT:      20154  MISS:        161
cpu0_L2C PREFETCH  ACCESS:          0  HIT:          0  MISS:          0
cpu0_L2C WRITEBACK ACCESS:      24950  HIT:      24950  MISS:          0
LLC TOTAL     ACCESS:        588  HIT:        238  MISS:        350
LLC LOAD      ACCESS:        262  HIT:         24  MISS:        238
LLC RFO       ACCESS:        161  HIT:         51  MISS:        110
LLC PREFETCH  ACCESS:          0  HIT:          0  MISS:          0
LLC WRITEBACK ACCESS:        165  HIT:        163  MISS:          2
Heartbeat CPU 0 instructions: 94000001 cycles: 59663786 heartbeat IPC: 0.956807 cumulative IPC: 0.939173 (Simulation time: 0 hr 48 min 45 sec) 

Region of Interest Statistics
cpu0_DTLB TOTAL     ACCESS:   10737147  HIT:   10735483  MISS:       1664
cpu0_DTLB LOAD      ACCESS:    6764435  HIT:    6762944  MISS:       1491
cpu0_DTLB RFO       ACCESS:    3972712  HIT:    3972539  MISS:        173
cpu0_DTLB PREFETCH  ACCESS:          0  HIT:          0  MISS:          0
cpu0_DTLB WRITEBACK ACCESS:          0  HIT:          0  MISS:          0
cpu0_ITLB TOTAL     ACCESS:    3896806  HIT:    3896806  MISS:          0
cpu0_ITLB LOAD      ACCESS:    3896806  HIT:    3896806  MISS:          0
cpu0_ITLB RFO       ACCESS:          0  HIT:          0  MISS:          0
cpu0_ITLB PREFETCH  ACCESS:          0  HIT:          0  MISS:          0
cpu0_ITLB WRITEBACK ACCESS:          0  HIT:          0  MISS:          0
cpu0_L1I TOTAL     ACCESS:    4481713  HIT:    4385286  MISS:      96427
cpu0_L1I LOAD      ACCESS:    4481713  HIT:    4385286  MISS:      96427
cpu0_L1I RFO       ACCESS:          0  HIT:          0  MISS:          0
cpu0_L1I PREFETCH  ACCESS:          0  HIT:          0  MISS:          0
cpu0_L1I WRITEBACK ACCESS:          0  HIT:          0  MISS:          0
cpu0_STLB TOTAL     ACCESS:       1664  HIT:       1645  MISS:         19
cpu0_STLB LOAD      ACCESS:       1491  HIT:       1473  MISS:         18
cpu0_STLB RFO       ACCESS:        173  HIT:        172  MISS:          1
cpu0_STLB PREFETCH  ACCESS:          0  HIT:          0  MISS:          0
cpu0_STLB WRITEBACK ACCESS:          0  HIT:          0  MISS:          0
cpu0_L1D TOTAL     ACCESS:   13895434  HIT:   13863019  MISS:      32415
cpu0_L1D LOAD      ACCESS:    6743858  HIT:    6732293  MISS:      11565
cpu0_L1D RFO       ACCESS:    7151557  HIT:    7130725  MISS:      20832
cpu0_L1D PREFETCH  ACCESS:          0  HIT:          0  MISS:          0
cpu0_L1D WRITEBACK ACCESS:          0  HIT:          0  MISS:          0
cpu0_L2C TOTAL     ACCESS:     154443  HIT:     154016  MISS:        427
cpu0_L2C LOAD      ACCESS:     107992  HIT:     107726  MISS:        266
cpu0_L2C RFO       ACCESS:      20831  HIT:      20670  MISS:        161
cpu0_L2C PREFETCH  ACCESS:          0  HIT:          0  MISS:          0
cpu0_L2C WRITEBACK ACCESS:      25602  HIT:      25602  MISS:          0
LLC TOTAL     ACCESS:        594  HIT:        240  MISS:        354
LLC LOAD      ACCESS:        266  HIT:         24  MISS:        242
LLC RFO       ACCESS:        161  HIT:         51  MISS:        110
LLC PREFETCH  ACCESS:          0  HIT:          0  MISS:          0
LLC WRITEBACK ACCESS:        167  HIT:        165  MISS:          2
Heartbeat CPU 0 instructions: 96000000 cycles: 61775290 heartbeat IPC: 0.947192 cumulative IPC: 0.939518 (Simulation time: 0 hr 49 min 48 sec) 

Region of Interest Statistics
cpu0_DTLB TOTAL     ACCESS:   11230007  HIT:   11228193  MISS:       1814
cpu0_DTLB LOAD      ACCESS:    7070128  HIT:    7068500  MISS:       1628
cpu0_DTLB RFO       ACCESS:    4159879  HIT:    4159693  MISS:        186
cpu0_DTLB PREFETCH  ACCESS:          0  HIT:          0  MISS:          0
cpu0_DTLB WRITEBACK ACCESS:          0  HIT:          0  MISS:          0
cpu0_ITLB TOTAL     ACCESS:    4070685  HIT:    4070685  MISS:          0
cpu0_ITLB LOAD      ACCESS:    4070685  HIT:    4070685  MISS:          0
cpu0_ITLB RFO       ACCESS:          0  HIT:          0  MISS:          0
cpu0_ITLB PREFETCH  ACCESS:          0  HIT:          0  MISS:          0
cpu0_ITLB WRITEBACK ACCESS:          0  HIT:          0  MISS:          0
cpu0_L1I TOTAL     ACCESS:    4687269  HIT:    4587173  MISS:     100096
cpu0_L1I LOAD      ACCESS:    4687269  HIT:    4587173  MISS:     100096
cpu0_L1I RFO       ACCESS:          0  HIT:          0  MISS:          0
cpu0_L1I PREFETCH  ACCESS:          0  HIT:          0  MISS:          0
cpu0_L1I WRITEBACK ACCESS:          0  HIT:          0  MISS:          0
cpu0_STLB TOTAL     ACCESS:       1814  HIT:       1794  MISS:         20
cpu0_STLB LOAD      ACCESS:       1628  HIT:       1609  MISS:         19
cpu0_STLB RFO       ACCESS:        186  HIT:        185  MISS:          1
cpu0_STLB PREFETCH  ACCESS:          0  HIT:          0  MISS:          0
cpu0_STLB WRITEBACK ACCESS:          0  HIT:          0  MISS:          0
cpu0_L1D TOTAL     ACCESS:   14535681  HIT:   14501920  MISS:      33761
cpu0_L1D LOAD      ACCESS:    7048556  HIT:    7036448  MISS:      12108
cpu0_L1D RFO       ACCESS:    7487105  HIT:    7465471  MISS:      21634
cpu0_L1D PREFETCH  ACCESS:          0  HIT:          0  MISS:          0
cpu0_L1D WRITEBACK ACCESS:          0  HIT:          0  MISS:          0
cpu0_L2C TOTAL     ACCESS:     160529  HIT:     160083  MISS:        446
cpu0_L2C LOAD      ACCESS:     112204  HIT:     111919  MISS:        285
cpu0_L2C RFO       ACCESS:      21633  HIT:      21472  MISS:        161
cpu0_L2C PREFETCH  ACCESS:          0  HIT:          0  MISS:          0
cpu0_L2C WRITEBACK ACCESS:      26673  HIT:      26673  MISS:          0
LLC TOTAL     ACCESS:        621  HIT:        248  MISS:        373
LLC LOAD      ACCESS:        285  HIT:         24  MISS:        261
LLC RFO       ACCESS:        161  HIT:         51  MISS:        110
LLC PREFETCH  ACCESS:          0  HIT:          0  MISS:          0
LLC WRITEBACK ACCESS:        175  HIT:        173  MISS:          2
Heartbeat CPU 0 instructions: 98000001 cycles: 63941970 heartbeat IPC: 0.923072 cumulative IPC: 0.938821 (Simulation time: 0 hr 50 min 53 sec) 

Region of Interest Statistics
cpu0_DTLB TOTAL     ACCESS:   11718985  HIT:   11716973  MISS:       2012
cpu0_DTLB LOAD      ACCESS:    7379740  HIT:    7377934  MISS:       1806
cpu0_DTLB RFO       ACCESS:    4339245  HIT:    4339039  MISS:        206
cpu0_DTLB PREFETCH  ACCESS:          0  HIT:          0  MISS:          0
cpu0_DTLB WRITEBACK ACCESS:          0  HIT:          0  MISS:          0
cpu0_ITLB TOTAL     ACCESS:    4249804  HIT:    4249804  MISS:          0
cpu0_ITLB LOAD      ACCESS:    4249804  HIT:    4249804  MISS:          0
cpu0_ITLB RFO       ACCESS:          0  HIT:          0  MISS:          0
cpu0_ITLB PREFETCH  ACCESS:          0  HIT:          0  MISS:          0
cpu0_ITLB WRITEBACK ACCESS:          0  HIT:          0  MISS:          0
cpu0_L1I TOTAL     ACCESS:    4892476  HIT:    4787853  MISS:     104623
cpu0_L1I LOAD      ACCESS:    4892476  HIT:    4787853  MISS:     104623
cpu0_L1I RFO       ACCESS:          0  HIT:          0  MISS:          0
cpu0_L1I PREFETCH  ACCESS:          0  HIT:          0  MISS:          0
cpu0_L1I WRITEBACK ACCESS:          0  HIT:          0  MISS:          0
cpu0_STLB TOTAL     ACCESS:       2012  HIT:       1991  MISS:         21
cpu0_STLB LOAD      ACCESS:       1806  HIT:       1786  MISS:         20
cpu0_STLB RFO       ACCESS:        206  HIT:        205  MISS:          1
cpu0_STLB PREFETCH  ACCESS:          0  HIT:          0  MISS:          0
cpu0_STLB WRITEBACK ACCESS:          0  HIT:          0  MISS:          0
cpu0_L1D TOTAL     ACCESS:   15169373  HIT:   15134039  MISS:      35334
cpu0_L1D LOAD      ACCESS:    7358797  HIT:    7346051  MISS:      12746
cpu0_L1D RFO       ACCESS:    7810555  HIT:    7787987  MISS:      22568
cpu0_L1D PREFETCH  ACCESS:          0  HIT:          0  MISS:          0
cpu0_L1D WRITEBACK ACCESS:          0  HIT:          0  MISS:          0
cpu0_L2C TOTAL     ACCESS:     167828  HIT:     167363  MISS:        465
cpu0_L2C LOAD      ACCESS:     117369  HIT:     117065  MISS:        304
cpu0_L2C RFO       ACCESS:      22567  HIT:      22406  MISS:        161
cpu0_L2C PREFETCH  ACCESS:          0  HIT:          0  MISS:          0
cpu0_L2C WRITEBACK ACCESS:      27872  HIT:      27872  MISS:          0
LLC TOTAL     ACCESS:        647  HIT:        256  MISS:        391
LLC LOAD      ACCESS:        304  HIT:         25  MISS:        279
LLC RFO       ACCESS:        161  HIT:         51  MISS:        110
LLC PREFETCH  ACCESS:          0  HIT:          0  MISS:          0
LLC WRITEBACK ACCESS:        182  HIT:        180  MISS:          2
Heartbeat CPU 0 instructions: 100000002 cycles: 66083876 heartbeat IPC: 0.933748 cumulative IPC: 0.938617 (Simulation time: 0 hr 51 min 52 sec) 

Region of Interest Statistics
cpu0_DTLB TOTAL     ACCESS:   12210919  HIT:   12208793  MISS:       2126
cpu0_DTLB LOAD      ACCESS:    7687762  HIT:    7685853  MISS:       1909
cpu0_DTLB RFO       ACCESS:    4523157  HIT:    4522940  MISS:        217
cpu0_DTLB PREFETCH  ACCESS:          0  HIT:          0  MISS:          0
cpu0_DTLB WRITEBACK ACCESS:          0  HIT:          0  MISS:          0
cpu0_ITLB TOTAL     ACCESS:    4427185  HIT:    4427185  MISS:          0
cpu0_ITLB LOAD      ACCESS:    4427185  HIT:    4427185  MISS:          0
cpu0_ITLB RFO       ACCESS:          0  HIT:          0  MISS:          0
cpu0_ITLB PREFETCH  ACCESS:          0  HIT:          0  MISS:          0
cpu0_ITLB WRITEBACK ACCESS:          0  HIT:          0  MISS:          0
cpu0_L1I TOTAL     ACCESS:    5098321  HIT:    4989439  MISS:     108882
cpu0_L1I LOAD      ACCESS:    5098321  HIT:    4989439  MISS:     108882
cpu0_L1I RFO       ACCESS:          0  HIT:          0  MISS:          0
cpu0_L1I PREFETCH  ACCESS:          0  HIT:          0  MISS:          0
cpu0_L1I WRITEBACK ACCESS:          0  HIT:          0  MISS:          0
cpu0_STLB TOTAL     ACCESS:       2126  HIT:       2102  MISS:         24
cpu0_STLB LOAD      ACCESS:       1909  HIT:       1886  MISS:         23
cpu0_STLB RFO       ACCESS:        217  HIT:        216  MISS:          1
cpu0_STLB PREFETCH  ACCESS:          0  HIT:          0  MISS:          0
cpu0_STLB WRITEBACK ACCESS:          0  HIT:          0  MISS:          0
cpu0_L1D TOTAL     ACCESS:   15806011  HIT:   15768713  MISS:      37298
cpu0_L1D LOAD      ACCESS:    7666633  HIT:    7653118  MISS:      13515
cpu0_L1D RFO       ACCESS:    8139354  HIT:    8115594  MISS:      23760
cpu0_L1D PREFETCH  ACCESS:          0  HIT:          0  MISS:          0
cpu0_L1D WRITEBACK ACCESS:          0  HIT:          0  MISS:          0
cpu0_L2C TOTAL     ACCESS:     175516  HIT:     175029  MISS:        487
cpu0_L2C LOAD      ACCESS:     122397  HIT:     122071  MISS:        326
cpu0_L2C RFO       ACCESS:      23759  HIT:      23598  MISS:        161
cpu0_L2C PREFETCH  ACCESS:          0  HIT:          0  MISS:          0
cpu0_L2C WRITEBACK ACCESS:      29337  HIT:      29337  MISS:          0
LLC TOTAL     ACCESS:        675  HIT:        262  MISS:        413
LLC LOAD      ACCESS:        326  HIT:         25  MISS:        301
LLC RFO       ACCESS:        161  HIT:         51  MISS:        110
LLC PREFETCH  ACCESS:          0  HIT:          0  MISS:          0
LLC WRITEBACK ACCESS:        188  HIT:        186  MISS:          2
Heartbeat CPU 0 instructions: 102000003 cycles: 68233513 heartbeat IPC: 0.93039 cumulative IPC: 0.938298 (Simulation time: 0 hr 52 min 51 sec) 

Region of Interest Statistics
cpu0_DTLB TOTAL     ACCESS:   12712663  HIT:   12710427  MISS:       2236
cpu0_DTLB LOAD      ACCESS:    7998171  HIT:    7996165  MISS:       2006
cpu0_DTLB RFO       ACCESS:    4714492  HIT:    4714262  MISS:        230
cpu0_DTLB PREFETCH  ACCESS:          0  HIT:          0  MISS:          0
cpu0_DTLB WRITEBACK ACCESS:          0  HIT:          0  MISS:          0
cpu0_ITLB TOTAL     ACCESS:    4604610  HIT:    4604610  MISS:          0
cpu0_ITLB LOAD      ACCESS:    4604610  HIT:    4604610  MISS:          0
cpu0_ITLB RFO       ACCESS:          0  HIT:          0  MISS:          0
cpu0_ITLB PREFETCH  ACCESS:          0  HIT:          0  MISS:          0
cpu0_ITLB WRITEBACK ACCESS:          0  HIT:          0  MISS:          0
cpu0_L1I TOTAL     ACCESS:    5305674  HIT:    5192906  MISS:     112768
cpu0_L1I LOAD      ACCESS:    5305674  HIT:    5192906  MISS:     112768
cpu0_L1I RFO       ACCESS:          0  HIT:          0  MISS:          0
cpu0_L1I PREFETCH  ACCESS:          0  HIT:          0  MISS:          0
cpu0_L1I WRITEBACK ACCESS:          0  HIT:          0  MISS:          0
cpu0_STLB TOTAL     ACCESS:       2236  HIT:       2211  MISS:         25
cpu0_STLB LOAD      ACCESS:       2006  HIT:       1982  MISS:         24
cpu0_STLB RFO       ACCESS:        230  HIT:        229  MISS:          1
cpu0_STLB PREFETCH  ACCESS:          0  HIT:          0  MISS:          0
cpu0_STLB WRITEBACK ACCESS:          0  HIT:          0  MISS:          0
cpu0_L1D TOTAL     ACCESS:   16458651  HIT:   16420239  MISS:      38412
cpu0_L1D LOAD      ACCESS:    7976229  HIT:    7962241  MISS:      13988
cpu0_L1D RFO       ACCESS:    8482397  HIT:    8457997  MISS:      24400
cpu0_L1D PREFETCH  ACCESS:          0  HIT:          0  MISS:          0
cpu0_L1D WRITEBACK ACCESS:          0  HIT:          0  MISS:          0
cpu0_L2C TOTAL     ACCESS:     181338  HIT:     180834  MISS:        504
cpu0_L2C LOAD      ACCESS:     126756  HIT:     126413  MISS:        343
cpu0_L2C RFO       ACCESS:      24399  HIT:      24238  MISS:        161
cpu0_L2C PREFETCH  ACCESS:          0  HIT:          0  MISS:          0
cpu0_L2C WRITEBACK ACCESS:      30159  HIT:      30159  MISS:          0
LLC TOTAL     ACCESS:        701  HIT:        271  MISS:        430
LLC LOAD      ACCESS:        343  HIT:         25  MISS:        318
LLC RFO       ACCESS:        161  HIT:         51  MISS:        110
LLC PREFETCH  ACCESS:          0  HIT:          0  MISS:          0
LLC WRITEBACK ACCESS:        197  HIT:        195  MISS:          2
Heartbeat CPU 0 instructions: 104000000 cycles: 70367823 heartbeat IPC: 0.93707 cumulative IPC: 0.938253 (Simulation time: 0 hr 53 min 50 sec) 

Region of Interest Statistics
cpu0_DTLB TOTAL     ACCESS:   13209534  HIT:   13207162  MISS:       2372
cpu0_DTLB LOAD      ACCESS:    8307231  HIT:    8305100  MISS:       2131
cpu0_DTLB RFO       ACCESS:    4902303  HIT:    4902062  MISS:        241
cpu0_DTLB PREFETCH  ACCESS:          0  HIT:          0  MISS:          0
cpu0_DTLB WRITEBACK ACCESS:          0  HIT:          0  MISS:          0
cpu0_ITLB TOTAL     ACCESS:    4780911  HIT:    4780911  MISS:          0
cpu0_ITLB LOAD      ACCESS:    4780911  HIT:    4780911  MISS:          0
cpu0_ITLB RFO       ACCESS:          0  HIT:          0  MISS:          0
cpu0_ITLB PREFETCH  ACCESS:          0  HIT:          0  MISS:          0
cpu0_ITLB WRITEBACK ACCESS:          0  HIT:          0  MISS:          0
cpu0_L1I TOTAL     ACCESS:    5511614  HIT:    5395260  MISS:     116354
cpu0_L1I LOAD      ACCESS:    5511614  HIT:    5395260  MISS:     116354
cpu0_L1I RFO       ACCESS:          0  HIT:          0  MISS:          0
cpu0_L1I PREFETCH  ACCESS:          0  HIT:          0  MISS:          0
cpu0_L1I WRITEBACK ACCESS:          0  HIT:          0  MISS:          0
cpu0_STLB TOTAL     ACCESS:       2372  HIT:       2344  MISS:         28
cpu0_STLB LOAD      ACCESS:       2131  HIT:       2104  MISS:         27
cpu0_STLB RFO       ACCESS:        241  HIT:        240  MISS:          1
cpu0_STLB PREFETCH  ACCESS:          0  HIT:          0  MISS:          0
cpu0_STLB WRITEBACK ACCESS:          0  HIT:          0  MISS:          0
cpu0_L1D TOTAL     ACCESS:   17100834  HIT:   17061389  MISS:      39445
cpu0_L1D LOAD      ACCESS:    8283883  HIT:    8269535  MISS:      14348
cpu0_L1D RFO       ACCESS:    8816923  HIT:    8791852  MISS:      25071
cpu0_L1D PREFETCH  ACCESS:          0  HIT:          0  MISS:          0
cpu0_L1D WRITEBACK ACCESS:          0  HIT:          0  MISS:          0
cpu0_L2C TOTAL     ACCESS:     186726  HIT:     186202  MISS:        524
cpu0_L2C LOAD      ACCESS:     130702  HIT:     130339  MISS:        363
cpu0_L2C RFO       ACCESS:      25070  HIT:      24909  MISS:        161
cpu0_L2C PREFETCH  ACCESS:          0  HIT:          0  MISS:          0
cpu0_L2C WRITEBACK ACCESS:      30928  HIT:      30928  MISS:          0
LLC TOTAL     ACCESS:        728  HIT:        278  MISS:        450
LLC LOAD      ACCESS:        363  HIT:         25  MISS:        338
LLC RFO       ACCESS:        161  HIT:         51  MISS:        110
LLC PREFETCH  ACCESS:          0  HIT:          0  MISS:          0
LLC WRITEBACK ACCESS:        204  HIT:        202  MISS:          2
Heartbeat CPU 0 instructions: 106000004 cycles: 72530685 heartbeat IPC: 0.924703 cumulative IPC: 0.937762 (Simulation time: 0 hr 54 min 50 sec) 

Region of Interest Statistics
cpu0_DTLB TOTAL     ACCESS:   13703539  HIT:   13700949  MISS:       2590
cpu0_DTLB LOAD      ACCESS:    8616981  HIT:    8614647  MISS:       2334
cpu0_DTLB RFO       ACCESS:    5086558  HIT:    5086302  MISS:        256
cpu0_DTLB PREFETCH  ACCESS:          0  HIT:          0  MISS:          0
cpu0_DTLB WRITEBACK ACCESS:          0  HIT:          0  MISS:          0
cpu0_ITLB TOTAL     ACCESS:    4958940  HIT:    4958940  MISS:          0
cpu0_ITLB LOAD      ACCESS:    4958940  HIT:    4958940  MISS:          0
cpu0_ITLB RFO       ACCESS:          0  HIT:          0  MISS:          0
cpu0_ITLB PREFETCH  ACCESS:          0  HIT:          0  MISS:          0
cpu0_ITLB WRITEBACK ACCESS:          0  HIT:          0  MISS:          0
cpu0_L1I TOTAL     ACCESS:    5713948  HIT:    5593375  MISS:     120573
cpu0_L1I LOAD      ACCESS:    5713948  HIT:    5593375  MISS:     120573
cpu0_L1I RFO       ACCESS:          0  HIT:          0  MISS:          0
cpu0_L1I PREFETCH  ACCESS:          0  HIT:          0  MISS:          0
cpu0_L1I WRITEBACK ACCESS:          0  HIT:          0  MISS:          0
cpu0_STLB TOTAL     ACCESS:       2590  HIT:       2560  MISS:         30
cpu0_STLB LOAD      ACCESS:       2334  HIT:       2305  MISS:         29
cpu0_STLB RFO       ACCESS:        256  HIT:        255  MISS:          1
cpu0_STLB PREFETCH  ACCESS:          0  HIT:          0  MISS:          0
cpu0_STLB WRITEBACK ACCESS:          0  HIT:          0  MISS:          0
cpu0_L1D TOTAL     ACCESS:   17739966  HIT:   17699122  MISS:      40844
cpu0_L1D LOAD      ACCESS:    8593418  HIT:    8578520  MISS:      14898
cpu0_L1D RFO       ACCESS:    9146518  HIT:    9120599  MISS:      25919
cpu0_L1D PREFETCH  ACCESS:          0  HIT:          0  MISS:          0
cpu0_L1D WRITEBACK ACCESS:          0  HIT:          0  MISS:          0
cpu0_L2C TOTAL     ACCESS:     193436  HIT:     192896  MISS:        540
cpu0_L2C LOAD      ACCESS:     135471  HIT:     135092  MISS:        379
cpu0_L2C RFO       ACCESS:      25918  HIT:      25757  MISS:        161
cpu0_L2C PREFETCH  ACCESS:          0  HIT:          0  MISS:          0
[...]
cpu0_DTLB LOAD      ACCESS:  230511175  HIT:  230204236  MISS:     306939
cpu0_DTLB RFO       ACCESS:  123687971  HIT:  123618029  MISS:      69942
cpu0_DTLB PREFETCH  ACCESS:          0  HIT:          0  MISS:          0
cpu0_DTLB WRITEBACK ACCESS:          0  HIT:          0  MISS:          0
cpu0_ITLB TOTAL     ACCESS:  132154544  HIT:  132152029  MISS:       2515
cpu0_ITLB LOAD      ACCESS:  132154544  HIT:  132152029  MISS:       2515
cpu0_ITLB RFO       ACCESS:          0  HIT:          0  MISS:          0
cpu0_ITLB PREFETCH  ACCESS:          0  HIT:          0  MISS:          0
cpu0_ITLB WRITEBACK ACCESS:          0  HIT:          0  MISS:          0
cpu0_L1I TOTAL     ACCESS:  149450709  HIT:  145337320  MISS:    4113389
cpu0_L1I LOAD      ACCESS:  149450709  HIT:  145337320  MISS:    4113389
cpu0_L1I RFO       ACCESS:          0  HIT:          0  MISS:          0
cpu0_L1I PREFETCH  ACCESS:          0  HIT:          0  MISS:          0
cpu0_L1I WRITEBACK ACCESS:          0  HIT:          0  MISS:          0
cpu0_STLB TOTAL     ACCESS:     379396  HIT:     346648  MISS:      32748
cpu0_STLB LOAD      ACCESS:     309454  HIT:     288942  MISS:      20512
cpu0_STLB RFO       ACCESS:      69942  HIT:      57706  MISS:      12236
cpu0_STLB PREFETCH  ACCESS:          0  HIT:          0  MISS:          0
cpu0_STLB WRITEBACK ACCESS:          0  HIT:          0  MISS:          0
cpu0_L1D TOTAL     ACCESS:  448003929  HIT:  444722560  MISS:    3281369
cpu0_L1D LOAD      ACCESS:  226548680  HIT:  225005095  MISS:    1543585
cpu0_L1D RFO       ACCESS:  221422606  HIT:  219688261  MISS:    1734345
cpu0_L1D PREFETCH  ACCESS:          0  HIT:          0  MISS:          0
cpu0_L1D WRITEBACK ACCESS:          0  HIT:          0  MISS:          0
cpu0_L2C TOTAL     ACCESS:    9495041  HIT:    8331132  MISS:    1163909
cpu0_L2C LOAD      ACCESS:    5656955  HIT:    5291560  MISS:     365395
cpu0_L2C RFO       ACCESS:    1734305  HIT:     936917  MISS:     797388
cpu0_L2C PREFETCH  ACCESS:          0  HIT:          0  MISS:          0
cpu0_L2C WRITEBACK ACCESS:    2100342  HIT:    2099328  MISS:       1014
LLC TOTAL     ACCESS:    2145288  HIT:    1077221  MISS:    1068067
LLC LOAD      ACCESS:     365395  HIT:      95887  MISS:     269508
LLC RFO       ACCESS:     797388  HIT:      26273  MISS:     771115
LLC PREFETCH  ACCESS:          0  HIT:          0  MISS:          0
LLC WRITEBACK ACCESS:     982393  HIT:     955011  MISS:      27382
Heartbeat CPU 0 instructions: 1550000000 cycles: 1740818236 heartbeat IPC: 0.852239 cumulative IPC: 0.868053 (Simulation time: 13 hr 35 min 28 sec) 

Region of Interest Statistics
cpu0_DTLB TOTAL     ACCESS:  354651620  HIT:  354273638  MISS:     377982
cpu0_DTLB LOAD      ACCESS:  230821752  HIT:  230513930  MISS:     307822
cpu0_DTLB RFO       ACCESS:  123829868  HIT:  123759708  MISS:      70160
cpu0_DTLB PREFETCH  ACCESS:          0  HIT:          0  MISS:          0
cpu0_DTLB WRITEBACK ACCESS:          0  HIT:          0  MISS:          0
cpu0_ITLB TOTAL     ACCESS:  132336117  HIT:  132333602  MISS:       2515
cpu0_ITLB LOAD      ACCESS:  132336117  HIT:  132333602  MISS:       2515
cpu0_ITLB RFO       ACCESS:          0  HIT:          0  MISS:          0
cpu0_ITLB PREFETCH  ACCESS:          0  HIT:          0  MISS:          0
cpu0_ITLB WRITEBACK ACCESS:          0  HIT:          0  MISS:          0
cpu0_L1I TOTAL     ACCESS:  149645929  HIT:  145525975  MISS:    4119954
cpu0_L1I LOAD      ACCESS:  149645929  HIT:  145525975  MISS:    4119954
cpu0_L1I RFO       ACCESS:          0  HIT:          0  MISS:          0
cpu0_L1I PREFETCH  ACCESS:          0  HIT:          0  MISS:          0
cpu0_L1I WRITEBACK ACCESS:          0  HIT:          0  MISS:          0
cpu0_STLB TOTAL     ACCESS:     380497  HIT:     347722  MISS:      32775
cpu0_STLB LOAD      ACCESS:     310337  HIT:     289801  MISS:      20536
cpu0_STLB RFO       ACCESS:      70160  HIT:      57921  MISS:      12239
cpu0_STLB PREFETCH  ACCESS:          0  HIT:          0  MISS:          0
cpu0_STLB WRITEBACK ACCESS:          0  HIT:          0  MISS:          0
cpu0_L1D TOTAL     ACCESS:  448567617  HIT:  445281664  MISS:    3285953
cpu0_L1D LOAD      ACCESS:  226851740  HIT:  225304883  MISS:    1546857
cpu0_L1D RFO       ACCESS:  221683207  HIT:  219947560  MISS:    1735647
cpu0_L1D PREFETCH  ACCESS:          0  HIT:          0  MISS:          0
cpu0_L1D WRITEBACK ACCESS:          0  HIT:          0  MISS:          0
cpu0_L2C TOTAL     ACCESS:    9508030  HIT:    8343507  MISS:    1164523
cpu0_L2C LOAD      ACCESS:    5666792  HIT:    5300838  MISS:     365954
cpu0_L2C RFO       ACCESS:    1735607  HIT:     938164  MISS:     797443
cpu0_L2C PREFETCH  ACCESS:          0  HIT:          0  MISS:          0
cpu0_L2C WRITEBACK ACCESS:    2102182  HIT:    2101168  MISS:       1014
LLC TOTAL     ACCESS:    2146283  HIT:    1077709  MISS:    1068574
LLC LOAD      ACCESS:     365954  HIT:      95988  MISS:     269966
LLC RFO       ACCESS:     797443  HIT:      26293  MISS:     771150
LLC PREFETCH  ACCESS:          0  HIT:          0  MISS:          0
LLC WRITEBACK ACCESS:     982774  HIT:     955378  MISS:      27396
Finished CPU 0 instructions: 1500000002 cycles: 1728004204 cumulative IPC: 0.868053 (Simulation time: 13 hr 35 min 28 sec) 

ChampSim completed all CPUs

Region of Interest Statistics

CPU 0 cumulative IPC: 0.868053 instructions: 1500000002 cycles: 1728004204
cpu0_DTLB TOTAL     ACCESS:  354651620  HIT:  354273638  MISS:     377982
cpu0_DTLB LOAD      ACCESS:  230821752  HIT:  230513930  MISS:     307822
cpu0_DTLB RFO       ACCESS:  123829868  HIT:  123759708  MISS:      70160
cpu0_DTLB PREFETCH  ACCESS:          0  HIT:          0  MISS:          0
cpu0_DTLB WRITEBACK ACCESS:          0  HIT:          0  MISS:          0
cpu0_DTLB TRANSLATION ACCESS:          0  HIT:          0  MISS:          0
cpu0_DTLB PREFETCH  REQUESTED:          0  ISSUED:          0  USEFUL:          0  USELESS:          0
cpu0_DTLB AVERAGE MISS LATENCY: 12.5413 cycles
cpu0_ITLB TOTAL     ACCESS:  132336117  HIT:  132333602  MISS:       2515
cpu0_ITLB LOAD      ACCESS:  132336117  HIT:  132333602  MISS:       2515
cpu0_ITLB RFO       ACCESS:          0  HIT:          0  MISS:          0
cpu0_ITLB PREFETCH  ACCESS:          0  HIT:          0  MISS:          0
cpu0_ITLB WRITEBACK ACCESS:          0  HIT:          0  MISS:          0
cpu0_ITLB TRANSLATION ACCESS:          0  HIT:          0  MISS:          0
cpu0_ITLB PREFETCH  REQUESTED:          0  ISSUED:          0  USEFUL:          0  USELESS:          0
cpu0_ITLB AVERAGE MISS LATENCY: 20.8 cycles
cpu0_L1I TOTAL     ACCESS:  149645929  HIT:  145525975  MISS:    4119954
cpu0_L1I LOAD      ACCESS:  149645929  HIT:  145525975  MISS:    4119954
cpu0_L1I RFO       ACCESS:          0  HIT:          0  MISS:          0
cpu0_L1I PREFETCH  ACCESS:          0  HIT:          0  MISS:          0
cpu0_L1I WRITEBACK ACCESS:          0  HIT:          0  MISS:          0
cpu0_L1I TRANSLATION ACCESS:          0  HIT:          0  MISS:          0
cpu0_L1I PREFETCH  REQUESTED:          0  ISSUED:          0  USEFUL:          0  USELESS:          0
cpu0_L1I AVERAGE MISS LATENCY: 12.1874 cycles
cpu0_STLB TOTAL     ACCESS:     380497  HIT:     347722  MISS:      32775
cpu0_STLB LOAD      ACCESS:     310337  HIT:     289801  MISS:      20536
cpu0_STLB RFO       ACCESS:      70160  HIT:      57921  MISS:      12239
cpu0_STLB PREFETCH  ACCESS:          0  HIT:          0  MISS:          0
cpu0_STLB WRITEBACK ACCESS:          0  HIT:          0  MISS:          0
cpu0_STLB TRANSLATION ACCESS:          0  HIT:          0  MISS:          0
cpu0_STLB PREFETCH  REQUESTED:          0  ISSUED:          0  USEFUL:          0  USELESS:          0
cpu0_STLB AVERAGE MISS LATENCY: 41.7018 cycles
cpu0_L1D TOTAL     ACCESS:  448567617  HIT:  445281664  MISS:    3285953
cpu0_L1D LOAD      ACCESS:  226851740  HIT:  225304883  MISS:    1546857
cpu0_L1D RFO       ACCESS:  221683207  HIT:  219947560  MISS:    1735647
cpu0_L1D PREFETCH  ACCESS:          0  HIT:          0  MISS:          0
cpu0_L1D WRITEBACK ACCESS:          0  HIT:          0  MISS:          0
cpu0_L1D TRANSLATION ACCESS:      32670  HIT:      29221  MISS:       3449
cpu0_L1D PREFETCH  REQUESTED:          0  ISSUED:          0  USEFUL:          0  USELESS:          0
cpu0_L1D AVERAGE MISS LATENCY: 267.683 cycles
cpu0_L2C TOTAL     ACCESS:    9508030  HIT:    8343507  MISS:    1164523
cpu0_L2C LOAD      ACCESS:    5666792  HIT:    5300838  MISS:     365954
cpu0_L2C RFO       ACCESS:    1735607  HIT:     938164  MISS:     797443
cpu0_L2C PREFETCH  ACCESS:          0  HIT:          0  MISS:          0
cpu0_L2C WRITEBACK ACCESS:    2102182  HIT:    2101168  MISS:       1014
cpu0_L2C TRANSLATION ACCESS:       3449  HIT:       3337  MISS:        112
cpu0_L2C PREFETCH  REQUESTED:          0  ISSUED:          0  USEFUL:          0  USELESS:          0
cpu0_L2C AVERAGE MISS LATENCY: 728.354 cycles
LLC TOTAL     ACCESS:    2146283  HIT:    1077709  MISS:    1068574
LLC LOAD      ACCESS:     365954  HIT:      95988  MISS:     269966
LLC RFO       ACCESS:     797443  HIT:      26293  MISS:     771150
LLC PREFETCH  ACCESS:          0  HIT:          0  MISS:          0
LLC WRITEBACK ACCESS:     982774  HIT:     955378  MISS:      27396
LLC TRANSLATION ACCESS:        112  HIT:         50  MISS:         62
LLC PREFETCH  REQUESTED:          0  ISSUED:          0  USEFUL:          0  USELESS:          0
LLC AVERAGE MISS LATENCY: 770.888 cycles
~~~~~~~~~~Reuse Distance Profiler output~~~~~~~~~~
0	0	0
1	0	0
2	0	0
3	0	0
4	0	0
5	0	0
6	0	0
7	0	0
8	0	0
9	0	0
10	0	0
11	0	0
12	0	0
13	0	0
14	0	0
15	0	0
16	0	0
17	0	0
18	0	0
19	0	0
20	0	0
21	0	0
22	0	0
23	0	0
24	0	0
25	0	0
26	0	0
27	0	0
28	0	0
29	0	0
30	0	0
31	0	0
32	0	0
33	0	0
34	0	0
35	0	0
36	0	0
37	0	0
38	0	0
39	0	0
40	0	0
41	0	0
42	0	0
43	0	0
44	0	0
45	0	0
46	0	0
47	0	0
48	0	0
49	0	0
50	0	0
51	0	0
52	0	0
53	0	0
54	0	0
55	0	0
56	0	0
57	0	0
58	0	0
59	0	0
60	0	0
61	0	0
62	0	0
63	0	0
64	0	0
66	0	0
68	0	0
70	0	0
72	0	0
74	0	0
76	0	0
78	0	0
80	0	0
82	0	0
84	0	0
86	0	0
88	0	0
90	0	0
92	0	0
94	0	0
96	0	0
98	0	0
100	0	0
102	0	0
104	0	0
106	0	0
108	0	0
110	0	0
112	0	0
114	0	0
116	0	0
118	0	0
120	0	0
122	0	0
124	0	0
126	0	0
128	0	0
132	0	0
136	0	0
140	0	0
144	0	0
148	0	0
152	0	0
156	0	0
160	0	0
164	0	0
168	0	0
172	0	0
176	0	0
180	0	0
184	0	0
188	0	0
192	0	0
196	0	0
200	0	0
204	0	0
208	0	0
212	0	0
216	0	0
220	0	0
224	0	0
228	0	0
232	0	0
236	0	0
240	0	0
244	0	0
248	0	0
252	0	0
256	0	0
264	0	0
272	0	0
280	0	0
288	0	0
296	0	0
304	0	0
312	0	0
320	0	0
328	0	0
336	0	0
344	0	0
352	0	0
360	0	0
368	0	0
376	0	0
384	0	0
392	0	0
400	0	0
408	0	0
416	0	0
424	0	0
432	0	0
440	0	0
448	0	0
456	0	0
464	0	0
472	0	0
480	0	0
488	0	0
496	0	0
504	0	0
512	0	0
528	0	0
544	0	0
560	0	0
576	0	0
592	0	0
608	0	0
624	0	0
640	0	0
656	0	0
672	0	0
688	0	0
704	0	0
720	0	0
736	0	0
752	0	0
768	0	0
784	0	0
800	0	0
816	0	0
832	0	0
848	0	0
864	0	0
880	0	0
896	0	0
912	0	0
928	0	0
944	0	0
960	0	0
976	0	0
992	0	0
1008	0	0
1024	0	0
1056	0	0
1088	0	0
1120	0	0
1152	0	0
1184	0	0
1216	0	0
1248	0	0
1280	0	0
1312	0	0
1344	0	0
1376	0	0
1408	0	0
1440	0	0
1472	0	0
1504	0	0
1536	0	0
1568	0	0
1600	0	0
1632	0	0
1664	0	0
1696	0	0
1728	0	0
1760	0	0
1792	0	0
1824	0	0
1856	0	0
1888	0	0
1920	0	0
1952	0	0
1984	0	0
2016	0	0
2048	0	0
2112	0	0
2176	0	0
2240	0	0
2304	0	0
2368	0	0
2432	0	0
2496	0	0
2560	0	0
2624	0	0
2688	0	0
2752	0	0
2816	0	0
2880	0	0
2944	0	0
3008	0	0
3072	0	0
3136	0	0
3200	0	0
3264	0	0
3328	0	0
3392	0	0
3456	0	0
3520	0	0
3584	0	0
3648	0	0
3712	0	0
3776	0	0
3840	0	0
3904	0	0
3968	0	0
4032	0	0
4096	0	0
4224	0	0
4352	0	0
4480	0	0
4608	0	0
4736	0	0
4864	0	0
4992	0	0
5120	0	0
5248	0	0
5376	0	0
5504	0	0
5632	0	0
5760	0	0
5888	0	0
6016	0	0
6144	0	0
6272	0	0
6400	0	0
6528	0	0
6656	0	0
6784	0	0
6912	0	0
7040	0	0
7168	0	0
7296	0	0
7424	0	0
7552	0	0
7680	0	0
7808	0	0
7936	0	0
8064	0	0
8192	0	0
8448	0	0
8704	0	0
8960	0	0
9216	0	0
9472	0	0
9728	0	0
9984	0	0
10240	0	0
10496	0	0
10752	0	0
11008	0	0
11264	0	0
11520	0	0
11776	0	0
12032	0	0
12288	0	0
12544	0	0
12800	0	0
13056	0	0
13312	0	0
13568	0	0
13824	0	0
14080	0	0
14336	0	0
14592	0	0
14848	0	0
15104	0	0
15360	0	0
15616	0	0
15872	0	0
16128	0	0
16384	0	0
16896	0	0
17408	0	0
17920	0	0
18432	0	0
18944	0	0
19456	0	0
19968	0	0
20480	0	0
20992	0	0
21504	0	0
22016	0	0
22528	0	0
23040	0	0
23552	0	0
24064	0	0
24576	0	0
25088	0	0
25600	0	0
26112	0	0
26624	0	0
27136	0	0
27648	0	0
28160	0	0
28672	0	0
29184	0	0
29696	0	0
30208	0	0
30720	0	0
31232	0	0
31744	0	0
32256	0	0
32768	0	0
33792	0	0
34816	0	0
35840	0	0
36864	0	0
37888	0	0
38912	0	0
39936	0	0
40960	0	0
41984	0	0
43008	0	0
44032	0	0
45056	0	0
46080	0	0
47104	0	0
48128	0	0
49152	0	0
50176	0	0
51200	0	0
52224	0	0
53248	0	0
54272	0	0
55296	0	0
56320	0	0
57344	0	0
58368	0	0
59392	0	0
60416	0	0
61440	0	0
62464	0	0
63488	0	0
64512	0	0
65536	0	0
67584	0	0
69632	0	0
71680	0	0
73728	0	0
75776	0	0
77824	0	0
79872	0	0
81920	0	0
83968	0	0
86016	0	0
88064	0	0
90112	0	0
92160	0	0
94208	0	0
96256	0	0
98304	0	0
100352	0	0
102400	0	0
104448	0	0
106496	0	0
108544	0	0
110592	0	0
112640	0	0
114688	0	0
116736	0	0
118784	0	0
120832	0	0
122880	0	0
124928	0	0
126976	0	0
129024	0	0
131072	0	0
135168	0	0
139264	0	0
143360	0	0
147456	0	0
151552	0	0
155648	0	0
159744	0	0
163840	0	0
167936	0	0
172032	0	0
176128	0	0
180224	0	0
184320	0	0
188416	0	0
192512	0	0
196608	0	0
200704	0	0
204800	0	0
208896	0	0
212992	0	0
217088	0	0
221184	0	0
225280	0	0
229376	0	0
233472	0	0
237568	0	0
241664	0	0
245760	0	0
249856	0	0
253952	0	0
258048	0	0
262144	0	0
270336	0	0
278528	0	0
286720	0	0
294912	0	0
303104	0	0
311296	0	0
319488	0	0
327680	0	0
335872	0	0
344064	0	0
352256	0	0
360448	0	0
368640	0	0
376832	0	0
385024	0	0
393216	0	0
401408	0	0
409600	0	0
417792	0	0
425984	0	0
434176	0	0
442368	0	0
450560	0	0
458752	0	0
466944	0	0
475136	0	0
483328	0	0
491520	0	0
499712	0	0
507904	0	0
516096	0	0
524288	0	0
540672	0	0
557056	0	0
573440	0	0
589824	0	0
606208	0	0
622592	0	0
638976	0	0
655360	0	0
671744	0	0
688128	0	0
704512	0	0
720896	0	0
737280	0	0
753664	0	0
770048	0	0
786432	0	0
802816	0	0
819200	0	0
835584	0	0
851968	0	0
868352	0	0
884736	0	0
901120	0	0
917504	0	0
933888	0	0
950272	0	0
966656	0	0
983040	0	0
999424	0	0
1015808	0	0
1032192	0	0
1048576	0	0
1081344	0	0
1114112	0	0
1146880	0	0
1179648	0	0
1212416	0	0
1245184	0	0
1277952	0	0
1310720	0	0
1343488	0	0
1376256	0	0
1409024	0	0
1441792	0	0
1474560	0	0
1507328	0	0
1540096	0	0
1572864	0	0
1605632	0	0
1638400	0	0
1671168	0	0
1703936	0	0
1736704	0	0
1769472	0	0
1802240	0	0
1835008	0	0
1867776	0	0
1900544	0	0
1933312	0	0
1966080	0	0
1998848	0	0
2031616	0	0
2064384	0	0
2097152	0	0
2162688	0	0
2228224	0	0
2293760	0	0
2359296	0	0
2424832	0	0
2490368	0	0
2555904	0	0
2621440	0	0
2686976	0	0
2752512	0	0
2818048	0	0
2883584	0	0
2949120	0	0
3014656	0	0
3080192	0	0
3145728	0	0
3211264	0	0
3276800	0	0
3342336	0	0
3407872	0	0
3473408	0	0
3538944	0	0
3604480	0	0
3670016	0	0
3735552	0	0
3801088	0	0
3866624	0	0
3932160	0	0
3997696	0	0
4063232	0	0
4128768	0	0
4194304	0	0
4325376	0	0
4456448	0	0
4587520	0	0
4718592	0	0
4849664	0	0
4980736	0	0
5111808	0	0
5242880	0	0
5373952	0	0
5505024	0	0
5636096	0	0
5767168	0	0
5898240	0	0
6029312	0	0
6160384	0	0
6291456	0	0
6422528	0	0
6553600	0	0
6684672	0	0
6815744	0	0
6946816	0	0
7077888	0	0
7208960	0	0
7340032	0	0
7471104	0	0
7602176	0	0
7733248	0	0
7864320	0	0
7995392	0	0
8126464	0	0
8257536	0	0
8388608	0	0
8650752	0	0
8912896	0	0
9175040	0	0
9437184	0	0
9699328	0	0
9961472	0	0
10223616	0	0
10485760	0	0
10747904	0	0
11010048	0	0
11272192	0	0
11534336	0	0
11796480	0	0
12058624	0	0
12320768	0	0
12582912	0	0
12845056	0	0
13107200	0	0
13369344	0	0
13631488	0	0
13893632	0	0
14155776	0	0
14417920	0	0
14680064	0	0
14942208	0	0
15204352	0	0
15466496	0	0
15728640	0	0
15990784	0	0
16252928	0	0
16515072	0	0
16777216	0	0
17301504	0	0
17825792	0	0
18350080	0	0
18874368	0	0
19398656	0	0
19922944	0	0
20447232	0	0
20971520	0	0
21495808	0	0
22020096	0	0
22544384	0	0
23068672	0	0
23592960	0	0
24117248	0	0
24641536	0	0
25165824	0	0
25690112	0	0
26214400	0	0
26738688	0	0
27262976	0	0
27787264	0	0
28311552	0	0
28835840	0	0
29360128	0	0
29884416	0	0
30408704	0	0
30932992	0	0
31457280	0	0
31981568	0	0
32505856	0	0
33030144	0	0
33554432	0	0
34603008	0	0
35651584	0	0
36700160	0	0
37748736	0	0
38797312	0	0
39845888	0	0
40894464	0	0
41943040	0	0
42991616	0	0
44040192	0	0
45088768	0	0
46137344	0	0
47185920	0	0
48234496	0	0
49283072	0	0
50331648	0	0
51380224	0	0
52428800	0	0
53477376	0	0
54525952	0	0
55574528	0	0
56623104	0	0
57671680	0	0
58720256	0	0
59768832	0	0
60817408	0	0
61865984	0	0
62914560	0	0
63963136	0	0
65011712	0	0
66060288	0	0
67108864	0	0
69206016	0	0
71303168	0	0
73400320	0	0
75497472	0	0
77594624	0	0
79691776	0	0
81788928	0	0
83886080	0	0
85983232	0	0
88080384	0	0
90177536	0	0
92274688	0	0
94371840	0	0
96468992	0	0
98566144	0	0
100663296	0	0
102760448	0	0
104857600	0	0
106954752	0	0
109051904	0	0
111149056	0	0
113246208	0	0
115343360	0	0
117440512	0	0
119537664	0	0
121634816	0	0
123731968	0	0
125829120	0	0
127926272	0	0
130023424	0	0
132120576	0	0
134217728	0	0
138412032	0	0
142606336	0	0
146800640	0	0
150994944	0	0
155189248	0	0
159383552	0	0
163577856	0	0
167772160	0	0
171966464	0	0
176160768	0	0
180355072	0	0
184549376	0	0
188743680	0	0
192937984	0	0
197132288	0	0
201326592	0	0
205520896	0	0
209715200	0	0
213909504	0	0
218103808	0	0
222298112	0	0
226492416	0	0
230686720	0	0
234881024	0	0
239075328	0	0
243269632	0	0
247463936	0	0
251658240	0	0
255852544	0	0
260046848	0	0
264241152	0	0
268435456	0	0
276824064	0	0
285212672	0	0
293601280	0	0
301989888	0	0
310378496	0	0
318767104	0	0
327155712	0	0
335544320	0	0
343932928	0	0
352321536	0	0
360710144	0	0
369098752	0	0
377487360	0	0
385875968	0	0
394264576	0	0
402653184	0	0
411041792	0	0
419430400	0	0
427819008	0	0
436207616	0	0
444596224	0	0
452984832	0	0
461373440	0	0
469762048	0	0
478150656	0	0
486539264	0	0
494927872	0	0
503316480	0	0
511705088	0	0
520093696	0	0
528482304	0	0
536870912	0	0
553648128	0	0
570425344	0	0
587202560	0	0
603979776	0	0
620756992	0	0
637534208	0	0
654311424	0	0
671088640	0	0
687865856	0	0
704643072	0	0
721420288	0	0
738197504	0	0
754974720	0	0
771751936	0	0
788529152	0	0
805306368	0	0
822083584	0	0
838860800	0	0
855638016	0	0
872415232	0	0
889192448	0	0
905969664	0	0
922746880	0	0
939524096	0	0
956301312	0	0
973078528	0	0
989855744	0	0
1006632960	0	0
1023410176	0	0
1040187392	0	0
1056964608	0	0
1073741824	0	0
1107296256	0	0
1140850688	0	0
1174405120	0	0
1207959552	0	0
1241513984	0	0
1275068416	0	0
1308622848	0	0
1342177280	0	0
1375731712	0	0
1409286144	0	0
1442840576	0	0
1476395008	0	0
1509949440	0	0
1543503872	0	0
1577058304	0	0
1610612736	0	0
1644167168	0	0
1677721600	0	0
1711276032	0	0
1744830464	0	0
1778384896	0	0
1811939328	0	0
1845493760	0	0
1879048192	0	0
1912602624	0	0
1946157056	0	0
1979711488	0	0
2013265920	0	0
2046820352	0	0
2080374784	0	0
2113929216	0	0
2147483648	0	0
2214592512	0	0
2281701376	0	0
2348810240	0	0
2415919104	0	0
2483027968	0	0
2550136832	0	0
2617245696	0	0
2684354560	0	0
2751463424	0	0
2818572288	0	0
2885681152	0	0
2952790016	0	0
3019898880	0	0
3087007744	0	0
3154116608	0	0
3221225472	0	0
3288334336	0	0
3355443200	0	0
3422552064	0	0
3489660928	0	0
3556769792	0	0
3623878656	0	0
3690987520	0	0
3758096384	0	0
3825205248	0	0
3892314112	0	0
3959422976	0	0
4026531840	0	0
4093640704	0	0
4160749568	0	0
4227858432	0	0
~~~~~~~~~~Reuse Distance Profiler output end~~~~~~~~~~

Sampler size:0

DRAM Statistics
 CHANNEL 0
 RQ ROW_BUFFER_HIT:     163623  ROW_BUFFER_MISS:     877419
 DBUS AVG_CONGESTED_CYCLE:    3.98012
 WQ ROW_BUFFER_HIT:     176615  ROW_BUFFER_MISS:     764791  FULL:          0


CPU 0 Branch Prediction Accuracy: 85.565% MPKI: 26.129 Average ROB Occupancy at Mispredict: 14.2801
Branch type MPKI
BRANCH_DIRECT_JUMP: 0.000904667
BRANCH_INDIRECT: 0.000121333
BRANCH_CONDITIONAL: 26.1183
BRANCH_DIRECT_CALL: 0.00164733
BRANCH_INDIRECT_CALL: 0.005354
BRANCH_RETURN: 0.00274

