
*** ChampSim Multicore Out-of-Order Simulator ***

Warmup Instructions: 50000000
Simulation Instructions: 1500000000
Number of CPUs: 1
Off-chip DRAM Size: 4 GiB Channels: 1 Width: 64-bit Data Rate: 3200 MT/s

VirtualMemory physical capacity: 8588881920 num_ppages: 2096895
VirtualMemory page size: 4096 log2_page_size: 12

CPU 0 runs /s/traces/champsim_traces/456.hmmer-191B.champsimtrace.xz
CPU 0 Bimodal branch predictor
Basic BTB sets: 1024 ways: 8 indirect buffer size: 4096 RAS size: 64
Initializing LRU.
Initializing LRU.
Initializing LRU.
Initializing LRU.
Initializing rdLRU.
Initializing LRU.
Initializing LRU.
Heartbeat CPU 0 instructions: 2000003 cycles: 788813 heartbeat IPC: 2.53546 cumulative IPC: 2.53546 (Simulation time: 0 hr 1 min 24 sec) 
Heartbeat CPU 0 instructions: 4000000 cycles: 1577228 heartbeat IPC: 2.53673 cumulative IPC: 2.53609 (Simulation time: 0 hr 2 min 49 sec) 
Heartbeat CPU 0 instructions: 6000001 cycles: 2365894 heartbeat IPC: 2.53593 cumulative IPC: 2.53604 (Simulation time: 0 hr 4 min 13 sec) 
Heartbeat CPU 0 instructions: 8000002 cycles: 3154306 heartbeat IPC: 2.53675 cumulative IPC: 2.53622 (Simulation time: 0 hr 5 min 40 sec) 
Heartbeat CPU 0 instructions: 10000003 cycles: 3942971 heartbeat IPC: 2.53593 cumulative IPC: 2.53616 (Simulation time: 0 hr 6 min 56 sec) 
Heartbeat CPU 0 instructions: 12000000 cycles: 4731371 heartbeat IPC: 2.53678 cumulative IPC: 2.53626 (Simulation time: 0 hr 8 min 10 sec) 
Heartbeat CPU 0 instructions: 14000003 cycles: 5520031 heartbeat IPC: 2.53595 cumulative IPC: 2.53622 (Simulation time: 0 hr 9 min 25 sec) 
Heartbeat CPU 0 instructions: 16000004 cycles: 6308435 heartbeat IPC: 2.53677 cumulative IPC: 2.53629 (Simulation time: 0 hr 10 min 41 sec) 
Heartbeat CPU 0 instructions: 18000002 cycles: 7097092 heartbeat IPC: 2.53595 cumulative IPC: 2.53625 (Simulation time: 0 hr 11 min 57 sec) 
Heartbeat CPU 0 instructions: 20000000 cycles: 7885498 heartbeat IPC: 2.53676 cumulative IPC: 2.5363 (Simulation time: 0 hr 13 min 15 sec) 
Heartbeat CPU 0 instructions: 22000000 cycles: 8674163 heartbeat IPC: 2.53593 cumulative IPC: 2.53627 (Simulation time: 0 hr 14 min 28 sec) 
Heartbeat CPU 0 instructions: 24000002 cycles: 9462573 heartbeat IPC: 2.53675 cumulative IPC: 2.53631 (Simulation time: 0 hr 15 min 39 sec) 
Heartbeat CPU 0 instructions: 26000003 cycles: 10251237 heartbeat IPC: 2.53594 cumulative IPC: 2.53628 (Simulation time: 0 hr 16 min 53 sec) 
Heartbeat CPU 0 instructions: 28000004 cycles: 11034474 heartbeat IPC: 2.55351 cumulative IPC: 2.5375 (Simulation time: 0 hr 18 min 5 sec) 
Heartbeat CPU 0 instructions: 30000001 cycles: 11822947 heartbeat IPC: 2.53654 cumulative IPC: 2.53744 (Simulation time: 0 hr 19 min 19 sec) 
Heartbeat CPU 0 instructions: 32000001 cycles: 12611567 heartbeat IPC: 2.53608 cumulative IPC: 2.53735 (Simulation time: 0 hr 20 min 29 sec) 
Heartbeat CPU 0 instructions: 34000002 cycles: 13400057 heartbeat IPC: 2.53649 cumulative IPC: 2.5373 (Simulation time: 0 hr 21 min 43 sec) 
Heartbeat CPU 0 instructions: 36000000 cycles: 14188634 heartbeat IPC: 2.53621 cumulative IPC: 2.53724 (Simulation time: 0 hr 22 min 55 sec) 
Heartbeat CPU 0 instructions: 38000003 cycles: 14977136 heartbeat IPC: 2.53646 cumulative IPC: 2.5372 (Simulation time: 0 hr 24 min 4 sec) 
Heartbeat CPU 0 instructions: 40000004 cycles: 15765709 heartbeat IPC: 2.53623 cumulative IPC: 2.53715 (Simulation time: 0 hr 25 min 14 sec) 
Heartbeat CPU 0 instructions: 42000001 cycles: 16551002 heartbeat IPC: 2.54682 cumulative IPC: 2.53761 (Simulation time: 0 hr 26 min 27 sec) 
Heartbeat CPU 0 instructions: 44000001 cycles: 17339423 heartbeat IPC: 2.53672 cumulative IPC: 2.53757 (Simulation time: 0 hr 27 min 36 sec) 
Heartbeat CPU 0 instructions: 46000004 cycles: 18128086 heartbeat IPC: 2.53594 cumulative IPC: 2.5375 (Simulation time: 0 hr 28 min 45 sec) 
Heartbeat CPU 0 instructions: 48000002 cycles: 18916575 heartbeat IPC: 2.53649 cumulative IPC: 2.53746 (Simulation time: 0 hr 29 min 53 sec) 
Heartbeat CPU 0 instructions: 50000004 cycles: 19699989 heartbeat IPC: 2.55293 cumulative IPC: 2.53807 (Simulation time: 0 hr 31 min 1 sec) 

Warmup complete CPU 0 instructions: 50000004 cycles: 19699989 (Simulation time: 0 hr 31 min 1 sec) 

Heartbeat CPU 0 instructions: 52000004 cycles: 20500064 heartbeat IPC: 2.49977 cumulative IPC: 2.49977 (Simulation time: 0 hr 32 min 22 sec) 

Region of Interest Statistics
cpu0_DTLB TOTAL     ACCESS:     737799  HIT:     737692  MISS:        107
cpu0_DTLB LOAD      ACCESS:     589863  HIT:     589840  MISS:         23
cpu0_DTLB RFO       ACCESS:     147936  HIT:     147852  MISS:         84
cpu0_DTLB PREFETCH  ACCESS:          0  HIT:          0  MISS:          0
cpu0_DTLB WRITEBACK ACCESS:          0  HIT:          0  MISS:          0
cpu0_ITLB TOTAL     ACCESS:      32878  HIT:      32878  MISS:          0
cpu0_ITLB LOAD      ACCESS:      32878  HIT:      32878  MISS:          0
cpu0_ITLB RFO       ACCESS:          0  HIT:          0  MISS:          0
cpu0_ITLB PREFETCH  ACCESS:          0  HIT:          0  MISS:          0
cpu0_ITLB WRITEBACK ACCESS:          0  HIT:          0  MISS:          0
cpu0_STLB TOTAL     ACCESS:        107  HIT:        107  MISS:          0
cpu0_STLB LOAD      ACCESS:         23  HIT:         23  MISS:          0
cpu0_STLB RFO       ACCESS:         84  HIT:         84  MISS:          0
cpu0_STLB PREFETCH  ACCESS:          0  HIT:          0  MISS:          0
cpu0_STLB WRITEBACK ACCESS:          0  HIT:          0  MISS:          0
cpu0_L1D TOTAL     ACCESS:     708828  HIT:     700670  MISS:       8158
cpu0_L1D LOAD      ACCESS:     598585  HIT:     595746  MISS:       2839
cpu0_L1D RFO       ACCESS:     110243  HIT:     104924  MISS:       5319
cpu0_L1D PREFETCH  ACCESS:          0  HIT:          0  MISS:          0
cpu0_L1D WRITEBACK ACCESS:          0  HIT:          0  MISS:          0
cpu0_L2C TOTAL     ACCESS:      13474  HIT:       8804  MISS:       4670
cpu0_L2C LOAD      ACCESS:       2839  HIT:       2756  MISS:         83
cpu0_L2C RFO       ACCESS:       5319  HIT:        732  MISS:       4587
cpu0_L2C PREFETCH  ACCESS:          0  HIT:          0  MISS:          0
cpu0_L2C WRITEBACK ACCESS:       5316  HIT:       5316  MISS:          0
LLC TOTAL     ACCESS:       9031  HIT:       8229  MISS:        802
LLC LOAD      ACCESS:         83  HIT:         63  MISS:         20
LLC RFO       ACCESS:       4586  HIT:       3804  MISS:        782
LLC PREFETCH  ACCESS:          0  HIT:          0  MISS:          0
LLC WRITEBACK ACCESS:       4362  HIT:       4362  MISS:          0
Heartbeat CPU 0 instructions: 54000002 cycles: 21299955 heartbeat IPC: 2.50034 cumulative IPC: 2.50005 (Simulation time: 0 hr 33 min 40 sec) 

Region of Interest Statistics
cpu0_DTLB TOTAL     ACCESS:    1476357  HIT:    1476151  MISS:        206
cpu0_DTLB LOAD      ACCESS:    1180097  HIT:    1180061  MISS:         36
cpu0_DTLB RFO       ACCESS:     296260  HIT:     296090  MISS:        170
cpu0_DTLB PREFETCH  ACCESS:          0  HIT:          0  MISS:          0
cpu0_DTLB WRITEBACK ACCESS:          0  HIT:          0  MISS:          0
cpu0_ITLB TOTAL     ACCESS:      65825  HIT:      65825  MISS:          0
cpu0_ITLB LOAD      ACCESS:      65825  HIT:      65825  MISS:          0
cpu0_ITLB RFO       ACCESS:          0  HIT:          0  MISS:          0
cpu0_ITLB PREFETCH  ACCESS:          0  HIT:          0  MISS:          0
cpu0_ITLB WRITEBACK ACCESS:          0  HIT:          0  MISS:          0
cpu0_STLB TOTAL     ACCESS:        206  HIT:        206  MISS:          0
cpu0_STLB LOAD      ACCESS:         36  HIT:         36  MISS:          0
cpu0_STLB RFO       ACCESS:        170  HIT:        170  MISS:          0
cpu0_STLB PREFETCH  ACCESS:          0  HIT:          0  MISS:          0
cpu0_STLB WRITEBACK ACCESS:          0  HIT:          0  MISS:          0
cpu0_L1D TOTAL     ACCESS:    1415341  HIT:    1399129  MISS:      16212
cpu0_L1D LOAD      ACCESS:    1198111  HIT:    1192544  MISS:       5567
cpu0_L1D RFO       ACCESS:     217230  HIT:     206585  MISS:      10645
cpu0_L1D PREFETCH  ACCESS:          0  HIT:          0  MISS:          0
cpu0_L1D WRITEBACK ACCESS:          0  HIT:          0  MISS:          0
cpu0_L2C TOTAL     ACCESS:      26866  HIT:      16749  MISS:      10117
cpu0_L2C LOAD      ACCESS:       5567  HIT:       5351  MISS:        216
cpu0_L2C RFO       ACCESS:      10645  HIT:        744  MISS:       9901
cpu0_L2C PREFETCH  ACCESS:          0  HIT:          0  MISS:          0
cpu0_L2C WRITEBACK ACCESS:      10654  HIT:      10654  MISS:          0
LLC TOTAL     ACCESS:      19701  HIT:      17686  MISS:       2015
LLC LOAD      ACCESS:        216  HIT:        174  MISS:         42
LLC RFO       ACCESS:       9900  HIT:       7927  MISS:       1973
LLC PREFETCH  ACCESS:          0  HIT:          0  MISS:          0
LLC WRITEBACK ACCESS:       9585  HIT:       9585  MISS:          0
Heartbeat CPU 0 instructions: 56000002 cycles: 22136646 heartbeat IPC: 2.39037 cumulative IPC: 2.46239 (Simulation time: 0 hr 35 min 0 sec) 

Region of Interest Statistics
cpu0_DTLB TOTAL     ACCESS:    2204996  HIT:    2204538  MISS:        458
cpu0_DTLB LOAD      ACCESS:    1760837  HIT:    1760647  MISS:        190
cpu0_DTLB RFO       ACCESS:     444159  HIT:     443891  MISS:        268
cpu0_DTLB PREFETCH  ACCESS:          0  HIT:          0  MISS:          0
cpu0_DTLB WRITEBACK ACCESS:          0  HIT:          0  MISS:          0
cpu0_ITLB TOTAL     ACCESS:     103368  HIT:     103368  MISS:          0
cpu0_ITLB LOAD      ACCESS:     103368  HIT:     103368  MISS:          0
cpu0_ITLB RFO       ACCESS:          0  HIT:          0  MISS:          0
cpu0_ITLB PREFETCH  ACCESS:          0  HIT:          0  MISS:          0
cpu0_ITLB WRITEBACK ACCESS:          0  HIT:          0  MISS:          0
cpu0_L1I TOTAL     ACCESS:       6039  HIT:       6039  MISS:          0
cpu0_L1I LOAD      ACCESS:       6039  HIT:       6039  MISS:          0
cpu0_L1I RFO       ACCESS:          0  HIT:          0  MISS:          0
cpu0_L1I PREFETCH  ACCESS:          0  HIT:          0  MISS:          0
cpu0_L1I WRITEBACK ACCESS:          0  HIT:          0  MISS:          0
cpu0_STLB TOTAL     ACCESS:        458  HIT:        458  MISS:          0
cpu0_STLB LOAD      ACCESS:        190  HIT:        190  MISS:          0
cpu0_STLB RFO       ACCESS:        268  HIT:        268  MISS:          0
cpu0_STLB PREFETCH  ACCESS:          0  HIT:          0  MISS:          0
cpu0_STLB WRITEBACK ACCESS:          0  HIT:          0  MISS:          0
cpu0_L1D TOTAL     ACCESS:    2108652  HIT:    2083820  MISS:      24832
cpu0_L1D LOAD      ACCESS:    1785392  HIT:    1776541  MISS:       8851
cpu0_L1D RFO       ACCESS:     323260  HIT:     307279  MISS:      15981
cpu0_L1D PREFETCH  ACCESS:          0  HIT:          0  MISS:          0
cpu0_L1D WRITEBACK ACCESS:          0  HIT:          0  MISS:          0
cpu0_L2C TOTAL     ACCESS:      40868  HIT:      24823  MISS:      16045
cpu0_L2C LOAD      ACCESS:       8851  HIT:       8007  MISS:        844
cpu0_L2C RFO       ACCESS:      15981  HIT:        782  MISS:      15199
cpu0_L2C PREFETCH  ACCESS:          0  HIT:          0  MISS:          0
cpu0_L2C WRITEBACK ACCESS:      16036  HIT:      16034  MISS:          2
LLC TOTAL     ACCESS:      31433  HIT:      28029  MISS:       3404
LLC LOAD      ACCESS:        844  HIT:        714  MISS:        130
LLC RFO       ACCESS:      15198  HIT:      11924  MISS:       3274
LLC PREFETCH  ACCESS:          0  HIT:          0  MISS:          0
LLC WRITEBACK ACCESS:      15391  HIT:      15391  MISS:          0
Heartbeat CPU 0 instructions: 58000002 cycles: 22936146 heartbeat IPC: 2.50156 cumulative IPC: 2.47207 (Simulation time: 0 hr 36 min 15 sec) 

Region of Interest Statistics
cpu0_DTLB TOTAL     ACCESS:    2943310  HIT:    2942755  MISS:        555
cpu0_DTLB LOAD      ACCESS:    2350919  HIT:    2350710  MISS:        209
cpu0_DTLB RFO       ACCESS:     592391  HIT:     592045  MISS:        346
cpu0_DTLB PREFETCH  ACCESS:          0  HIT:          0  MISS:          0
cpu0_DTLB WRITEBACK ACCESS:          0  HIT:          0  MISS:          0
cpu0_ITLB TOTAL     ACCESS:     136440  HIT:     136440  MISS:          0
cpu0_ITLB LOAD      ACCESS:     136440  HIT:     136440  MISS:          0
cpu0_ITLB RFO       ACCESS:          0  HIT:          0  MISS:          0
cpu0_ITLB PREFETCH  ACCESS:          0  HIT:          0  MISS:          0
cpu0_ITLB WRITEBACK ACCESS:          0  HIT:          0  MISS:          0
cpu0_L1I TOTAL     ACCESS:       6039  HIT:       6039  MISS:          0
cpu0_L1I LOAD      ACCESS:       6039  HIT:       6039  MISS:          0
cpu0_L1I RFO       ACCESS:          0  HIT:          0  MISS:          0
cpu0_L1I PREFETCH  ACCESS:          0  HIT:          0  MISS:          0
cpu0_L1I WRITEBACK ACCESS:          0  HIT:          0  MISS:          0
cpu0_STLB TOTAL     ACCESS:        555  HIT:        555  MISS:          0
cpu0_STLB LOAD      ACCESS:        209  HIT:        209  MISS:          0
cpu0_STLB RFO       ACCESS:        346  HIT:        346  MISS:          0
cpu0_STLB PREFETCH  ACCESS:          0  HIT:          0  MISS:          0
cpu0_STLB WRITEBACK ACCESS:          0  HIT:          0  MISS:          0
cpu0_L1D TOTAL     ACCESS:    2815653  HIT:    2782879  MISS:      32774
cpu0_L1D LOAD      ACCESS:    2385054  HIT:    2373581  MISS:      11473
cpu0_L1D RFO       ACCESS:     430599  HIT:     409298  MISS:      21301
cpu0_L1D PREFETCH  ACCESS:          0  HIT:          0  MISS:          0
cpu0_L1D WRITEBACK ACCESS:          0  HIT:          0  MISS:          0
cpu0_L2C TOTAL     ACCESS:      54139  HIT:      32864  MISS:      21275
cpu0_L2C LOAD      ACCESS:      11473  HIT:      10576  MISS:        897
cpu0_L2C RFO       ACCESS:      21301  HIT:        925  MISS:      20376
cpu0_L2C PREFETCH  ACCESS:          0  HIT:          0  MISS:          0
cpu0_L2C WRITEBACK ACCESS:      21365  HIT:      21363  MISS:          2
LLC TOTAL     ACCESS:      41660  HIT:      37291  MISS:       4369
LLC LOAD      ACCESS:        897  HIT:        761  MISS:        136
LLC RFO       ACCESS:      20375  HIT:      16142  MISS:       4233
LLC PREFETCH  ACCESS:          0  HIT:          0  MISS:          0
LLC WRITEBACK ACCESS:      20388  HIT:      20388  MISS:          0
Heartbeat CPU 0 instructions: 60000002 cycles: 23737780 heartbeat IPC: 2.4949 cumulative IPC: 2.4766 (Simulation time: 0 hr 37 min 30 sec) 

Region of Interest Statistics
cpu0_DTLB TOTAL     ACCESS:    3682372  HIT:    3681702  MISS:        670
cpu0_DTLB LOAD      ACCESS:    2941448  HIT:    2941210  MISS:        238
cpu0_DTLB RFO       ACCESS:     740924  HIT:     740492  MISS:        432
cpu0_DTLB PREFETCH  ACCESS:          0  HIT:          0  MISS:          0
cpu0_DTLB WRITEBACK ACCESS:          0  HIT:          0  MISS:          0
cpu0_ITLB TOTAL     ACCESS:     169339  HIT:     169339  MISS:          0
cpu0_ITLB LOAD      ACCESS:     169339  HIT:     169339  MISS:          0
cpu0_ITLB RFO       ACCESS:          0  HIT:          0  MISS:          0
cpu0_ITLB PREFETCH  ACCESS:          0  HIT:          0  MISS:          0
cpu0_ITLB WRITEBACK ACCESS:          0  HIT:          0  MISS:          0
cpu0_L1I TOTAL     ACCESS:       6039  HIT:       6039  MISS:          0
cpu0_L1I LOAD      ACCESS:       6039  HIT:       6039  MISS:          0
cpu0_L1I RFO       ACCESS:          0  HIT:          0  MISS:          0
cpu0_L1I PREFETCH  ACCESS:          0  HIT:          0  MISS:          0
cpu0_L1I WRITEBACK ACCESS:          0  HIT:          0  MISS:          0
cpu0_STLB TOTAL     ACCESS:        670  HIT:        670  MISS:          0
cpu0_STLB LOAD      ACCESS:        238  HIT:        238  MISS:          0
cpu0_STLB RFO       ACCESS:        432  HIT:        432  MISS:          0
cpu0_STLB PREFETCH  ACCESS:          0  HIT:          0  MISS:          0
cpu0_STLB WRITEBACK ACCESS:          0  HIT:          0  MISS:          0
cpu0_L1D TOTAL     ACCESS:    3523476  HIT:    3482680  MISS:      40796
cpu0_L1D LOAD      ACCESS:    2984494  HIT:    2970326  MISS:      14168
cpu0_L1D RFO       ACCESS:     538982  HIT:     512354  MISS:      26628
cpu0_L1D PREFETCH  ACCESS:          0  HIT:          0  MISS:          0
cpu0_L1D WRITEBACK ACCESS:          0  HIT:          0  MISS:          0
cpu0_L2C TOTAL     ACCESS:      67507  HIT:      40804  MISS:      26703
cpu0_L2C LOAD      ACCESS:      14168  HIT:      13154  MISS:       1014
cpu0_L2C RFO       ACCESS:      26628  HIT:        941  MISS:      25687
cpu0_L2C PREFETCH  ACCESS:          0  HIT:          0  MISS:          0
cpu0_L2C WRITEBACK ACCESS:      26711  HIT:      26709  MISS:          2
LLC TOTAL     ACCESS:      52300  HIT:      46843  MISS:       5457
LLC LOAD      ACCESS:       1014  HIT:        847  MISS:        167
LLC RFO       ACCESS:      25686  HIT:      20396  MISS:       5290
LLC PREFETCH  ACCESS:          0  HIT:          0  MISS:          0
LLC WRITEBACK ACCESS:      25600  HIT:      25600  MISS:          0
Heartbeat CPU 0 instructions: 62000000 cycles: 24537072 heartbeat IPC: 2.50221 cumulative IPC: 2.48083 (Simulation time: 0 hr 38 min 39 sec) 

Region of Interest Statistics
cpu0_DTLB TOTAL     ACCESS:    4420217  HIT:    4419458  MISS:        759
cpu0_DTLB LOAD      ACCESS:    3531390  HIT:    3531145  MISS:        245
cpu0_DTLB RFO       ACCESS:     888827  HIT:     888313  MISS:        514
cpu0_DTLB PREFETCH  ACCESS:          0  HIT:          0  MISS:          0
cpu0_DTLB WRITEBACK ACCESS:          0  HIT:          0  MISS:          0
cpu0_ITLB TOTAL     ACCESS:     202550  HIT:     202550  MISS:          0
cpu0_ITLB LOAD      ACCESS:     202550  HIT:     202550  MISS:          0
cpu0_ITLB RFO       ACCESS:          0  HIT:          0  MISS:          0
cpu0_ITLB PREFETCH  ACCESS:          0  HIT:          0  MISS:          0
cpu0_ITLB WRITEBACK ACCESS:          0  HIT:          0  MISS:          0
cpu0_L1I TOTAL     ACCESS:       6039  HIT:       6039  MISS:          0
cpu0_L1I LOAD      ACCESS:       6039  HIT:       6039  MISS:          0
cpu0_L1I RFO       ACCESS:          0  HIT:          0  MISS:          0
cpu0_L1I PREFETCH  ACCESS:          0  HIT:          0  MISS:          0
cpu0_L1I WRITEBACK ACCESS:          0  HIT:          0  MISS:          0
cpu0_STLB TOTAL     ACCESS:        759  HIT:        759  MISS:          0
cpu0_STLB LOAD      ACCESS:        245  HIT:        245  MISS:          0
cpu0_STLB RFO       ACCESS:        514  HIT:        514  MISS:          0
cpu0_STLB PREFETCH  ACCESS:          0  HIT:          0  MISS:          0
cpu0_STLB WRITEBACK ACCESS:          0  HIT:          0  MISS:          0
cpu0_L1D TOTAL     ACCESS:    4230274  HIT:    4181460  MISS:      48814
cpu0_L1D LOAD      ACCESS:    3584029  HIT:    3567164  MISS:      16865
cpu0_L1D RFO       ACCESS:     646245  HIT:     614296  MISS:      31949
cpu0_L1D PREFETCH  ACCESS:          0  HIT:          0  MISS:          0
cpu0_L1D WRITEBACK ACCESS:          0  HIT:          0  MISS:          0
cpu0_L2C TOTAL     ACCESS:      80812  HIT:      48645  MISS:      32167
cpu0_L2C LOAD      ACCESS:      16865  HIT:      15704  MISS:       1161
cpu0_L2C RFO       ACCESS:      31949  HIT:        945  MISS:      31004
cpu0_L2C PREFETCH  ACCESS:          0  HIT:          0  MISS:          0
cpu0_L2C WRITEBACK ACCESS:      31998  HIT:      31996  MISS:          2
LLC TOTAL     ACCESS:      63092  HIT:      56609  MISS:       6483
LLC LOAD      ACCESS:       1161  HIT:        973  MISS:        188
LLC RFO       ACCESS:      31003  HIT:      24708  MISS:       6295
LLC PREFETCH  ACCESS:          0  HIT:          0  MISS:          0
LLC WRITEBACK ACCESS:      30928  HIT:      30928  MISS:          0
Heartbeat CPU 0 instructions: 64000003 cycles: 25469639 heartbeat IPC: 2.14462 cumulative IPC: 2.42649 (Simulation time: 0 hr 39 min 57 sec) 

Region of Interest Statistics
cpu0_DTLB TOTAL     ACCESS:    5150071  HIT:    5149033  MISS:       1038
cpu0_DTLB LOAD      ACCESS:    4112675  HIT:    4112251  MISS:        424
cpu0_DTLB RFO       ACCESS:    1037396  HIT:    1036782  MISS:        614
cpu0_DTLB PREFETCH  ACCESS:          0  HIT:          0  MISS:          0
cpu0_DTLB WRITEBACK ACCESS:          0  HIT:          0  MISS:          0
cpu0_ITLB TOTAL     ACCESS:     238881  HIT:     238881  MISS:          0
cpu0_ITLB LOAD      ACCESS:     238881  HIT:     238881  MISS:          0
cpu0_ITLB RFO       ACCESS:          0  HIT:          0  MISS:          0
cpu0_ITLB PREFETCH  ACCESS:          0  HIT:          0  MISS:          0
cpu0_ITLB WRITEBACK ACCESS:          0  HIT:          0  MISS:          0
cpu0_L1I TOTAL     ACCESS:      11382  HIT:      11381  MISS:          1
cpu0_L1I LOAD      ACCESS:      11382  HIT:      11381  MISS:          1
cpu0_L1I RFO       ACCESS:          0  HIT:          0  MISS:          0
cpu0_L1I PREFETCH  ACCESS:          0  HIT:          0  MISS:          0
cpu0_L1I WRITEBACK ACCESS:          0  HIT:          0  MISS:          0
cpu0_STLB TOTAL     ACCESS:       1038  HIT:       1037  MISS:          1
cpu0_STLB LOAD      ACCESS:        424  HIT:        424  MISS:          0
cpu0_STLB RFO       ACCESS:        614  HIT:        613  MISS:          1
cpu0_STLB PREFETCH  ACCESS:          0  HIT:          0  MISS:          0
cpu0_STLB WRITEBACK ACCESS:          0  HIT:          0  MISS:          0
cpu0_L1D TOTAL     ACCESS:    4892144  HIT:    4835076  MISS:      57068
cpu0_L1D LOAD      ACCESS:    4172846  HIT:    4153089  MISS:      19757
cpu0_L1D RFO       ACCESS:     719297  HIT:     681987  MISS:      37310
cpu0_L1D PREFETCH  ACCESS:          0  HIT:          0  MISS:          0
cpu0_L1D WRITEBACK ACCESS:          0  HIT:          0  MISS:          0
cpu0_L2C TOTAL     ACCESS:      94402  HIT:      56163  MISS:      38239
cpu0_L2C LOAD      ACCESS:      19758  HIT:      17870  MISS:       1888
cpu0_L2C RFO       ACCESS:      37310  HIT:        965  MISS:      36345
cpu0_L2C PREFETCH  ACCESS:          0  HIT:          0  MISS:          0
cpu0_L2C WRITEBACK ACCESS:      37333  HIT:      37328  MISS:          5
LLC TOTAL     ACCESS:      75085  HIT:      65658  MISS:       9427
LLC LOAD      ACCESS:       1888  HIT:       1544  MISS:        344
LLC RFO       ACCESS:      36344  HIT:      27261  MISS:       9083
LLC PREFETCH  ACCESS:          0  HIT:          0  MISS:          0
LLC WRITEBACK ACCESS:      36852  HIT:      36852  MISS:          0
Heartbeat CPU 0 instructions: 66000004 cycles: 26281222 heartbeat IPC: 2.46432 cumulative IPC: 2.43116 (Simulation time: 0 hr 41 min 11 sec) 

Region of Interest Statistics
cpu0_DTLB TOTAL     ACCESS:    5888515  HIT:    5887363  MISS:       1152
cpu0_DTLB LOAD      ACCESS:    4702597  HIT:    4702146  MISS:        451
cpu0_DTLB RFO       ACCESS:    1185918  HIT:    1185217  MISS:        701
cpu0_DTLB PREFETCH  ACCESS:          0  HIT:          0  MISS:          0
cpu0_DTLB WRITEBACK ACCESS:          0  HIT:          0  MISS:          0
cpu0_ITLB TOTAL     ACCESS:     272006  HIT:     272006  MISS:          0
cpu0_ITLB LOAD      ACCESS:     272006  HIT:     272006  MISS:          0
cpu0_ITLB RFO       ACCESS:          0  HIT:          0  MISS:          0
cpu0_ITLB PREFETCH  ACCESS:          0  HIT:          0  MISS:          0
cpu0_ITLB WRITEBACK ACCESS:          0  HIT:          0  MISS:          0
cpu0_L1I TOTAL     ACCESS:      11382  HIT:      11381  MISS:          1
cpu0_L1I LOAD      ACCESS:      11382  HIT:      11381  MISS:          1
cpu0_L1I RFO       ACCESS:          0  HIT:          0  MISS:          0
cpu0_L1I PREFETCH  ACCESS:          0  HIT:          0  MISS:          0
cpu0_L1I WRITEBACK ACCESS:          0  HIT:          0  MISS:          0
cpu0_STLB TOTAL     ACCESS:       1152  HIT:       1151  MISS:          1
cpu0_STLB LOAD      ACCESS:        451  HIT:        451  MISS:          0
cpu0_STLB RFO       ACCESS:        701  HIT:        700  MISS:          1
cpu0_STLB PREFETCH  ACCESS:          0  HIT:          0  MISS:          0
cpu0_STLB WRITEBACK ACCESS:          0  HIT:          0  MISS:          0
cpu0_L1D TOTAL     ACCESS:    5589345  HIT:    5524540  MISS:      64805
cpu0_L1D LOAD      ACCESS:    4771622  HIT:    4749446  MISS:      22176
cpu0_L1D RFO       ACCESS:     817722  HIT:     775094  MISS:      42628
cpu0_L1D PREFETCH  ACCESS:          0  HIT:          0  MISS:          0
cpu0_L1D WRITEBACK ACCESS:          0  HIT:          0  MISS:          0
cpu0_L2C TOTAL     ACCESS:     107443  HIT:      63877  MISS:      43566
cpu0_L2C LOAD      ACCESS:      22177  HIT:      20183  MISS:       1994
cpu0_L2C RFO       ACCESS:      42628  HIT:       1062  MISS:      41566
cpu0_L2C PREFETCH  ACCESS:          0  HIT:          0  MISS:          0
cpu0_L2C WRITEBACK ACCESS:      42637  HIT:      42632  MISS:          5
LLC TOTAL     ACCESS:      85247  HIT:      74151  MISS:      11096
LLC LOAD      ACCESS:       1994  HIT:       1570  MISS:        424
LLC RFO       ACCESS:      41565  HIT:      30893  MISS:      10672
LLC PREFETCH  ACCESS:          0  HIT:          0  MISS:          0
LLC WRITEBACK ACCESS:      41687  HIT:      41687  MISS:          0
Heartbeat CPU 0 instructions: 68000001 cycles: 27088535 heartbeat IPC: 2.47735 cumulative IPC: 2.4362 (Simulation time: 0 hr 42 min 25 sec) 

Region of Interest Statistics
cpu0_DTLB TOTAL     ACCESS:    6627709  HIT:    6626458  MISS:       1251
cpu0_DTLB LOAD      ACCESS:    5293710  HIT:    5293243  MISS:        467
cpu0_DTLB RFO       ACCESS:    1333999  HIT:    1333215  MISS:        784
cpu0_DTLB PREFETCH  ACCESS:          0  HIT:          0  MISS:          0
cpu0_DTLB WRITEBACK ACCESS:          0  HIT:          0  MISS:          0
cpu0_ITLB TOTAL     ACCESS:     304844  HIT:     304844  MISS:          0
cpu0_ITLB LOAD      ACCESS:     304844  HIT:     304844  MISS:          0
cpu0_ITLB RFO       ACCESS:          0  HIT:          0  MISS:          0
cpu0_ITLB PREFETCH  ACCESS:          0  HIT:          0  MISS:          0
cpu0_ITLB WRITEBACK ACCESS:          0  HIT:          0  MISS:          0
cpu0_L1I TOTAL     ACCESS:      11382  HIT:      11381  MISS:          1
cpu0_L1I LOAD      ACCESS:      11382  HIT:      11381  MISS:          1
cpu0_L1I RFO       ACCESS:          0  HIT:          0  MISS:          0
cpu0_L1I PREFETCH  ACCESS:          0  HIT:          0  MISS:          0
cpu0_L1I WRITEBACK ACCESS:          0  HIT:          0  MISS:          0
cpu0_STLB TOTAL     ACCESS:       1251  HIT:       1250  MISS:          1
cpu0_STLB LOAD      ACCESS:        467  HIT:        467  MISS:          0
cpu0_STLB RFO       ACCESS:        784  HIT:        783  MISS:          1
cpu0_STLB PREFETCH  ACCESS:          0  HIT:          0  MISS:          0
cpu0_STLB WRITEBACK ACCESS:          0  HIT:          0  MISS:          0
cpu0_L1D TOTAL     ACCESS:    6290405  HIT:    6217534  MISS:      72871
cpu0_L1D LOAD      ACCESS:    5370932  HIT:    5346017  MISS:      24915
cpu0_L1D RFO       ACCESS:     919472  HIT:     871517  MISS:      47955
cpu0_L1D PREFETCH  ACCESS:          0  HIT:          0  MISS:          0
cpu0_L1D WRITEBACK ACCESS:          0  HIT:          0  MISS:          0
cpu0_L2C TOTAL     ACCESS:     120849  HIT:      71818  MISS:      49031
cpu0_L2C LOAD      ACCESS:      24916  HIT:      22764  MISS:       2152
cpu0_L2C RFO       ACCESS:      47955  HIT:       1082  MISS:      46873
cpu0_L2C PREFETCH  ACCESS:          0  HIT:          0  MISS:          0
cpu0_L2C WRITEBACK ACCESS:      47977  HIT:      47972  MISS:          5
LLC TOTAL     ACCESS:      95889  HIT:      83249  MISS:      12640
LLC LOAD      ACCESS:       2152  HIT:       1695  MISS:        457
LLC RFO       ACCESS:      46872  HIT:      34692  MISS:      12180
LLC PREFETCH  ACCESS:          0  HIT:          0  MISS:          0
LLC WRITEBACK ACCESS:      46864  HIT:      46861  MISS:          3
Heartbeat CPU 0 instructions: 70000001 cycles: 27924403 heartbeat IPC: 2.39272 cumulative IPC: 2.43178 (Simulation time: 0 hr 43 min 40 sec) 

Region of Interest Statistics
cpu0_DTLB TOTAL     ACCESS:    7357472  HIT:    7355950  MISS:       1522
cpu0_DTLB LOAD      ACCESS:    5875449  HIT:    5874812  MISS:        637
cpu0_DTLB RFO       ACCESS:    1482023  HIT:    1481138  MISS:        885
cpu0_DTLB PREFETCH  ACCESS:          0  HIT:          0  MISS:          0
cpu0_DTLB WRITEBACK ACCESS:          0  HIT:          0  MISS:          0
cpu0_ITLB TOTAL     ACCESS:     342134  HIT:     342134  MISS:          0
cpu0_ITLB LOAD      ACCESS:     342134  HIT:     342134  MISS:          0
cpu0_ITLB RFO       ACCESS:          0  HIT:          0  MISS:          0
cpu0_ITLB PREFETCH  ACCESS:          0  HIT:          0  MISS:          0
cpu0_ITLB WRITEBACK ACCESS:          0  HIT:          0  MISS:          0
cpu0_L1I TOTAL     ACCESS:      16843  HIT:      16842  MISS:          1
cpu0_L1I LOAD      ACCESS:      16843  HIT:      16842  MISS:          1
cpu0_L1I RFO       ACCESS:          0  HIT:          0  MISS:          0
cpu0_L1I PREFETCH  ACCESS:          0  HIT:          0  MISS:          0
cpu0_L1I WRITEBACK ACCESS:          0  HIT:          0  MISS:          0
cpu0_STLB TOTAL     ACCESS:       1522  HIT:       1521  MISS:          1
cpu0_STLB LOAD      ACCESS:        637  HIT:        637  MISS:          0
cpu0_STLB RFO       ACCESS:        885  HIT:        884  MISS:          1
cpu0_STLB PREFETCH  ACCESS:          0  HIT:          0  MISS:          0
cpu0_STLB WRITEBACK ACCESS:          0  HIT:          0  MISS:          0
cpu0_L1D TOTAL     ACCESS:    6981638  HIT:    6899968  MISS:      81670
cpu0_L1D LOAD      ACCESS:    5959393  HIT:    5931031  MISS:      28362
cpu0_L1D RFO       ACCESS:    1022244  HIT:     968937  MISS:      53307
cpu0_L1D PREFETCH  ACCESS:          0  HIT:          0  MISS:          0
cpu0_L1D WRITEBACK ACCESS:          0  HIT:          0  MISS:          0
cpu0_L2C TOTAL     ACCESS:     135071  HIT:      80012  MISS:      55059
cpu0_L2C LOAD      ACCESS:      28363  HIT:      25524  MISS:       2839
cpu0_L2C RFO       ACCESS:      53307  HIT:       1096  MISS:      52211
cpu0_L2C PREFETCH  ACCESS:          0  HIT:          0  MISS:          0
cpu0_L2C WRITEBACK ACCESS:      53400  HIT:      53392  MISS:          8
LLC TOTAL     ACCESS:     107820  HIT:      93529  MISS:      14291
LLC LOAD      ACCESS:       2839  HIT:       2299  MISS:        540
LLC RFO       ACCESS:      52210  HIT:      38462  MISS:      13748
LLC PREFETCH  ACCESS:          0  HIT:          0  MISS:          0
LLC WRITEBACK ACCESS:      52770  HIT:      52767  MISS:          3
Heartbeat CPU 0 instructions: 72000001 cycles: 28723881 heartbeat IPC: 2.50163 cumulative IPC: 2.43797 (Simulation time: 0 hr 44 min 58 sec) 

Region of Interest Statistics
cpu0_DTLB TOTAL     ACCESS:    8095636  HIT:    8094023  MISS:       1613
cpu0_DTLB LOAD      ACCESS:    6465613  HIT:    6464964  MISS:        649
cpu0_DTLB RFO       ACCESS:    1630023  HIT:    1629059  MISS:        964
cpu0_DTLB PREFETCH  ACCESS:          0  HIT:          0  MISS:          0
cpu0_DTLB WRITEBACK ACCESS:          0  HIT:          0  MISS:          0
cpu0_ITLB TOTAL     ACCESS:     375240  HIT:     375240  MISS:          0
cpu0_ITLB LOAD      ACCESS:     375240  HIT:     375240  MISS:          0
cpu0_ITLB RFO       ACCESS:          0  HIT:          0  MISS:          0
cpu0_ITLB PREFETCH  ACCESS:          0  HIT:          0  MISS:          0
cpu0_ITLB WRITEBACK ACCESS:          0  HIT:          0  MISS:          0
cpu0_L1I TOTAL     ACCESS:      16843  HIT:      16842  MISS:          1
cpu0_L1I LOAD      ACCESS:      16843  HIT:      16842  MISS:          1
cpu0_L1I RFO       ACCESS:          0  HIT:          0  MISS:          0
cpu0_L1I PREFETCH  ACCESS:          0  HIT:          0  MISS:          0
cpu0_L1I WRITEBACK ACCESS:          0  HIT:          0  MISS:          0
cpu0_STLB TOTAL     ACCESS:       1613  HIT:       1612  MISS:          1
cpu0_STLB LOAD      ACCESS:        649  HIT:        649  MISS:          0
cpu0_STLB RFO       ACCESS:        964  HIT:        963  MISS:          1
cpu0_STLB PREFETCH  ACCESS:          0  HIT:          0  MISS:          0
cpu0_STLB WRITEBACK ACCESS:          0  HIT:          0  MISS:          0
cpu0_L1D TOTAL     ACCESS:    7688041  HIT:    7598445  MISS:      89596
cpu0_L1D LOAD      ACCESS:    6558652  HIT:    6527685  MISS:      30967
cpu0_L1D RFO       ACCESS:    1129388  HIT:    1070760  MISS:      58628
cpu0_L1D PREFETCH  ACCESS:          0  HIT:          0  MISS:          0
cpu0_L1D WRITEBACK ACCESS:          0  HIT:          0  MISS:          0
cpu0_L2C TOTAL     ACCESS:     148309  HIT:      88013  MISS:      60296
cpu0_L2C LOAD      ACCESS:      30968  HIT:      28078  MISS:       2890
cpu0_L2C RFO       ACCESS:      58628  HIT:       1231  MISS:      57397
cpu0_L2C PREFETCH  ACCESS:          0  HIT:          0  MISS:          0
cpu0_L2C WRITEBACK ACCESS:      58712  HIT:      58704  MISS:          8
LLC TOTAL     ACCESS:     118089  HIT:     102796  MISS:      15293
LLC LOAD      ACCESS:       2890  HIT:       2342  MISS:        548
LLC RFO       ACCESS:      57396  HIT:      42654  MISS:      14742
LLC PREFETCH  ACCESS:          0  HIT:          0  MISS:          0
LLC WRITEBACK ACCESS:      57802  HIT:      57799  MISS:          3
Heartbeat CPU 0 instructions: 74000000 cycles: 29523145 heartbeat IPC: 2.5023 cumulative IPC: 2.44321 (Simulation time: 0 hr 46 min 14 sec) 

Region of Interest Statistics
cpu0_DTLB TOTAL     ACCESS:    8834451  HIT:    8832724  MISS:       1727
cpu0_DTLB LOAD      ACCESS:    7056195  HIT:    7055519  MISS:        676
cpu0_DTLB RFO       ACCESS:    1778256  HIT:    1777205  MISS:       1051
cpu0_DTLB PREFETCH  ACCESS:          0  HIT:          0  MISS:          0
cpu0_DTLB WRITEBACK ACCESS:          0  HIT:          0  MISS:          0
cpu0_ITLB TOTAL     ACCESS:     408189  HIT:     408189  MISS:          0
cpu0_ITLB LOAD      ACCESS:     408189  HIT:     408189  MISS:          0
cpu0_ITLB RFO       ACCESS:          0  HIT:          0  MISS:          0
cpu0_ITLB PREFETCH  ACCESS:          0  HIT:          0  MISS:          0
cpu0_ITLB WRITEBACK ACCESS:          0  HIT:          0  MISS:          0
cpu0_L1I TOTAL     ACCESS:      16843  HIT:      16842  MISS:          1
cpu0_L1I LOAD      ACCESS:      16843  HIT:      16842  MISS:          1
cpu0_L1I RFO       ACCESS:          0  HIT:          0  MISS:          0
cpu0_L1I PREFETCH  ACCESS:          0  HIT:          0  MISS:          0
cpu0_L1I WRITEBACK ACCESS:          0  HIT:          0  MISS:          0
cpu0_STLB TOTAL     ACCESS:       1727  HIT:       1726  MISS:          1
cpu0_STLB LOAD      ACCESS:        676  HIT:        676  MISS:          0
cpu0_STLB RFO       ACCESS:       1051  HIT:       1050  MISS:          1
cpu0_STLB PREFETCH  ACCESS:          0  HIT:          0  MISS:          0
cpu0_STLB WRITEBACK ACCESS:          0  HIT:          0  MISS:          0
cpu0_L1D TOTAL     ACCESS:    8395268  HIT:    8297577  MISS:      97691
cpu0_L1D LOAD      ACCESS:    7158137  HIT:    7124400  MISS:      33737
cpu0_L1D RFO       ACCESS:    1237130  HIT:    1173177  MISS:      63953
cpu0_L1D PREFETCH  ACCESS:          0  HIT:          0  MISS:          0
cpu0_L1D WRITEBACK ACCESS:          0  HIT:          0  MISS:          0
cpu0_L2C TOTAL     ACCESS:     161726  HIT:      96066  MISS:      65660
cpu0_L2C LOAD      ACCESS:      33738  HIT:      30756  MISS:       2982
cpu0_L2C RFO       ACCESS:      63953  HIT:       1284  MISS:      62669
cpu0_L2C PREFETCH  ACCESS:          0  HIT:          0  MISS:          0
cpu0_L2C WRITEBACK ACCESS:      64034  HIT:      64026  MISS:          8
LLC TOTAL     ACCESS:     128499  HIT:     112076  MISS:      16423
LLC LOAD      ACCESS:       2982  HIT:       2422  MISS:        560
LLC RFO       ACCESS:      62668  HIT:      46808  MISS:      15860
LLC PREFETCH  ACCESS:          0  HIT:          0  MISS:          0
LLC WRITEBACK ACCESS:      62848  HIT:      62845  MISS:          3
Heartbeat CPU 0 instructions: 76000003 cycles: 30322134 heartbeat IPC: 2.50317 cumulative IPC: 2.44772 (Simulation time: 0 hr 47 min 52 sec) 

Region of Interest Statistics
cpu0_DTLB TOTAL     ACCESS:    9572297  HIT:    9570481  MISS:       1816
cpu0_DTLB LOAD      ACCESS:    7646176  HIT:    7645493  MISS:        683
cpu0_DTLB RFO       ACCESS:    1926121  HIT:    1924988  MISS:       1133
cpu0_DTLB PREFETCH  ACCESS:          0  HIT:          0  MISS:          0
cpu0_DTLB WRITEBACK ACCESS:          0  HIT:          0  MISS:          0
cpu0_ITLB TOTAL     ACCESS:     441411  HIT:     441411  MISS:          0
cpu0_ITLB LOAD      ACCESS:     441411  HIT:     441411  MISS:          0
cpu0_ITLB RFO       ACCESS:          0  HIT:          0  MISS:          0
cpu0_ITLB PREFETCH  ACCESS:          0  HIT:          0  MISS:          0
cpu0_ITLB WRITEBACK ACCESS:          0  HIT:          0  MISS:          0
cpu0_L1I TOTAL     ACCESS:      16843  HIT:      16842  MISS:          1
cpu0_L1I LOAD      ACCESS:      16843  HIT:      16842  MISS:          1
cpu0_L1I RFO       ACCESS:          0  HIT:          0  MISS:          0
cpu0_L1I PREFETCH  ACCESS:          0  HIT:          0  MISS:          0
cpu0_L1I WRITEBACK ACCESS:          0  HIT:          0  MISS:          0
cpu0_STLB TOTAL     ACCESS:       1816  HIT:       1815  MISS:          1
cpu0_STLB LOAD      ACCESS:        683  HIT:        683  MISS:          0
cpu0_STLB RFO       ACCESS:       1133  HIT:       1132  MISS:          1
cpu0_STLB PREFETCH  ACCESS:          0  HIT:          0  MISS:          0
cpu0_STLB WRITEBACK ACCESS:          0  HIT:          0  MISS:          0
cpu0_L1D TOTAL     ACCESS:    9101293  HIT:    8995365  MISS:     105928
cpu0_L1D LOAD      ACCESS:    7757422  HIT:    7720769  MISS:      36653
cpu0_L1D RFO       ACCESS:    1343870  HIT:    1274596  MISS:      69274
cpu0_L1D PREFETCH  ACCESS:          0  HIT:          0  MISS:          0
cpu0_L1D WRITEBACK ACCESS:          0  HIT:          0  MISS:          0
cpu0_L2C TOTAL     ACCESS:     175289  HIT:     104162  MISS:      71127
cpu0_L2C LOAD      ACCESS:      36654  HIT:      33522  MISS:       3132
cpu0_L2C RFO       ACCESS:      69274  HIT:       1288  MISS:      67986
cpu0_L2C PREFETCH  ACCESS:          0  HIT:          0  MISS:          0
cpu0_L2C WRITEBACK ACCESS:      69360  HIT:      69352  MISS:          8
LLC TOTAL     ACCESS:     139336  HIT:     121859  MISS:      17477
LLC LOAD      ACCESS:       3132  HIT:       2554  MISS:        578
LLC RFO       ACCESS:      67985  HIT:      51089  MISS:      16896
LLC PREFETCH  ACCESS:          0  HIT:          0  MISS:          0
LLC WRITEBACK ACCESS:      68218  HIT:      68215  MISS:          3
Heartbeat CPU 0 instructions: 78000000 cycles: 31150717 heartbeat IPC: 2.41376 cumulative IPC: 2.44526 (Simulation time: 0 hr 49 min 27 sec) 

Region of Interest Statistics
cpu0_DTLB TOTAL     ACCESS:   10302096  HIT:   10299981  MISS:       2115
cpu0_DTLB LOAD      ACCESS:    8227662  HIT:    8226785  MISS:        877
cpu0_DTLB RFO       ACCESS:    2074434  HIT:    2073196  MISS:       1238
cpu0_DTLB PREFETCH  ACCESS:          0  HIT:          0  MISS:          0
cpu0_DTLB WRITEBACK ACCESS:          0  HIT:          0  MISS:          0
cpu0_ITLB TOTAL     ACCESS:     478687  HIT:     478687  MISS:          0
cpu0_ITLB LOAD      ACCESS:     478687  HIT:     478687  MISS:          0
cpu0_ITLB RFO       ACCESS:          0  HIT:          0  MISS:          0
cpu0_ITLB PREFETCH  ACCESS:          0  HIT:          0  MISS:          0
cpu0_ITLB WRITEBACK ACCESS:          0  HIT:          0  MISS:          0
cpu0_L1I TOTAL     ACCESS:      22241  HIT:      22240  MISS:          1
cpu0_L1I LOAD      ACCESS:      22241  HIT:      22240  MISS:          1
cpu0_L1I RFO       ACCESS:          0  HIT:          0  MISS:          0
cpu0_L1I PREFETCH  ACCESS:          0  HIT:          0  MISS:          0
cpu0_L1I WRITEBACK ACCESS:          0  HIT:          0  MISS:          0
cpu0_STLB TOTAL     ACCESS:       2115  HIT:       2113  MISS:          2
cpu0_STLB LOAD      ACCESS:        877  HIT:        876  MISS:          1
cpu0_STLB RFO       ACCESS:       1238  HIT:       1237  MISS:          1
cpu0_STLB PREFETCH  ACCESS:          0  HIT:          0  MISS:          0
cpu0_STLB WRITEBACK ACCESS:          0  HIT:          0  MISS:          0
cpu0_L1D TOTAL     ACCESS:    9800432  HIT:    9685576  MISS:     114856
cpu0_L1D LOAD      ACCESS:    8346795  HIT:    8306563  MISS:      40232
cpu0_L1D RFO       ACCESS:    1453635  HIT:    1379013  MISS:      74622
cpu0_L1D PREFETCH  ACCESS:          0  HIT:          0  MISS:          0
cpu0_L1D WRITEBACK ACCESS:          0  HIT:          0  MISS:          0
cpu0_L2C TOTAL     ACCESS:     189632  HIT:     112542  MISS:      77090
cpu0_L2C LOAD      ACCESS:      40233  HIT:      36448  MISS:       3785
cpu0_L2C RFO       ACCESS:      74622  HIT:       1330  MISS:      73292
cpu0_L2C PREFETCH  ACCESS:          0  HIT:          0  MISS:          0
cpu0_L2C WRITEBACK ACCESS:      74775  HIT:      74764  MISS:         11
LLC TOTAL     ACCESS:     151047  HIT:     132447  MISS:      18600
LLC LOAD      ACCESS:       3785  HIT:       3140  MISS:        645
LLC RFO       ACCESS:      73291  HIT:      55340  MISS:      17951
LLC PREFETCH  ACCESS:          0  HIT:          0  MISS:          0
LLC WRITEBACK ACCESS:      73969  HIT:      73966  MISS:          3
Heartbeat CPU 0 instructions: 80000001 cycles: 31949438 heartbeat IPC: 2.504 cumulative IPC: 2.44909 (Simulation time: 0 hr 50 min 58 sec) 

Region of Interest Statistics
cpu0_DTLB TOTAL     ACCESS:   11040912  HIT:   11038684  MISS:       2228
cpu0_DTLB LOAD      ACCESS:    8818239  HIT:    8817335  MISS:        904
cpu0_DTLB RFO       ACCESS:    2222673  HIT:    2221349  MISS:       1324
cpu0_DTLB PREFETCH  ACCESS:          0  HIT:          0  MISS:          0
cpu0_DTLB WRITEBACK ACCESS:          0  HIT:          0  MISS:          0
cpu0_ITLB TOTAL     ACCESS:     511543  HIT:     511543  MISS:          0
cpu0_ITLB LOAD      ACCESS:     511543  HIT:     511543  MISS:          0
cpu0_ITLB RFO       ACCESS:          0  HIT:          0  MISS:          0
cpu0_ITLB PREFETCH  ACCESS:          0  HIT:          0  MISS:          0
cpu0_ITLB WRITEBACK ACCESS:          0  HIT:          0  MISS:          0
cpu0_L1I TOTAL     ACCESS:      22241  HIT:      22240  MISS:          1
cpu0_L1I LOAD      ACCESS:      22241  HIT:      22240  MISS:          1
cpu0_L1I RFO       ACCESS:          0  HIT:          0  MISS:          0
cpu0_L1I PREFETCH  ACCESS:          0  HIT:          0  MISS:          0
cpu0_L1I WRITEBACK ACCESS:          0  HIT:          0  MISS:          0
cpu0_STLB TOTAL     ACCESS:       2228  HIT:       2226  MISS:          2
cpu0_STLB LOAD      ACCESS:        904  HIT:        903  MISS:          1
cpu0_STLB RFO       ACCESS:       1324  HIT:       1323  MISS:          1
cpu0_STLB PREFETCH  ACCESS:          0  HIT:          0  MISS:          0
cpu0_STLB WRITEBACK ACCESS:          0  HIT:          0  MISS:          0
cpu0_L1D TOTAL     ACCESS:   10508729  HIT:   10385572  MISS:     123157
cpu0_L1D LOAD      ACCESS:    8946739  HIT:    8903532  MISS:      43207
cpu0_L1D RFO       ACCESS:    1561988  HIT:    1482040  MISS:      79948
cpu0_L1D PREFETCH  ACCESS:          0  HIT:          0  MISS:          0
cpu0_L1D WRITEBACK ACCESS:          0  HIT:          0  MISS:          0
cpu0_L2C TOTAL     ACCESS:     203233  HIT:     120814  MISS:      82419
cpu0_L2C LOAD      ACCESS:      43208  HIT:      39327  MISS:       3881
cpu0_L2C RFO       ACCESS:      79948  HIT:       1423  MISS:      78525
cpu0_L2C PREFETCH  ACCESS:          0  HIT:          0  MISS:          0
cpu0_L2C WRITEBACK ACCESS:      80075  HIT:      80064  MISS:         11
LLC TOTAL     ACCESS:     161410  HIT:     141817  MISS:      19593
LLC LOAD      ACCESS:       3881  HIT:       3236  MISS:        645
LLC RFO       ACCESS:      78524  HIT:      59580  MISS:      18944
LLC PREFETCH  ACCESS:          0  HIT:          0  MISS:          0
LLC WRITEBACK ACCESS:      79003  HIT:      79000  MISS:          3
Heartbeat CPU 0 instructions: 82000000 cycles: 32749365 heartbeat IPC: 2.50023 cumulative IPC: 2.45222 (Simulation time: 0 hr 52 min 34 sec) 

Region of Interest Statistics
cpu0_DTLB TOTAL     ACCESS:   11779317  HIT:   11776990  MISS:       2327
cpu0_DTLB LOAD      ACCESS:    9408631  HIT:    9407711  MISS:        920
cpu0_DTLB RFO       ACCESS:    2370686  HIT:    2369279  MISS:       1407
cpu0_DTLB PREFETCH  ACCESS:          0  HIT:          0  MISS:          0
cpu0_DTLB WRITEBACK ACCESS:          0  HIT:          0  MISS:          0
cpu0_ITLB TOTAL     ACCESS:     544736  HIT:     544736  MISS:          0
cpu0_ITLB LOAD      ACCESS:     544736  HIT:     544736  MISS:          0
cpu0_ITLB RFO       ACCESS:          0  HIT:          0  MISS:          0
cpu0_ITLB PREFETCH  ACCESS:          0  HIT:          0  MISS:          0
cpu0_ITLB WRITEBACK ACCESS:          0  HIT:          0  MISS:          0
cpu0_L1I TOTAL     ACCESS:      22241  HIT:      22240  MISS:          1
cpu0_L1I LOAD      ACCESS:      22241  HIT:      22240  MISS:          1
cpu0_L1I RFO       ACCESS:          0  HIT:          0  MISS:          0
cpu0_L1I PREFETCH  ACCESS:          0  HIT:          0  MISS:          0
cpu0_L1I WRITEBACK ACCESS:          0  HIT:          0  MISS:          0
cpu0_STLB TOTAL     ACCESS:       2327  HIT:       2325  MISS:          2
cpu0_STLB LOAD      ACCESS:        920  HIT:        919  MISS:          1
cpu0_STLB RFO       ACCESS:       1407  HIT:       1406  MISS:          1
cpu0_STLB PREFETCH  ACCESS:          0  HIT:          0  MISS:          0
cpu0_STLB WRITEBACK ACCESS:          0  HIT:          0  MISS:          0
cpu0_L1D TOTAL     ACCESS:   11216067  HIT:   11084734  MISS:     131333
cpu0_L1D LOAD      ACCESS:    9546315  HIT:    9500254  MISS:      46061
cpu0_L1D RFO       ACCESS:    1669750  HIT:    1584480  MISS:      85270
cpu0_L1D PREFETCH  ACCESS:          0  HIT:          0  MISS:          0
cpu0_L1D WRITEBACK ACCESS:          0  HIT:          0  MISS:          0
cpu0_L2C TOTAL     ACCESS:     216749  HIT:     128934  MISS:      87815
cpu0_L2C LOAD      ACCESS:      46062  HIT:      42095  MISS:       3967
cpu0_L2C RFO       ACCESS:      85270  HIT:       1435  MISS:      83835
cpu0_L2C PREFETCH  ACCESS:          0  HIT:          0  MISS:          0
cpu0_L2C WRITEBACK ACCESS:      85415  HIT:      85404  MISS:         11
LLC TOTAL     ACCESS:     172050  HIT:     151348  MISS:      20702
LLC LOAD      ACCESS:       3967  HIT:       3299  MISS:        668
LLC RFO       ACCESS:      83834  HIT:      63804  MISS:      20030
LLC PREFETCH  ACCESS:          0  HIT:          0  MISS:          0
LLC WRITEBACK ACCESS:      84247  HIT:      84244  MISS:          3
Heartbeat CPU 0 instructions: 84000001 cycles: 33579174 heartbeat IPC: 2.41019 cumulative IPC: 2.44971 (Simulation time: 0 hr 53 min 57 sec) 

Region of Interest Statistics
cpu0_DTLB TOTAL     ACCESS:   12509297  HIT:   12506644  MISS:       2653
cpu0_DTLB LOAD      ACCESS:    9990277  HIT:    9989151  MISS:       1126
cpu0_DTLB RFO       ACCESS:    2519020  HIT:    2517493  MISS:       1527
cpu0_DTLB PREFETCH  ACCESS:          0  HIT:          0  MISS:          0
cpu0_DTLB WRITEBACK ACCESS:          0  HIT:          0  MISS:          0
cpu0_ITLB TOTAL     ACCESS:     581853  HIT:     581853  MISS:          0
cpu0_ITLB LOAD      ACCESS:     581853  HIT:     581853  MISS:          0
cpu0_ITLB RFO       ACCESS:          0  HIT:          0  MISS:          0
cpu0_ITLB PREFETCH  ACCESS:          0  HIT:          0  MISS:          0
cpu0_ITLB WRITEBACK ACCESS:          0  HIT:          0  MISS:          0
cpu0_L1I TOTAL     ACCESS:      27450  HIT:      27449  MISS:          1
cpu0_L1I LOAD      ACCESS:      27450  HIT:      27449  MISS:          1
cpu0_L1I RFO       ACCESS:          0  HIT:          0  MISS:          0
cpu0_L1I PREFETCH  ACCESS:          0  HIT:          0  MISS:          0
cpu0_L1I WRITEBACK ACCESS:          0  HIT:          0  MISS:          0
cpu0_STLB TOTAL     ACCESS:       2653  HIT:       2650  MISS:          3
cpu0_STLB LOAD      ACCESS:       1126  HIT:       1125  MISS:          1
cpu0_STLB RFO       ACCESS:       1527  HIT:       1525  MISS:          2
cpu0_STLB PREFETCH  ACCESS:          0  HIT:          0  MISS:          0
cpu0_STLB WRITEBACK ACCESS:          0  HIT:          0  MISS:          0
cpu0_L1D TOTAL     ACCESS:   11911584  HIT:   11771555  MISS:     140029
cpu0_L1D LOAD      ACCESS:   10135296  HIT:   10085889  MISS:      49407
cpu0_L1D RFO       ACCESS:    1776285  HIT:    1685666  MISS:      90619
cpu0_L1D PREFETCH  ACCESS:          0  HIT:          0  MISS:          0
cpu0_L1D WRITEBACK ACCESS:          0  HIT:          0  MISS:          0
cpu0_L2C TOTAL     ACCESS:     230801  HIT:     136978  MISS:      93823
cpu0_L2C LOAD      ACCESS:      49408  HIT:      44770  MISS:       4638
cpu0_L2C RFO       ACCESS:      90619  HIT:       1451  MISS:      89168
cpu0_L2C PREFETCH  ACCESS:          0  HIT:          0  MISS:          0
cpu0_L2C WRITEBACK ACCESS:      90771  HIT:      90757  MISS:         14
LLC TOTAL     ACCESS:     183917  HIT:     161804  MISS:      22113
LLC LOAD      ACCESS:       4638  HIT:       3893  MISS:        745
LLC RFO       ACCESS:      89167  HIT:      67803  MISS:      21364
LLC PREFETCH  ACCESS:          0  HIT:          0  MISS:          0
LLC WRITEBACK ACCESS:      90109  HIT:      90106  MISS:          3
Heartbeat CPU 0 instructions: 86000004 cycles: 34378724 heartbeat IPC: 2.50141 cumulative IPC: 2.45253 (Simulation time: 0 hr 55 min 13 sec) 

Region of Interest Statistics
cpu0_DTLB TOTAL     ACCESS:   13247775  HIT:   13245031  MISS:       2744
cpu0_DTLB LOAD      ACCESS:   10580554  HIT:   10579418  MISS:       1136
cpu0_DTLB RFO       ACCESS:    2667221  HIT:    2665613  MISS:       1608
cpu0_DTLB PREFETCH  ACCESS:          0  HIT:          0  MISS:          0
cpu0_DTLB WRITEBACK ACCESS:          0  HIT:          0  MISS:          0
cpu0_ITLB TOTAL     ACCESS:     614967  HIT:     614967  MISS:          0
cpu0_ITLB LOAD      ACCESS:     614967  HIT:     614967  MISS:          0
cpu0_ITLB RFO       ACCESS:          0  HIT:          0  MISS:          0
cpu0_ITLB PREFETCH  ACCESS:          0  HIT:          0  MISS:          0
cpu0_ITLB WRITEBACK ACCESS:          0  HIT:          0  MISS:          0
cpu0_L1I TOTAL     ACCESS:      27450  HIT:      27449  MISS:          1
cpu0_L1I LOAD      ACCESS:      27450  HIT:      27449  MISS:          1
cpu0_L1I RFO       ACCESS:          0  HIT:          0  MISS:          0
cpu0_L1I PREFETCH  ACCESS:          0  HIT:          0  MISS:          0
cpu0_L1I WRITEBACK ACCESS:          0  HIT:          0  MISS:          0
cpu0_STLB TOTAL     ACCESS:       2744  HIT:       2741  MISS:          3
cpu0_STLB LOAD      ACCESS:       1136  HIT:       1135  MISS:          1
cpu0_STLB RFO       ACCESS:       1608  HIT:       1606  MISS:          2
cpu0_STLB PREFETCH  ACCESS:          0  HIT:          0  MISS:          0
cpu0_STLB WRITEBACK ACCESS:          0  HIT:          0  MISS:          0
cpu0_L1D TOTAL     ACCESS:   12616942  HIT:   12468908  MISS:     148034
cpu0_L1D LOAD      ACCESS:   10734394  HIT:   10682303  MISS:      52091
cpu0_L1D RFO       ACCESS:    1882545  HIT:    1786605  MISS:      95940
cpu0_L1D PREFETCH  ACCESS:          0  HIT:          0  MISS:          0
cpu0_L1D WRITEBACK ACCESS:          0  HIT:          0  MISS:          0
cpu0_L2C TOTAL     ACCESS:     244140  HIT:     145040  MISS:      99100
cpu0_L2C LOAD      ACCESS:      52092  HIT:      47374  MISS:       4718
cpu0_L2C RFO       ACCESS:      95940  HIT:       1575  MISS:      94365
cpu0_L2C PREFETCH  ACCESS:          0  HIT:          0  MISS:          0
cpu0_L2C WRITEBACK ACCESS:      96105  HIT:      96091  MISS:         14
LLC TOTAL     ACCESS:     194208  HIT:     171057  MISS:      23151
LLC LOAD      ACCESS:       4718  HIT:       3964  MISS:        754
LLC RFO       ACCESS:      94364  HIT:      71971  MISS:      22393
LLC PREFETCH  ACCESS:          0  HIT:          0  MISS:          0
LLC WRITEBACK ACCESS:      95123  HIT:      95120  MISS:          3
Heartbeat CPU 0 instructions: 88000003 cycles: 35185055 heartbeat IPC: 2.48037 cumulative IPC: 2.45398 (Simulation time: 0 hr 56 min 28 sec) 

Region of Interest Statistics
cpu0_DTLB TOTAL     ACCESS:   13986969  HIT:   13984107  MISS:       2862
cpu0_DTLB LOAD      ACCESS:   11171477  HIT:   11170310  MISS:       1167
cpu0_DTLB RFO       ACCESS:    2815492  HIT:    2813797  MISS:       1695
cpu0_DTLB PREFETCH  ACCESS:          0  HIT:          0  MISS:          0
cpu0_DTLB WRITEBACK ACCESS:          0  HIT:          0  MISS:          0
cpu0_ITLB TOTAL     ACCESS:     647832  HIT:     647832  MISS:          0
cpu0_ITLB LOAD      ACCESS:     647832  HIT:     647832  MISS:          0
cpu0_ITLB RFO       ACCESS:          0  HIT:          0  MISS:          0
cpu0_ITLB PREFETCH  ACCESS:          0  HIT:          0  MISS:          0
cpu0_ITLB WRITEBACK ACCESS:          0  HIT:          0  MISS:          0
cpu0_L1I TOTAL     ACCESS:      27450  HIT:      27449  MISS:          1
cpu0_L1I LOAD      ACCESS:      27450  HIT:      27449  MISS:          1
cpu0_L1I RFO       ACCESS:          0  HIT:          0  MISS:          0
cpu0_L1I PREFETCH  ACCESS:          0  HIT:          0  MISS:          0
cpu0_L1I WRITEBACK ACCESS:          0  HIT:          0  MISS:          0
cpu0_STLB TOTAL     ACCESS:       2862  HIT:       2859  MISS:          3
cpu0_STLB LOAD      ACCESS:       1167  HIT:       1166  MISS:          1
cpu0_STLB RFO       ACCESS:       1695  HIT:       1693  MISS:          2
cpu0_STLB PREFETCH  ACCESS:          0  HIT:          0  MISS:          0
cpu0_STLB WRITEBACK ACCESS:          0  HIT:          0  MISS:          0
cpu0_L1D TOTAL     ACCESS:   13324147  HIT:   13168022  MISS:     156125
cpu0_L1D LOAD      ACCESS:   11333600  HIT:   11278742  MISS:      54858
cpu0_L1D RFO       ACCESS:    1990544  HIT:    1889280  MISS:     101264
cpu0_L1D PREFETCH  ACCESS:          0  HIT:          0  MISS:          0
cpu0_L1D WRITEBACK ACCESS:          0  HIT:          0  MISS:          0
cpu0_L2C TOTAL     ACCESS:     257568  HIT:     153046  MISS:     104522
cpu0_L2C LOAD      ACCESS:      54859  HIT:      49994  MISS:       4865
cpu0_L2C RFO       ACCESS:     101264  HIT:       1624  MISS:      99640
cpu0_L2C PREFETCH  ACCESS:          0  HIT:          0  MISS:          0
cpu0_L2C WRITEBACK ACCESS:     101442  HIT:     101428  MISS:         14
LLC TOTAL     ACCESS:     204786  HIT:     180527  MISS:      24259
LLC LOAD      ACCESS:       4865  HIT:       4045  MISS:        820
LLC RFO       ACCESS:      99639  HIT:      76204  MISS:      23435
LLC PREFETCH  ACCESS:          0  HIT:          0  MISS:          0
LLC WRITEBACK ACCESS:     100279  HIT:     100276  MISS:          3
Heartbeat CPU 0 instructions: 90000001 cycles: 35984016 heartbeat IPC: 2.50325 cumulative IPC: 2.45639 (Simulation time: 0 hr 57 min 47 sec) 

Region of Interest Statistics
cpu0_DTLB TOTAL     ACCESS:   14725379  HIT:   14722431  MISS:       2948
cpu0_DTLB LOAD      ACCESS:   11761886  HIT:   11760715  MISS:       1171
cpu0_DTLB RFO       ACCESS:    2963493  HIT:    2961716  MISS:       1777
cpu0_DTLB PREFETCH  ACCESS:          0  HIT:          0  MISS:          0
cpu0_DTLB WRITEBACK ACCESS:          0  HIT:          0  MISS:          0
cpu0_ITLB TOTAL     ACCESS:     681045  HIT:     681045  MISS:          0
cpu0_ITLB LOAD      ACCESS:     681045  HIT:     681045  MISS:          0
cpu0_ITLB RFO       ACCESS:          0  HIT:          0  MISS:          0
cpu0_ITLB PREFETCH  ACCESS:          0  HIT:          0  MISS:          0
cpu0_ITLB WRITEBACK ACCESS:          0  HIT:          0  MISS:          0
cpu0_L1I TOTAL     ACCESS:      27450  HIT:      27449  MISS:          1
cpu0_L1I LOAD      ACCESS:      27450  HIT:      27449  MISS:          1
cpu0_L1I RFO       ACCESS:          0  HIT:          0  MISS:          0
cpu0_L1I PREFETCH  ACCESS:          0  HIT:          0  MISS:          0
cpu0_L1I WRITEBACK ACCESS:          0  HIT:          0  MISS:          0
cpu0_STLB TOTAL     ACCESS:       2948  HIT:       2945  MISS:          3
cpu0_STLB LOAD      ACCESS:       1171  HIT:       1170  MISS:          1
cpu0_STLB RFO       ACCESS:       1777  HIT:       1775  MISS:          2
cpu0_STLB PREFETCH  ACCESS:          0  HIT:          0  MISS:          0
cpu0_STLB WRITEBACK ACCESS:          0  HIT:          0  MISS:          0
cpu0_L1D TOTAL     ACCESS:   14028989  HIT:   13864805  MISS:     164184
cpu0_L1D LOAD      ACCESS:   11932833  HIT:   11875238  MISS:      57595
cpu0_L1D RFO       ACCESS:    2096153  HIT:    1989567  MISS:     106586
cpu0_L1D PREFETCH  ACCESS:          0  HIT:          0  MISS:          0
cpu0_L1D WRITEBACK ACCESS:          0  HIT:          0  MISS:          0
cpu0_L2C TOTAL     ACCESS:     270962  HIT:     161040  MISS:     109922
cpu0_L2C LOAD      ACCESS:      57596  HIT:      52649  MISS:       4947
cpu0_L2C RFO       ACCESS:     106586  HIT:       1628  MISS:     104958
cpu0_L2C PREFETCH  ACCESS:          0  HIT:          0  MISS:          0
cpu0_L2C WRITEBACK ACCESS:     106777  HIT:     106763  MISS:         14
LLC TOTAL     ACCESS:     215441  HIT:     190026  MISS:      25415
LLC LOAD      ACCESS:       4947  HIT:       4109  MISS:        838
LLC RFO       ACCESS:     104957  HIT:      80384  MISS:      24573
LLC PREFETCH  ACCESS:          0  HIT:          0  MISS:          0
LLC WRITEBACK ACCESS:     105534  HIT:     105531  MISS:          3
Heartbeat CPU 0 instructions: 92000004 cycles: 36805777 heartbeat IPC: 2.4338 cumulative IPC: 2.45531 (Simulation time: 0 hr 59 min 8 sec) 

Region of Interest Statistics
cpu0_DTLB TOTAL     ACCESS:   15459675  HIT:   15456473  MISS:       3202
cpu0_DTLB LOAD      ACCESS:   12347626  HIT:   12346297  MISS:       1329
cpu0_DTLB RFO       ACCESS:    3112049  HIT:    3110176  MISS:       1873
cpu0_DTLB PREFETCH  ACCESS:          0  HIT:          0  MISS:          0
cpu0_DTLB WRITEBACK ACCESS:          0  HIT:          0  MISS:          0
cpu0_ITLB TOTAL     ACCESS:     716639  HIT:     716639  MISS:          0
cpu0_ITLB LOAD      ACCESS:     716639  HIT:     716639  MISS:          0
cpu0_ITLB RFO       ACCESS:          0  HIT:          0  MISS:          0
cpu0_ITLB PREFETCH  ACCESS:          0  HIT:          0  MISS:          0
cpu0_ITLB WRITEBACK ACCESS:          0  HIT:          0  MISS:          0
cpu0_L1I TOTAL     ACCESS:      31476  HIT:      31475  MISS:          1
cpu0_L1I LOAD      ACCESS:      31476  HIT:      31475  MISS:          1
cpu0_L1I RFO       ACCESS:          0  HIT:          0  MISS:          0
cpu0_L1I PREFETCH  ACCESS:          0  HIT:          0  MISS:          0
cpu0_L1I WRITEBACK ACCESS:          0  HIT:          0  MISS:          0
cpu0_STLB TOTAL     ACCESS:       3202  HIT:       3199  MISS:          3
cpu0_STLB LOAD      ACCESS:       1329  HIT:       1328  MISS:          1
cpu0_STLB RFO       ACCESS:       1873  HIT:       1871  MISS:          2
cpu0_STLB PREFETCH  ACCESS:          0  HIT:          0  MISS:          0
cpu0_STLB WRITEBACK ACCESS:          0  HIT:          0  MISS:          0
cpu0_L1D TOTAL     ACCESS:   14731460  HIT:   14559198  MISS:     172262
cpu0_L1D LOAD      ACCESS:   12525761  HIT:   12465474  MISS:      60287
cpu0_L1D RFO       ACCESS:    2205696  HIT:    2093724  MISS:     111972
cpu0_L1D PREFETCH  ACCESS:          0  HIT:          0  MISS:          0
cpu0_L1D WRITEBACK ACCESS:          0  HIT:          0  MISS:          0
cpu0_L2C TOTAL     ACCESS:     284404  HIT:     168597  MISS:     115807
cpu0_L2C LOAD      ACCESS:      60288  HIT:      54726  MISS:       5562
cpu0_L2C RFO       ACCESS:     111972  HIT:       1746  MISS:     110226
cpu0_L2C PREFETCH  ACCESS:          0  HIT:          0  MISS:          0
cpu0_L2C WRITEBACK ACCESS:     112141  HIT:     112125  MISS:         16
LLC TOTAL     ACCESS:     226953  HIT:     200368  MISS:      26585
LLC LOAD      ACCESS:       5562  HIT:       4627  MISS:        935
LLC RFO       ACCESS:     110225  HIT:      84579  MISS:      25646
LLC PREFETCH  ACCESS:          0  HIT:          0  MISS:          0
LLC WRITEBACK ACCESS:     111163  HIT:     111160  MISS:          3
Heartbeat CPU 0 instructions: 94000004 cycles: 37640822 heartbeat IPC: 2.39508 cumulative IPC: 2.45251 (Simulation time: 1 hr 0 min 34 sec) 

Region of Interest Statistics
cpu0_DTLB TOTAL     ACCESS:   16192033  HIT:   16188552  MISS:       3481
cpu0_DTLB LOAD      ACCESS:   12930932  HIT:   12929420  MISS:       1512
cpu0_DTLB RFO       ACCESS:    3261101  HIT:    3259132  MISS:       1969
cpu0_DTLB PREFETCH  ACCESS:          0  HIT:          0  MISS:          0
cpu0_DTLB WRITEBACK ACCESS:          0  HIT:          0  MISS:          0
cpu0_ITLB TOTAL     ACCESS:     753300  HIT:     753300  MISS:          0
cpu0_ITLB LOAD      ACCESS:     753300  HIT:     753300  MISS:          0
cpu0_ITLB RFO       ACCESS:          0  HIT:          0  MISS:          0
cpu0_ITLB PREFETCH  ACCESS:          0  HIT:          0  MISS:          0
cpu0_ITLB WRITEBACK ACCESS:          0  HIT:          0  MISS:          0
cpu0_L1I TOTAL     ACCESS:      35883  HIT:      35882  MISS:          1
cpu0_L1I LOAD      ACCESS:      35883  HIT:      35882  MISS:          1
cpu0_L1I RFO       ACCESS:          0  HIT:          0  MISS:          0
cpu0_L1I PREFETCH  ACCESS:          0  HIT:          0  MISS:          0
cpu0_L1I WRITEBACK ACCESS:          0  HIT:          0  MISS:          0
cpu0_STLB TOTAL     ACCESS:       3481  HIT:       3478  MISS:          3
cpu0_STLB LOAD      ACCESS:       1512  HIT:       1511  MISS:          1
cpu0_STLB RFO       ACCESS:       1969  HIT:       1967  MISS:          2
cpu0_STLB PREFETCH  ACCESS:          0  HIT:          0  MISS:          0
cpu0_STLB WRITEBACK ACCESS:          0  HIT:          0  MISS:          0
cpu0_L1D TOTAL     ACCESS:   15433368  HIT:   15253193  MISS:     180175
cpu0_L1D LOAD      ACCESS:   13116815  HIT:   13054004  MISS:      62811
cpu0_L1D RFO       ACCESS:    2316550  HIT:    2199189  MISS:     117361
cpu0_L1D PREFETCH  ACCESS:          0  HIT:          0  MISS:          0
cpu0_L1D WRITEBACK ACCESS:          0  HIT:          0  MISS:          0
cpu0_L2C TOTAL     ACCESS:     297859  HIT:     176456  MISS:     121403
cpu0_L2C LOAD      ACCESS:      62812  HIT:      56805  MISS:       6007
cpu0_L2C RFO       ACCESS:     117361  HIT:       1984  MISS:     115377
cpu0_L2C PREFETCH  ACCESS:          0  HIT:          0  MISS:          0
cpu0_L2C WRITEBACK ACCESS:     117683  HIT:     117667  MISS:         16
LLC TOTAL     ACCESS:     237834  HIT:     210211  MISS:      27623
LLC LOAD      ACCESS:       6007  HIT:       4976  MISS:       1031
LLC RFO       ACCESS:     115376  HIT:      88788  MISS:      26588
LLC PREFETCH  ACCESS:          0  HIT:          0  MISS:          0
LLC WRITEBACK ACCESS:     116448  HIT:     116445  MISS:          3
Heartbeat CPU 0 instructions: 96000001 cycles: 38446640 heartbeat IPC: 2.48195 cumulative IPC: 2.45377 (Simulation time: 1 hr 2 min 1 sec) 

Region of Interest Statistics
cpu0_DTLB TOTAL     ACCESS:   16931369  HIT:   16927792  MISS:       3577
cpu0_DTLB LOAD      ACCESS:   13521816  HIT:   13520291  MISS:       1525
cpu0_DTLB RFO       ACCESS:    3409553  HIT:    3407501  MISS:       2052
cpu0_DTLB PREFETCH  ACCESS:          0  HIT:          0  MISS:          0
cpu0_DTLB WRITEBACK ACCESS:          0  HIT:          0  MISS:          0
cpu0_ITLB TOTAL     ACCESS:     786061  HIT:     786061  MISS:          0
cpu0_ITLB LOAD      ACCESS:     786061  HIT:     786061  MISS:          0
cpu0_ITLB RFO       ACCESS:          0  HIT:          0  MISS:          0
cpu0_ITLB PREFETCH  ACCESS:          0  HIT:          0  MISS:          0
cpu0_ITLB WRITEBACK ACCESS:          0  HIT:          0  MISS:          0
cpu0_L1I TOTAL     ACCESS:      35883  HIT:      35882  MISS:          1
cpu0_L1I LOAD      ACCESS:      35883  HIT:      35882  MISS:          1
cpu0_L1I RFO       ACCESS:          0  HIT:          0  MISS:          0
cpu0_L1I PREFETCH  ACCESS:          0  HIT:          0  MISS:          0
cpu0_L1I WRITEBACK ACCESS:          0  HIT:          0  MISS:          0
cpu0_STLB TOTAL     ACCESS:       3577  HIT:       3574  MISS:          3
cpu0_STLB LOAD      ACCESS:       1525  HIT:       1524  MISS:          1
cpu0_STLB RFO       ACCESS:       2052  HIT:       2050  MISS:          2
cpu0_STLB PREFETCH  ACCESS:          0  HIT:          0  MISS:          0
cpu0_STLB WRITEBACK ACCESS:          0  HIT:          0  MISS:          0
cpu0_L1D TOTAL     ACCESS:   16151109  HIT:   15963127  MISS:     187982
cpu0_L1D LOAD      ACCESS:   13716093  HIT:   13650802  MISS:      65291
cpu0_L1D RFO       ACCESS:    2435013  HIT:    2312325  MISS:     122688
cpu0_L1D PREFETCH  ACCESS:          0  HIT:          0  MISS:          0
cpu0_L1D WRITEBACK ACCESS:          0  HIT:          0  MISS:          0
cpu0_L2C TOTAL     ACCESS:     310971  HIT:     185367  MISS:     125604
cpu0_L2C LOAD      ACCESS:      65292  HIT:      59116  MISS:       6176
cpu0_L2C RFO       ACCESS:     122688  HIT:       3279  MISS:     119409
cpu0_L2C PREFETCH  ACCESS:          0  HIT:          0  MISS:          0
cpu0_L2C WRITEBACK ACCESS:     122988  HIT:     122972  MISS:         16
LLC TOTAL     ACCESS:     246061  HIT:     218383  MISS:      27678
LLC LOAD      ACCESS:       6176  HIT:       5090  MISS:       1086
LLC RFO       ACCESS:     119408  HIT:      92820  MISS:      26588
LLC PREFETCH  ACCESS:          0  HIT:          0  MISS:          0
LLC WRITEBACK ACCESS:     120474  HIT:     120471  MISS:          3
Heartbeat CPU 0 instructions: 98000003 cycles: 39247951 heartbeat IPC: 2.49591 cumulative IPC: 2.4555 (Simulation time: 1 hr 3 min 22 sec) 

Region of Interest Statistics
cpu0_DTLB TOTAL     ACCESS:   17669910  HIT:   17666218  MISS:       3692
cpu0_DTLB LOAD      ACCESS:   14112271  HIT:   14110715  MISS:       1556
cpu0_DTLB RFO       ACCESS:    3557639  HIT:    3555503  MISS:       2136
cpu0_DTLB PREFETCH  ACCESS:          0  HIT:          0  MISS:          0
cpu0_DTLB WRITEBACK ACCESS:          0  HIT:          0  MISS:          0
cpu0_ITLB TOTAL     ACCESS:     819337  HIT:     819337  MISS:          0
cpu0_ITLB LOAD      ACCESS:     819337  HIT:     819337  MISS:          0
cpu0_ITLB RFO       ACCESS:          0  HIT:          0  MISS:          0
cpu0_ITLB PREFETCH  ACCESS:          0  HIT:          0  MISS:          0
cpu0_ITLB WRITEBACK ACCESS:          0  HIT:          0  MISS:          0
cpu0_L1I TOTAL     ACCESS:      35883  HIT:      35882  MISS:          1
cpu0_L1I LOAD      ACCESS:      35883  HIT:      35882  MISS:          1
cpu0_L1I RFO       ACCESS:          0  HIT:          0  MISS:          0
cpu0_L1I PREFETCH  ACCESS:          0  HIT:          0  MISS:          0
cpu0_L1I WRITEBACK ACCESS:          0  HIT:          0  MISS:          0
cpu0_STLB TOTAL     ACCESS:       3692  HIT:       3689  MISS:          3
cpu0_STLB LOAD      ACCESS:       1556  HIT:       1555  MISS:          1
cpu0_STLB RFO       ACCESS:       2136  HIT:       2134  MISS:          2
cpu0_STLB PREFETCH  ACCESS:          0  HIT:          0  MISS:          0
cpu0_STLB WRITEBACK ACCESS:          0  HIT:          0  MISS:          0
cpu0_L1D TOTAL     ACCESS:   16861054  HIT:   16664891  MISS:     196163
cpu0_L1D LOAD      ACCESS:   14315064  HIT:   14246910  MISS:      68154
cpu0_L1D RFO       ACCESS:    2545987  HIT:    2417981  MISS:     128006
cpu0_L1D PREFETCH  ACCESS:          0  HIT:          0  MISS:          0
cpu0_L1D WRITEBACK ACCESS:          0  HIT:          0  MISS:          0
cpu0_L2C TOTAL     ACCESS:     324462  HIT:     194209  MISS:     130253
cpu0_L2C LOAD      ACCESS:      68155  HIT:      61862  MISS:       6293
cpu0_L2C RFO       ACCESS:     128006  HIT:       4065  MISS:     123941
cpu0_L2C PREFETCH  ACCESS:          0  HIT:          0  MISS:          0
cpu0_L2C WRITEBACK ACCESS:     128298  HIT:     128282  MISS:         16
LLC TOTAL     ACCESS:     255154  HIT:     226739  MISS:      28415
LLC LOAD      ACCESS:       6293  HIT:       5179  MISS:       1114
LLC RFO       ACCESS:     123940  HIT:      96643  MISS:      27297
LLC PREFETCH  ACCESS:          0  HIT:          0  MISS:          0
LLC WRITEBACK ACCESS:     124918  HIT:     124915  MISS:          3
Heartbeat CPU 0 instructions: 100000000 cycles: 40086647 heartbeat IPC: 2.38465 cumulative IPC: 2.45258 (Simulation time: 1 hr 4 min 41 sec) 

Region of Interest Statistics
cpu0_DTLB TOTAL     ACCESS:   18396276  HIT:   18392314  MISS:       3962
cpu0_DTLB LOAD      ACCESS:   14690705  HIT:   14688983  MISS:       1722
cpu0_DTLB RFO       ACCESS:    3705571  HIT:    3703331  MISS:       2240
cpu0_DTLB PREFETCH  ACCESS:          0  HIT:          0  MISS:          0
cpu0_DTLB WRITEBACK ACCESS:          0  HIT:          0  MISS:          0
cpu0_ITLB TOTAL     ACCESS:     857646  HIT:     857646  MISS:          0
cpu0_ITLB LOAD      ACCESS:     857646  HIT:     857646  MISS:          0
cpu0_ITLB RFO       ACCESS:          0  HIT:          0  MISS:          0
cpu0_ITLB PREFETCH  ACCESS:          0  HIT:          0  MISS:          0
cpu0_ITLB WRITEBACK ACCESS:          0  HIT:          0  MISS:          0
cpu0_L1I TOTAL     ACCESS:      42786  HIT:      42785  MISS:          1
cpu0_L1I LOAD      ACCESS:      42786  HIT:      42785  MISS:          1
cpu0_L1I RFO       ACCESS:          0  HIT:          0  MISS:          0
cpu0_L1I PREFETCH  ACCESS:          0  HIT:          0  MISS:          0
cpu0_L1I WRITEBACK ACCESS:          0  HIT:          0  MISS:          0
cpu0_STLB TOTAL     ACCESS:       3962  HIT:       3957  MISS:          5
cpu0_STLB LOAD      ACCESS:       1722  HIT:       1720  MISS:          2
cpu0_STLB RFO       ACCESS:       2240  HIT:       2237  MISS:          3
cpu0_STLB PREFETCH  ACCESS:          0  HIT:          0  MISS:          0
cpu0_STLB WRITEBACK ACCESS:          0  HIT:          0  MISS:          0
cpu0_L1D TOTAL     ACCESS:   17552933  HIT:   17348261  MISS:     204672
cpu0_L1D LOAD      ACCESS:   14900506  HIT:   14829139  MISS:      71367
cpu0_L1D RFO       ACCESS:    2652422  HIT:    2519121  MISS:     133301
cpu0_L1D PREFETCH  ACCESS:          0  HIT:          0  MISS:          0
cpu0_L1D WRITEBACK ACCESS:          0  HIT:          0  MISS:          0
cpu0_L2C TOTAL     ACCESS:     338326  HIT:     202265  MISS:     136061
cpu0_L2C LOAD      ACCESS:      71368  HIT:      64554  MISS:       6814
cpu0_L2C RFO       ACCESS:     133301  HIT:       4074  MISS:     129227
cpu0_L2C PREFETCH  ACCESS:          0  HIT:          0  MISS:          0
cpu0_L2C WRITEBACK ACCESS:     133653  HIT:     133637  MISS:         16
LLC TOTAL     ACCESS:     266611  HIT:     236885  MISS:      29726
LLC LOAD      ACCESS:       6814  HIT:       5637  MISS:       1177
LLC RFO       ACCESS:     129226  HIT:     100681  MISS:      28545
LLC PREFETCH  ACCESS:          0  HIT:          0  MISS:          0
LLC WRITEBACK ACCESS:     130567  HIT:     130564  MISS:          3
Heartbeat CPU 0 instructions: 102000000 cycles: 40888683 heartbeat IPC: 2.49365 cumulative IPC: 2.45414 (Simulation time: 1 hr 6 min 3 sec) 

Region of Interest Statistics
cpu0_DTLB TOTAL     ACCESS:   19134572  HIT:   19130510  MISS:       4062
cpu0_DTLB LOAD      ACCESS:   15280836  HIT:   15279098  MISS:       1738
cpu0_DTLB RFO       ACCESS:    3853736  HIT:    3851412  MISS:       2324
cpu0_DTLB PREFETCH  ACCESS:          0  HIT:          0  MISS:          0
cpu0_DTLB WRITEBACK ACCESS:          0  HIT:          0  MISS:          0
cpu0_ITLB TOTAL     ACCESS:     890545  HIT:     890545  MISS:          0
cpu0_ITLB LOAD      ACCESS:     890545  HIT:     890545  MISS:          0
cpu0_ITLB RFO       ACCESS:          0  HIT:          0  MISS:          0
cpu0_ITLB PREFETCH  ACCESS:          0  HIT:          0  MISS:          0
cpu0_ITLB WRITEBACK ACCESS:          0  HIT:          0  MISS:          0
cpu0_L1I TOTAL     ACCESS:      42786  HIT:      42785  MISS:          1
cpu0_L1I LOAD      ACCESS:      42786  HIT:      42785  MISS:          1
cpu0_L1I RFO       ACCESS:          0  HIT:          0  MISS:          0
cpu0_L1I PREFETCH  ACCESS:          0  HIT:          0  MISS:          0
cpu0_L1I WRITEBACK ACCESS:          0  HIT:          0  MISS:          0
cpu0_STLB TOTAL     ACCESS:       4062  HIT:       4057  MISS:          5
cpu0_STLB LOAD      ACCESS:       1738  HIT:       1736  MISS:          2
cpu0_STLB RFO       ACCESS:       2324  HIT:       2321  MISS:          3
cpu0_STLB PREFETCH  ACCESS:          0  HIT:          0  MISS:          0
cpu0_STLB WRITEBACK ACCESS:          0  HIT:          0  MISS:          0
cpu0_L1D TOTAL     ACCESS:   18260328  HIT:   18047536  MISS:     212792
cpu0_L1D LOAD      ACCESS:   15499793  HIT:   15425627  MISS:      74166
cpu0_L1D RFO       ACCESS:    2760530  HIT:    2621908  MISS:     138622
cpu0_L1D PREFETCH  ACCESS:          0  HIT:          0  MISS:          0
cpu0_L1D WRITEBACK ACCESS:          0  HIT:          0  MISS:          0
cpu0_L2C TOTAL     ACCESS:     351722  HIT:     210251  MISS:     141471
cpu0_L2C LOAD      ACCESS:      74167  HIT:      67220  MISS:       6947
cpu0_L2C RFO       ACCESS:     138622  HIT:       4118  MISS:     134504
cpu0_L2C PREFETCH  ACCESS:          0  HIT:          0  MISS:          0
cpu0_L2C WRITEBACK ACCESS:     138929  HIT:     138913  MISS:         16
LLC TOTAL     ACCESS:     277208  HIT:     246543  MISS:      30665
LLC LOAD      ACCESS:       6947  HIT:       5743  MISS:       1204
LLC RFO       ACCESS:     134503  HIT:     105046  MISS:      29457
LLC PREFETCH  ACCESS:          0  HIT:          0  MISS:          0
LLC WRITEBACK ACCESS:     135754  HIT:     135751  MISS:          3
Heartbeat CPU 0 instructions: 104000001 cycles: 41686813 heartbeat IPC: 2.50586 cumulative IPC: 2.45602 (Simulation time: 1 hr 7 min 20 sec) 

Region of Interest Statistics
cpu0_DTLB TOTAL     ACCESS:   19873057  HIT:   19868873  MISS:       4184
cpu0_DTLB LOAD      ACCESS:   15871143  HIT:   15869367  MISS:       1776
cpu0_DTLB RFO       ACCESS:    4001914  HIT:    3999506  MISS:       2408
cpu0_DTLB PREFETCH  ACCESS:          0  HIT:          0  MISS:          0
cpu0_DTLB WRITEBACK ACCESS:          0  HIT:          0  MISS:          0
cpu0_ITLB TOTAL     ACCESS:     923650  HIT:     923650  MISS:          0
cpu0_ITLB LOAD      ACCESS:     923650  HIT:     923650  MISS:          0
cpu0_ITLB RFO       ACCESS:          0  HIT:          0  MISS:          0
cpu0_ITLB PREFETCH  ACCESS:          0  HIT:          0  MISS:          0
cpu0_ITLB WRITEBACK ACCESS:          0  HIT:          0  MISS:          0
cpu0_L1I TOTAL     ACCESS:      42786  HIT:      42785  MISS:          1
cpu0_L1I LOAD      ACCESS:      42786  HIT:      42785  MISS:          1
cpu0_L1I RFO       ACCESS:          0  HIT:          0  MISS:          0
cpu0_L1I PREFETCH  ACCESS:          0  HIT:          0  MISS:          0
cpu0_L1I WRITEBACK ACCESS:          0  HIT:          0  MISS:          0
cpu0_STLB TOTAL     ACCESS:       4184  HIT:       4179  MISS:          5
cpu0_STLB LOAD      ACCESS:       1776  HIT:       1774  MISS:          2
cpu0_STLB RFO       ACCESS:       2408  HIT:       2405  MISS:          3
cpu0_STLB PREFETCH  ACCESS:          0  HIT:          0  MISS:          0
cpu0_STLB WRITEBACK ACCESS:          0  HIT:          0  MISS:          0
cpu0_L1D TOTAL     ACCESS:   18968355  HIT:   18747365  MISS:     220990
cpu0_L1D LOAD      ACCESS:   16099342  HIT:   16022302  MISS:      77040
cpu0_L1D RFO       ACCESS:    2869008  HIT:    2725062  MISS:     143946
cpu0_L1D PREFETCH  ACCESS:          0  HIT:          0  MISS:          0
cpu0_L1D WRITEBACK ACCESS:          0  HIT:          0  MISS:          0
cpu0_L2C TOTAL     ACCESS:     365313  HIT:     218444  MISS:     146869
cpu0_L2C LOAD      ACCESS:      77041  HIT:      69968  MISS:       7073
cpu0_L2C RFO       ACCESS:     143946  HIT:       4170  MISS:     139776
cpu0_L2C PREFETCH  ACCESS:          0  HIT:          0  MISS:          0
cpu0_L2C WRITEBACK ACCESS:     144322  HIT:     144306  MISS:         16
LLC TOTAL     ACCESS:     287711  HIT:     256013  MISS:      31698
LLC LOAD      ACCESS:       7073  HIT:       5865  MISS:       1208
LLC RFO       ACCESS:     139775  HIT:     109289  MISS:      30486
LLC PREFETCH  ACCESS:          0  HIT:          0  MISS:          0
LLC WRITEBACK ACCESS:     140859  HIT:     140856  MISS:          3
Heartbeat CPU 0 instructions: 106000004 cycles: 42486583 heartbeat IPC: 2.50072 cumulative IPC: 2.45759 (Simulation time: 1 hr 8 min 37 sec) 

Region of Interest Statistics
cpu0_DTLB TOTAL     ACCESS:   20611842  HIT:   20607570  MISS:       4272
cpu0_DTLB LOAD      ACCESS:   16461781  HIT:   16460002  MISS:       1779
cpu0_DTLB RFO       ACCESS:    4150061  HIT:    4147568  MISS:       2493
cpu0_DTLB PREFETCH  ACCESS:          0  HIT:          0  MISS:          0
cpu0_DTLB WRITEBACK ACCESS:          0  HIT:          0  MISS:          0
cpu0_ITLB TOTAL     ACCESS:     956661  HIT:     956661  MISS:          0
cpu0_ITLB LOAD      ACCESS:     956661  HIT:     956661  MISS:          0
cpu0_ITLB RFO       ACCESS:          0  HIT:          0  MISS:          0
cpu0_ITLB PREFETCH  ACCESS:          0  HIT:          0  MISS:          0
cpu0_ITLB WRITEBACK ACCESS:          0  HIT:          0  MISS:          0
cpu0_L1I TOTAL     ACCESS:      42786  HIT:      42785  MISS:          1
cpu0_L1I LOAD      ACCESS:      42786  HIT:      42785  MISS:          1
cpu0_L1I RFO       ACCESS:          0  HIT:          0  MISS:          0
cpu0_L1I PREFETCH  ACCESS:          0  HIT:          0  MISS:          0
cpu0_L1I WRITEBACK ACCESS:          0  HIT:          0  MISS:          0
cpu0_STLB TOTAL     ACCESS:       4272  HIT:       4267  MISS:          5
cpu0_STLB LOAD      ACCESS:       1779  HIT:       1777  MISS:          2
cpu0_STLB RFO       ACCESS:       2493  HIT:       2490  MISS:          3
cpu0_STLB PREFETCH  ACCESS:          0  HIT:          0  MISS:          0
cpu0_STLB WRITEBACK ACCESS:          0  HIT:          0  MISS:          0
cpu0_L1D TOTAL     ACCESS:   19675564  HIT:   19446395  MISS:     229169
cpu0_L1D LOAD      ACCESS:   16699058  HIT:   16619164  MISS:      79894
cpu0_L1D RFO       ACCESS:    2976501  HIT:    2827230  MISS:     149271
cpu0_L1D PREFETCH  ACCESS:          0  HIT:          0  MISS:          0
cpu0_L1D WRITEBACK ACCESS:          0  HIT:          0  MISS:          0
cpu0_L2C TOTAL     ACCESS:     378802  HIT:     226511  MISS:     152291
cpu0_L2C LOAD      ACCESS:      79895  HIT:      72721  MISS:       7174
cpu0_L2C RFO       ACCESS:     149271  HIT:       4174  MISS:     145097
cpu0_L2C PREFETCH  ACCESS:          0  HIT:          0  MISS:          0
cpu0_L2C WRITEBACK ACCESS:     149632  HIT:     149616  MISS:         16
LLC TOTAL     ACCESS:     298433  HIT:     265733  MISS:      32700
LLC LOAD      ACCESS:       7174  HIT:       5954  MISS:       1220
LLC RFO       ACCESS:     145096  HIT:     113620  MISS:      31476
LLC PREFETCH  ACCESS:          0  HIT:          0  MISS:          0
LLC WRITEBACK ACCESS:     146159  HIT:     146156  MISS:          3
Heartbeat CPU 0 instructions: 108000002 cycles: 43376658 heartbeat IPC: 2.247 cumulative IPC: 2.44967 (Simulation time: 1 hr 9 min 56 sec) 

Region of Interest Statistics
cpu0_DTLB TOTAL     ACCESS:   21350115  HIT:   21345756  MISS:       4359
cpu0_DTLB LOAD      ACCESS:   17052087  HIT:   17050302  MISS:       1785
cpu0_DTLB RFO       ACCESS:    4298028  HIT:    4295454  MISS:       2574
[...]
LLC LOAD      ACCESS:     175387  HIT:      94524  MISS:      80863
LLC RFO       ACCESS:    3930265  HIT:    1670125  MISS:    2260140
LLC PREFETCH  ACCESS:          0  HIT:          0  MISS:          0
LLC WRITEBACK ACCESS:    3901986  HIT:    3901627  MISS:        359
Finished CPU 0 instructions: 1500000002 cycles: 672044159 cumulative IPC: 2.232 (Simulation time: 14 hr 16 min 6 sec) 

ChampSim completed all CPUs

Region of Interest Statistics

CPU 0 cumulative IPC: 2.232 instructions: 1500000002 cycles: 672044159
cpu0_DTLB TOTAL     ACCESS:  552219261  HIT:  552114676  MISS:     104585
cpu0_DTLB LOAD      ACCESS:  441076574  HIT:  441037670  MISS:      38904
cpu0_DTLB RFO       ACCESS:  111142687  HIT:  111077006  MISS:      65681
cpu0_DTLB PREFETCH  ACCESS:          0  HIT:          0  MISS:          0
cpu0_DTLB WRITEBACK ACCESS:          0  HIT:          0  MISS:          0
cpu0_DTLB TRANSLATION ACCESS:          0  HIT:          0  MISS:          0
cpu0_DTLB PREFETCH  REQUESTED:          0  ISSUED:          0  USEFUL:          0  USELESS:          0
cpu0_DTLB AVERAGE MISS LATENCY: 9.13244 cycles
cpu0_ITLB TOTAL     ACCESS:   25299811  HIT:   25299811  MISS:          0
cpu0_ITLB LOAD      ACCESS:   25299811  HIT:   25299811  MISS:          0
cpu0_ITLB RFO       ACCESS:          0  HIT:          0  MISS:          0
cpu0_ITLB PREFETCH  ACCESS:          0  HIT:          0  MISS:          0
cpu0_ITLB WRITEBACK ACCESS:          0  HIT:          0  MISS:          0
cpu0_ITLB TRANSLATION ACCESS:          0  HIT:          0  MISS:          0
cpu0_ITLB PREFETCH  REQUESTED:          0  ISSUED:          0  USEFUL:          0  USELESS:          0
cpu0_ITLB AVERAGE MISS LATENCY: -nan cycles
cpu0_L1I TOTAL     ACCESS:    1176509  HIT:    1176501  MISS:          8
cpu0_L1I LOAD      ACCESS:    1176509  HIT:    1176501  MISS:          8
cpu0_L1I RFO       ACCESS:          0  HIT:          0  MISS:          0
cpu0_L1I PREFETCH  ACCESS:          0  HIT:          0  MISS:          0
cpu0_L1I WRITEBACK ACCESS:          0  HIT:          0  MISS:          0
cpu0_L1I TRANSLATION ACCESS:          0  HIT:          0  MISS:          0
cpu0_L1I PREFETCH  REQUESTED:          0  ISSUED:          0  USEFUL:          0  USELESS:          0
cpu0_L1I AVERAGE MISS LATENCY: 208 cycles
cpu0_STLB TOTAL     ACCESS:     104585  HIT:     104555  MISS:         30
cpu0_STLB LOAD      ACCESS:      38904  HIT:      38882  MISS:         22
cpu0_STLB RFO       ACCESS:      65681  HIT:      65673  MISS:          8
cpu0_STLB PREFETCH  ACCESS:          0  HIT:          0  MISS:          0
cpu0_STLB WRITEBACK ACCESS:          0  HIT:          0  MISS:          0
cpu0_STLB TRANSLATION ACCESS:          0  HIT:          0  MISS:          0
cpu0_STLB PREFETCH  REQUESTED:          0  ISSUED:          0  USEFUL:          0  USELESS:          0
cpu0_STLB AVERAGE MISS LATENCY: 439.167 cycles
cpu0_L1D TOTAL     ACCESS:  498085714  HIT:  491921487  MISS:    6164227
cpu0_L1D LOAD      ACCESS:  446762418  HIT:  444594227  MISS:    2168191
cpu0_L1D RFO       ACCESS:   51323266  HIT:   47327259  MISS:    3996007
cpu0_L1D PREFETCH  ACCESS:          0  HIT:          0  MISS:          0
cpu0_L1D WRITEBACK ACCESS:          0  HIT:          0  MISS:          0
cpu0_L1D TRANSLATION ACCESS:         30  HIT:          1  MISS:         29
cpu0_L1D PREFETCH  REQUESTED:          0  ISSUED:          0  USEFUL:          0  USELESS:          0
cpu0_L1D AVERAGE MISS LATENCY: 442.67 cycles
cpu0_L2C TOTAL     ACCESS:   10118248  HIT:    6012147  MISS:    4106101
cpu0_L2C LOAD      ACCESS:    2168197  HIT:    1992805  MISS:     175392
cpu0_L2C RFO       ACCESS:    3996007  HIT:      65728  MISS:    3930279
cpu0_L2C PREFETCH  ACCESS:          0  HIT:          0  MISS:          0
cpu0_L2C WRITEBACK ACCESS:    3954015  HIT:    3953614  MISS:        401
cpu0_L2C TRANSLATION ACCESS:         29  HIT:          0  MISS:         29
cpu0_L2C PREFETCH  REQUESTED:          0  ISSUED:          0  USEFUL:          0  USELESS:          0
cpu0_L2C AVERAGE MISS LATENCY: 648.028 cycles
LLC TOTAL     ACCESS:    8007667  HIT:    5666280  MISS:    2341387
LLC LOAD      ACCESS:     175387  HIT:      94524  MISS:      80863
LLC RFO       ACCESS:    3930265  HIT:    1670125  MISS:    2260140
LLC PREFETCH  ACCESS:          0  HIT:          0  MISS:          0
LLC WRITEBACK ACCESS:    3901986  HIT:    3901627  MISS:        359
LLC TRANSLATION ACCESS:         29  HIT:          4  MISS:         25
LLC PREFETCH  REQUESTED:          0  ISSUED:          0  USEFUL:          0  USELESS:          0
LLC AVERAGE MISS LATENCY: 1099.62 cycles
~~~~~~~~~~Reuse Distance Profiler output~~~~~~~~~~
0	4566432	3160208
1	12669312	11046976
2	10448992	8839008
3	13475840	11134864
4	17132944	15049424
5	19712176	17457104
6	20717856	18417600
7	19927712	17631760
8	18049808	15471008
9	16411792	13685792
10	14680432	12080304
11	13258480	10881536
12	12652960	10509840
13	12738928	10784896
14	13418304	11717440
15	14816560	13285936
16	16504432	15116336
17	18219312	16903888
18	19697648	18331312
19	20660560	19318624
20	21176784	19846448
21	20777296	19616384
22	20266704	19120496
23	18936976	17928672
24	16568480	15623856
25	14188192	13287504
26	12092400	11226016
27	10255648	9436224
28	8579808	7784048
29	7318576	6730320
30	6139424	5697376
31	5243008	4846544
32	4225200	3924352
33	3999136	3737216
34	2974480	2743568
35	1976800	1768352
36	1370352	1191808
37	1075472	903984
38	913888	728112
39	806992	625456
40	732688	530624
41	652400	466672
42	606624	413872
43	562112	370560
44	515104	331824
45	469872	304144
46	403824	260400
47	338928	226416
48	273968	188384
49	221856	160704
50	186416	139088
51	155072	120896
52	139024	112272
53	121040	98384
54	110032	89632
55	97072	80768
56	87264	72320
57	79456	66416
58	76048	63776
59	69392	58192
60	63664	55744
61	60944	55392
62	55520	49216
63	50336	45680
64	99216	90576
66	92992	82448
68	85264	76368
70	72544	67824
72	60944	51888
74	52352	47440
76	36528	31904
78	18944	16048
80	15856	14336
82	10128	8496
84	7472	6112
86	7072	5472
88	6224	4976
90	8224	7408
92	4768	3920
94	6592	5216
96	5056	3696
98	4192	2352
100	2768	1568
102	3600	2224
104	2320	1296
106	1952	1168
108	3312	2368
110	3088	1872
112	3040	1952
114	4640	1296
116	2640	1920
118	1920	1232
120	2928	992
122	4528	1104
124	2880	1120
126	3440	1168
128	6656	2528
132	7136	2672
136	5056	3456
140	3264	2128
144	4816	2880
148	3776	2992
152	4320	3408
156	3712	2848
160	3520	3056
164	4416	3776
168	4576	3984
172	4368	3408
176	6960	4576
180	11632	7888
184	8016	5344
188	11648	8832
192	11152	8400
196	10304	9344
200	10224	9680
204	11104	9904
208	18816	17088
212	21920	19504
216	27504	22368
220	43824	32624
224	51664	42176
228	66224	52832
232	58176	52272
236	54528	50544
240	49856	48736
244	50784	49808
248	43696	42832
252	37024	36288
256	81840	77520
264	124288	103984
272	129920	118688
280	90000	87024
288	51216	50480
296	26096	25392
304	9312	8512
312	6192	5968
320	4464	4384
328	7744	7696
336	3280	3008
344	6352	1472
352	5648	2064
360	3216	2352
368	3472	3312
376	7168	6784
384	12656	11952
392	8048	7520
400	4800	4368
408	4624	4448
416	4128	4064
424	4384	4144
432	4144	3264
440	4400	3424
448	4144	3120
456	4608	3712
464	7104	6000
472	8112	7584
480	6224	5904
488	4928	4656
496	3408	3280
504	2528	2512
512	7232	7216
528	8496	8448
544	5808	5808
560	9024	8928
576	6736	6624
592	7264	7168
608	8624	8512
624	7472	7408
640	5488	5456
656	5120	5072
672	4176	4112
688	5760	5728
704	8368	8304
720	6384	6272
736	7120	7072
752	8112	8096
768	6528	6496
784	4464	4416
800	5360	5328
816	5008	4992
832	5440	5408
848	7296	7296
864	6752	6688
880	6064	6016
896	7232	7168
912	8560	8480
928	7008	6928
944	7184	7104
960	6704	6672
976	6064	6032
992	7968	7936
1008	7376	7312
1024	12480	12432
1056	11280	11232
1088	13568	13552
1120	13264	13232
1152	13232	13168
1184	11040	11024
1216	12976	12912
1248	13296	13184
1280	12720	12640
1312	13744	13712
1344	14256	14192
1376	13056	12992
1408	10240	10224
1440	11616	11600
1472	13104	13040
1504	12624	12608
1536	13504	13456
1568	9648	9616
1600	11488	11408
1632	13312	13264
1664	14000	13968
1696	12304	12288
1728	11104	11040
1760	14464	14400
1792	12224	12208
1824	13744	13680
1856	12768	12720
1888	14144	14128
1920	13120	13072
1952	11488	11456
1984	13696	13664
2016	14176	14064
2048	27552	27184
2112	30512	30320
2176	25456	25216
2240	26048	25952
2304	24592	24512
2368	25296	25216
2432	27376	27296
2496	26816	26672
2560	22880	22720
2624	24528	24352
2688	22096	22016
2752	25712	25600
2816	24128	24032
2880	25472	25328
2944	22144	22016
3008	23920	23840
3072	26576	26496
3136	26640	26560
3200	27024	26960
3264	27248	27184
3328	25888	25824
3392	30592	30528
3456	27472	27392
3520	27840	27792
3584	25888	25840
3648	25760	25712
3712	28032	27968
3776	27264	27264
3840	24592	24560
3904	25328	25280
3968	24240	24240
4032	27840	27808
4096	53008	52896
4224	52912	52816
4352	62608	62480
4480	62464	62368
4608	80976	80960
4736	106240	106192
4864	121920	121824
4992	137040	136928
5120	119280	119136
5248	113360	113216
5376	111616	111504
5504	108112	108016
5632	102608	102576
5760	99776	99696
5888	180576	180512
6016	393008	392960
6144	2357616	2357472
6272	661760	661696
6400	704208	704128
6528	890912	890848
6656	1177808	1177760
6784	1302752	1302624
6912	910528	910464
7040	1997824	1997744
7168	2509136	2509040
7296	1095744	1095728
7424	297824	297792
7552	299392	299344
7680	71184	71184
7808	2576	2528
7936	2304	2304
8064	1824	1808
8192	3120	3024
8448	3408	3248
8704	4592	4480
8960	7248	7152
9216	46816	46720
9472	158928	158880
9728	217504	217408
9984	60448	60368
10240	22464	22352
10496	8992	8960
10752	1104	976
11008	992	944
11264	848	816
11520	960	912
11776	960	928
12032	992	912
12288	2064	2000
12544	29680	29632
12800	18304	18224
13056	11488	11488
13312	7344	7312
13568	13904	13856
13824	17936	17904
14080	15088	15040
14336	17744	17712
14592	28656	28640
14848	33456	33440
15104	8512	8496
15360	2368	2336
15616	800	784
15872	496	464
16128	592	576
16384	736	704
16896	784	768
17408	864	848
17920	800	784
18432	1568	1520
18944	35248	35248
19456	18528	18464
19968	14704	14672
20480	17936	17920
20992	20576	20544
21504	22640	22624
22016	36432	36432
22528	24160	24160
23040	1792	1792
23552	832	832
24064	1296	1296
24576	1472	1472
25088	4128	4128
25600	28736	28720
26112	10512	10512
26624	9328	9312
27136	9392	9392
27648	12208	12208
28160	13520	13520
28672	18256	18256
29184	20640	20640
29696	29616	29600
30208	20480	20480
30720	2320	2288
31232	608	608
31744	12656	12656
32256	14928	14912
32768	11808	11808
33792	13808	13808
34816	15504	15504
35840	19856	19856
36864	28560	28560
37888	30768	30736
38912	14688	14688
39936	15424	15360
40960	12144	12096
41984	13248	13216
43008	18656	18608
44032	21072	21072
45056	46112	46112
46080	6960	6944
47104	10224	10224
48128	10080	10080
49152	12928	12912
50176	17104	17104
51200	34800	34800
52224	27440	27440
53248	11728	11728
54272	6592	6592
55296	6736	6736
56320	9520	9488
57344	19840	19840
58368	22096	22096
59392	22672	22640
60416	19696	19680
61440	6256	6240
62464	6256	6256
63488	9728	9712
64512	24896	24896
65536	27360	27312
67584	26208	26176
69632	31696	31584
71680	23184	23184
73728	27152	27120
75776	23616	23584
77824	29056	29056
79872	24096	24096
81920	24800	24784
83968	25600	25552
86016	17760	17744
88064	19888	19824
90112	36496	36432
92160	17552	17408
94208	15344	15296
96256	28224	28208
98304	20368	20352
100352	15200	15152
102400	21760	21760
104448	21744	21728
106496	14640	14624
108544	18208	18160
110592	17984	17952
112640	18080	18080
114688	15040	14992
116736	19312	19264
118784	13888	13840
120832	18112	18112
122880	17984	17984
124928	10032	10000
126976	13632	13600
129024	20400	20352
131072	21824	21760
135168	30688	30640
139264	25152	25056
143360	24272	23616
147456	26496	26160
151552	21536	21408
155648	26656	26528
159744	21792	21744
163840	19680	19648
167936	18144	17952
172032	24976	24928
176128	15200	15152
180224	24064	23984
184320	16624	16320
188416	21744	21184
192512	20192	19840
196608	14064	13760
200704	18624	18464
204800	14592	14480
208896	15184	15136
212992	15600	15520
217088	12528	12480
221184	12992	12832
225280	13744	13616
229376	11024	10816
233472	13456	13216
237568	10464	10128
241664	10144	9840
245760	12656	12448
249856	11472	11184
253952	11232	10880
258048	11376	11056
262144	20048	19456
270336	18016	17456
278528	16656	16256
286720	15456	14928
294912	15904	15344
303104	15712	15120
311296	14000	13824
319488	12288	12160
327680	12832	12720
335872	11472	11296
344064	9632	9376
352256	11264	10624
360448	8992	8352
368640	7984	7600
376832	9200	8720
385024	9392	8800
393216	7184	6800
401408	7680	7120
409600	7728	7536
417792	6080	5824
425984	6928	6704
434176	7568	6768
442368	7440	6128
450560	7200	5168
458752	9248	5376
466944	4976	4864
475136	5472	5360
483328	5088	4896
491520	3760	3664
499712	3936	3760
507904	4496	4368
516096	3504	3344
524288	6160	5584
540672	6432	6096
557056	5856	5584
573440	6096	5600
589824	4864	4688
606208	4720	4480
622592	5440	4944
638976	6944	4448
655360	8720	4560
671744	6240	4208
688128	5744	3520
704512	10480	4256
720896	5024	2960
737280	4592	3248
753664	4272	3184
770048	3088	2656
786432	9104	2576
802816	2736	1856
819200	2704	1920
835584	6176	2096
851968	2256	1904
868352	2272	1824
884736	2000	1696
901120	2256	1952
917504	2496	2000
933888	2352	2032
950272	2448	2112
966656	1952	1456
983040	2016	1632
999424	2064	1648
1015808	1904	1424
1032192	1792	1296
1048576	3264	2560
1081344	2672	2032
1114112	4080	2208
1146880	3920	2432
1179648	11488	1824
1212416	2720	2032
1245184	2720	2064
1277952	3088	2304
1310720	2288	1696
1343488	4288	1792
1376256	13136	2384
1409024	22064	1984
1441792	35216	2048
1474560	2224	1392
1507328	13648	1584
1540096	1712	1216
1572864	2016	1392
1605632	2080	1344
1638400	2352	1744
1671168	2240	1424
1703936	3184	1248
1736704	6192	1440
1769472	31664	1200
1802240	5360	1344
1835008	6560	1232
1867776	11472	1232
1900544	20128	1376
1933312	9472	1344
1966080	44720	1360
1998848	85680	1312
2031616	25264	1328
2064384	6304	864
2097152	74272	2240
2162688	88032	2400
2228224	14944	2400
2293760	62240	1872
2359296	93408	2448
2424832	37168	1712
2490368	14208	1520
2555904	31152	1296
2621440	52288	1952
2686976	88704	2096
2752512	55728	1904
2818048	45984	1680
2883584	152816	2576
2949120	264448	3648
3014656	391776	3568
3080192	133968	2000
3145728	318560	3312
3211264	324240	2128
3276800	86384	800
3342336	25648	592
3407872	100784	1008
3473408	36272	656
3538944	47152	560
3604480	23888	368
3670016	17360	320
3735552	46928	816
3801088	48064	576
3866624	16800	416
3932160	20256	256
3997696	11856	384
4063232	19216	624
4128768	83312	672
4194304	55664	528
4325376	18080	272
4456448	5088	464
4587520	272	208
4718592	81824	976
4849664	51920	480
4980736	16480	352
5111808	39008	752
5242880	59808	336
5373952	14192	160
5505024	8224	224
5636096	2560	96
5767168	144	80
5898240	2144	224
6029312	32624	160
6160384	144	48
6291456	5200	256
6422528	11984	64
6553600	832	64
6684672	9488	96
6815744	11600	144
6946816	14592	256
7077888	14976	176
7208960	27360	256
7340032	9776	32
7471104	176	112
7602176	2368	48
7733248	16	16
7864320	1536	48
7995392	3760	0
8126464	592	32
8257536	64	0
8388608	32	16
8650752	896	48
8912896	2400	80
9175040	6528	80
9437184	1104	48
9699328	10064	128
9961472	2928	192
10223616	912	112
10485760	18288	160
10747904	6528	80
11010048	224	32
11272192	624	96
11534336	14848	160
11796480	3344	32
12058624	96	16
12320768	816	32
12582912	8192	16
12845056	2384	240
13107200	38368	64
13369344	80	16
13631488	2944	16
13893632	48	0
14155776	80	16
14417920	6160	96
14680064	16	0
14942208	912	0
15204352	34160	304
15466496	7744	64
15728640	144	16
15990784	33072	192
16252928	3376	16
16515072	13504	112
16777216	80	0
17301504	64	0
17825792	48	32
18350080	112	32
18874368	1792	48
19398656	8576	64
19922944	224	48
20447232	224	80
20971520	320	32
21495808	288	48
22020096	5104	144
22544384	32384	64
23068672	192	32
23592960	64	16
24117248	16	16
24641536	960	16
25165824	704	64
25690112	32	0
26214400	16	0
26738688	9136	64
27262976	1136	16
27787264	16	0
28311552	112	32
28835840	32	0
29360128	16	16
29884416	16	16
30408704	48	0
30932992	64	16
31457280	32	0
31981568	160	16
32505856	64	0
33030144	9936	32
33554432	3120	0
34603008	256	16
35651584	48	16
36700160	32	0
37748736	2624	16
38797312	4928	32
39845888	5456	48
40894464	2064	0
41943040	320	0
42991616	48	32
44040192	5504	64
45088768	48	0
46137344	80	0
47185920	5072	16
48234496	144	0
49283072	16	0
50331648	16	0
51380224	48	0
52428800	16	16
53477376	16	0
54525952	176	0
55574528	16	0
56623104	64	64
57671680	0	0
58720256	0	0
59768832	8080	64
60817408	1984	64
61865984	0	0
62914560	0	0
63963136	0	0
65011712	16	16
66060288	16	0
67108864	112	32
69206016	17984	160
71303168	0	0
73400320	4288	16
75497472	32	16
77594624	64	32
79691776	16	16
81788928	48	32
83886080	6912	112
85983232	48	0
88080384	48	0
90177536	0	0
92274688	32	32
94371840	48	16
96468992	368	32
98566144	0	0
100663296	16	16
102760448	16	0
104857600	80	0
106954752	1520	16
109051904	16	16
111149056	0	0
113246208	0	0
115343360	16	0
117440512	0	0
119537664	32	32
121634816	0	0
123731968	16	16
125829120	128	32
127926272	0	0
130023424	16	16
132120576	48	0
134217728	48	16
138412032	272	48
142606336	16	0
146800640	16	0
150994944	0	0
155189248	0	0
159383552	48	16
163577856	10096	80
167772160	0	0
171966464	32	32
176160768	0	0
180355072	736	16
184549376	0	0
188743680	16	16
192937984	2384	16
197132288	0	0
201326592	0	0
205520896	16	16
209715200	0	0
213909504	48	16
218103808	0	0
222298112	0	0
226492416	0	0
230686720	0	0
234881024	400	16
239075328	0	0
243269632	16	0
247463936	16	16
251658240	0	0
255852544	0	0
260046848	16	16
264241152	0	0
268435456	16	16
276824064	0	0
285212672	0	0
293601280	32	16
301989888	32	32
310378496	0	0
318767104	0	0
327155712	0	0
335544320	0	0
343932928	0	0
352321536	0	0
360710144	0	0
369098752	0	0
377487360	0	0
385875968	0	0
394264576	0	0
402653184	0	0
411041792	0	0
419430400	0	0
427819008	0	0
436207616	0	0
444596224	0	0
452984832	0	0
461373440	0	0
469762048	0	0
478150656	0	0
486539264	0	0
494927872	0	0
503316480	0	0
511705088	0	0
520093696	0	0
528482304	0	0
536870912	0	0
553648128	0	0
570425344	0	0
587202560	0	0
603979776	0	0
620756992	0	0
637534208	0	0
654311424	0	0
671088640	0	0
687865856	0	0
704643072	0	0
721420288	0	0
738197504	0	0
754974720	0	0
771751936	0	0
788529152	0	0
805306368	0	0
822083584	0	0
838860800	0	0
855638016	0	0
872415232	0	0
889192448	0	0
905969664	0	0
922746880	0	0
939524096	0	0
956301312	0	0
973078528	0	0
989855744	0	0
1006632960	0	0
1023410176	0	0
1040187392	0	0
1056964608	0	0
1073741824	0	0
1107296256	0	0
1140850688	0	0
1174405120	0	0
1207959552	0	0
1241513984	0	0
1275068416	0	0
1308622848	0	0
1342177280	0	0
1375731712	0	0
1409286144	0	0
1442840576	0	0
1476395008	0	0
1509949440	0	0
1543503872	0	0
1577058304	0	0
1610612736	0	0
1644167168	0	0
1677721600	0	0
1711276032	0	0
1744830464	0	0
1778384896	0	0
1811939328	0	0
1845493760	0	0
1879048192	0	0
1912602624	0	0
1946157056	0	0
1979711488	0	0
2013265920	0	0
2046820352	0	0
2080374784	0	0
2113929216	0	0
2147483648	0	0
2214592512	0	0
2281701376	0	0
2348810240	0	0
2415919104	0	0
2483027968	0	0
2550136832	0	0
2617245696	0	0
2684354560	0	0
2751463424	0	0
2818572288	0	0
2885681152	0	0
2952790016	0	0
3019898880	0	0
3087007744	0	0
3154116608	0	0
3221225472	0	0
3288334336	0	0
3355443200	0	0
3422552064	0	0
3489660928	0	0
3556769792	0	0
3623878656	0	0
3690987520	0	0
3758096384	0	0
3825205248	0	0
3892314112	0	0
3959422976	0	0
4026531840	0	0
4093640704	0	0
4160749568	0	0
4227858432	0	0
~~~~~~~~~~Reuse Distance Profiler output end~~~~~~~~~~

Sampler size:4721

DRAM Statistics
 CHANNEL 0
 RQ ROW_BUFFER_HIT:      26649  ROW_BUFFER_MISS:    2314071
 DBUS AVG_CONGESTED_CYCLE:    3.99371
 WQ ROW_BUFFER_HIT:     121928  ROW_BUFFER_MISS:    2110122  FULL:          0


CPU 0 Branch Prediction Accuracy: 99.1611% MPKI: 0.371285 Average ROB Occupancy at Mispredict: 159.187
Branch type MPKI
BRANCH_DIRECT_JUMP: 4e-06
BRANCH_INDIRECT: 0.000360667
BRANCH_CONDITIONAL: 0.370901
BRANCH_DIRECT_CALL: 1.33333e-06
BRANCH_INDIRECT_CALL: 1.66667e-05
BRANCH_RETURN: 1.33333e-06

