
*** ChampSim Multicore Out-of-Order Simulator ***

Warmup Instructions: 50000000
Simulation Instructions: 1500000000
Number of CPUs: 1
Off-chip DRAM Size: 4 GiB Channels: 1 Width: 64-bit Data Rate: 3200 MT/s

VirtualMemory physical capacity: 8588881920 num_ppages: 2096895
VirtualMemory page size: 4096 log2_page_size: 12

CPU 0 runs /s/traces/champsim_traces/458.sjeng-1088B.champsimtrace.xz
CPU 0 Bimodal branch predictor
Basic BTB sets: 1024 ways: 8 indirect buffer size: 4096 RAS size: 64
Initializing LRU.
Initializing LRU.
Initializing LRU.
Initializing LRU.
Initializing rdLRU.
Initializing LRU.
Initializing LRU.
Heartbeat CPU 0 instructions: 2000002 cycles: 500152 heartbeat IPC: 3.99879 cumulative IPC: 3.99879 (Simulation time: 0 hr 0 min 55 sec) 
Heartbeat CPU 0 instructions: 4000002 cycles: 1000152 heartbeat IPC: 4 cumulative IPC: 3.99939 (Simulation time: 0 hr 1 min 49 sec) 
Heartbeat CPU 0 instructions: 6000002 cycles: 1501509 heartbeat IPC: 3.98917 cumulative IPC: 3.99598 (Simulation time: 0 hr 2 min 41 sec) 
Heartbeat CPU 0 instructions: 8000001 cycles: 2002815 heartbeat IPC: 3.98958 cumulative IPC: 3.99438 (Simulation time: 0 hr 3 min 36 sec) 
Heartbeat CPU 0 instructions: 10000002 cycles: 2502939 heartbeat IPC: 3.99901 cumulative IPC: 3.9953 (Simulation time: 0 hr 4 min 29 sec) 
Heartbeat CPU 0 instructions: 12000000 cycles: 3003044 heartbeat IPC: 3.99916 cumulative IPC: 3.99595 (Simulation time: 0 hr 5 min 20 sec) 
Heartbeat CPU 0 instructions: 14000003 cycles: 3503640 heartbeat IPC: 3.99524 cumulative IPC: 3.99585 (Simulation time: 0 hr 6 min 15 sec) 
Heartbeat CPU 0 instructions: 16000002 cycles: 4005192 heartbeat IPC: 3.98762 cumulative IPC: 3.99482 (Simulation time: 0 hr 7 min 8 sec) 
Heartbeat CPU 0 instructions: 18000002 cycles: 4505192 heartbeat IPC: 4 cumulative IPC: 3.99539 (Simulation time: 0 hr 8 min 1 sec) 
Heartbeat CPU 0 instructions: 20000001 cycles: 5006422 heartbeat IPC: 3.99018 cumulative IPC: 3.99487 (Simulation time: 0 hr 8 min 56 sec) 
Heartbeat CPU 0 instructions: 22000003 cycles: 5507859 heartbeat IPC: 3.98854 cumulative IPC: 3.99429 (Simulation time: 0 hr 9 min 54 sec) 
Heartbeat CPU 0 instructions: 24000003 cycles: 6007859 heartbeat IPC: 4 cumulative IPC: 3.99477 (Simulation time: 0 hr 10 min 53 sec) 
Heartbeat CPU 0 instructions: 26000002 cycles: 6510371 heartbeat IPC: 3.98 cumulative IPC: 3.99363 (Simulation time: 0 hr 11 min 51 sec) 
Heartbeat CPU 0 instructions: 28000002 cycles: 7010371 heartbeat IPC: 4 cumulative IPC: 3.99408 (Simulation time: 0 hr 12 min 51 sec) 
Heartbeat CPU 0 instructions: 30000002 cycles: 7510371 heartbeat IPC: 4 cumulative IPC: 3.99448 (Simulation time: 0 hr 13 min 50 sec) 
Heartbeat CPU 0 instructions: 32000000 cycles: 8012495 heartbeat IPC: 3.98308 cumulative IPC: 3.99376 (Simulation time: 0 hr 14 min 49 sec) 
Heartbeat CPU 0 instructions: 34000002 cycles: 8514322 heartbeat IPC: 3.98544 cumulative IPC: 3.99327 (Simulation time: 0 hr 15 min 47 sec) 
Heartbeat CPU 0 instructions: 36000003 cycles: 9019513 heartbeat IPC: 3.9589 cumulative IPC: 3.99135 (Simulation time: 0 hr 16 min 46 sec) 
Heartbeat CPU 0 instructions: 38000001 cycles: 9521506 heartbeat IPC: 3.98412 cumulative IPC: 3.99097 (Simulation time: 0 hr 17 min 46 sec) 
Heartbeat CPU 0 instructions: 40000000 cycles: 10021904 heartbeat IPC: 3.99682 cumulative IPC: 3.99126 (Simulation time: 0 hr 18 min 46 sec) 
Heartbeat CPU 0 instructions: 42000000 cycles: 10521904 heartbeat IPC: 4 cumulative IPC: 3.99167 (Simulation time: 0 hr 19 min 46 sec) 
Heartbeat CPU 0 instructions: 44000000 cycles: 11021904 heartbeat IPC: 4 cumulative IPC: 3.99205 (Simulation time: 0 hr 20 min 47 sec) 
Heartbeat CPU 0 instructions: 46000000 cycles: 11521904 heartbeat IPC: 4 cumulative IPC: 3.9924 (Simulation time: 0 hr 21 min 47 sec) 
Heartbeat CPU 0 instructions: 48000000 cycles: 12021904 heartbeat IPC: 4 cumulative IPC: 3.99271 (Simulation time: 0 hr 22 min 48 sec) 
Heartbeat CPU 0 instructions: 50000000 cycles: 12521904 heartbeat IPC: 4 cumulative IPC: 3.993 (Simulation time: 0 hr 23 min 47 sec) 

Warmup complete CPU 0 instructions: 50000004 cycles: 12521905 (Simulation time: 0 hr 23 min 47 sec) 

Heartbeat CPU 0 instructions: 52000002 cycles: 14991393 heartbeat IPC: 0.809885 cumulative IPC: 0.809884 (Simulation time: 0 hr 24 min 50 sec) 

Region of Interest Statistics
cpu0_DTLB TOTAL     ACCESS:     424758  HIT:     420990  MISS:       3768
cpu0_DTLB LOAD      ACCESS:     339884  HIT:     336735  MISS:       3149
cpu0_DTLB RFO       ACCESS:      84874  HIT:      84255  MISS:        619
cpu0_DTLB PREFETCH  ACCESS:          0  HIT:          0  MISS:          0
cpu0_DTLB WRITEBACK ACCESS:          0  HIT:          0  MISS:          0
cpu0_ITLB TOTAL     ACCESS:     196487  HIT:     196487  MISS:          0
cpu0_ITLB LOAD      ACCESS:     196487  HIT:     196487  MISS:          0
cpu0_ITLB RFO       ACCESS:          0  HIT:          0  MISS:          0
cpu0_ITLB PREFETCH  ACCESS:          0  HIT:          0  MISS:          0
cpu0_ITLB WRITEBACK ACCESS:          0  HIT:          0  MISS:          0
cpu0_L1I TOTAL     ACCESS:     109884  HIT:     109884  MISS:          0
cpu0_L1I LOAD      ACCESS:     109884  HIT:     109884  MISS:          0
cpu0_L1I RFO       ACCESS:          0  HIT:          0  MISS:          0
cpu0_L1I PREFETCH  ACCESS:          0  HIT:          0  MISS:          0
cpu0_L1I WRITEBACK ACCESS:          0  HIT:          0  MISS:          0
cpu0_STLB TOTAL     ACCESS:       3768  HIT:       3199  MISS:        569
cpu0_STLB LOAD      ACCESS:       3149  HIT:       2582  MISS:        567
cpu0_STLB RFO       ACCESS:        619  HIT:        617  MISS:          2
cpu0_STLB PREFETCH  ACCESS:          0  HIT:          0  MISS:          0
cpu0_STLB WRITEBACK ACCESS:          0  HIT:          0  MISS:          0
cpu0_L1D TOTAL     ACCESS:     510227  HIT:     509151  MISS:       1076
cpu0_L1D LOAD      ACCESS:     359033  HIT:     358169  MISS:        864
cpu0_L1D RFO       ACCESS:     150625  HIT:     150418  MISS:        207
cpu0_L1D PREFETCH  ACCESS:          0  HIT:          0  MISS:          0
cpu0_L1D WRITEBACK ACCESS:          0  HIT:          0  MISS:          0
cpu0_L2C TOTAL     ACCESS:       1905  HIT:       1193  MISS:        712
cpu0_L2C LOAD      ACCESS:        864  HIT:        196  MISS:        668
cpu0_L2C RFO       ACCESS:        207  HIT:        166  MISS:         41
cpu0_L2C PREFETCH  ACCESS:          0  HIT:          0  MISS:          0
cpu0_L2C WRITEBACK ACCESS:        829  HIT:        826  MISS:          3
LLC TOTAL     ACCESS:       1356  HIT:        673  MISS:        683
LLC LOAD      ACCESS:        668  HIT:         25  MISS:        643
LLC RFO       ACCESS:         41  HIT:          1  MISS:         40
LLC PREFETCH  ACCESS:          0  HIT:          0  MISS:          0
LLC WRITEBACK ACCESS:        647  HIT:        647  MISS:          0
Heartbeat CPU 0 instructions: 54000002 cycles: 17430977 heartbeat IPC: 0.819812 cumulative IPC: 0.814818 (Simulation time: 0 hr 25 min 53 sec) 

Region of Interest Statistics
cpu0_DTLB TOTAL     ACCESS:     850552  HIT:     842915  MISS:       7637
cpu0_DTLB LOAD      ACCESS:     679839  HIT:     673406  MISS:       6433
cpu0_DTLB RFO       ACCESS:     170713  HIT:     169509  MISS:       1204
cpu0_DTLB PREFETCH  ACCESS:          0  HIT:          0  MISS:          0
cpu0_DTLB WRITEBACK ACCESS:          0  HIT:          0  MISS:          0
cpu0_ITLB TOTAL     ACCESS:     392080  HIT:     392080  MISS:          0
cpu0_ITLB LOAD      ACCESS:     392080  HIT:     392080  MISS:          0
cpu0_ITLB RFO       ACCESS:          0  HIT:          0  MISS:          0
cpu0_ITLB PREFETCH  ACCESS:          0  HIT:          0  MISS:          0
cpu0_ITLB WRITEBACK ACCESS:          0  HIT:          0  MISS:          0
cpu0_L1I TOTAL     ACCESS:     219622  HIT:     219622  MISS:          0
cpu0_L1I LOAD      ACCESS:     219622  HIT:     219622  MISS:          0
cpu0_L1I RFO       ACCESS:          0  HIT:          0  MISS:          0
cpu0_L1I PREFETCH  ACCESS:          0  HIT:          0  MISS:          0
cpu0_L1I WRITEBACK ACCESS:          0  HIT:          0  MISS:          0
cpu0_STLB TOTAL     ACCESS:       7637  HIT:       6474  MISS:       1163
cpu0_STLB LOAD      ACCESS:       6433  HIT:       5274  MISS:       1159
cpu0_STLB RFO       ACCESS:       1204  HIT:       1200  MISS:          4
cpu0_STLB PREFETCH  ACCESS:          0  HIT:          0  MISS:          0
cpu0_STLB WRITEBACK ACCESS:          0  HIT:          0  MISS:          0
cpu0_L1D TOTAL     ACCESS:    1021345  HIT:    1019266  MISS:       2079
cpu0_L1D LOAD      ACCESS:     717589  HIT:     715886  MISS:       1703
cpu0_L1D RFO       ACCESS:     302593  HIT:     302226  MISS:        367
cpu0_L1D PREFETCH  ACCESS:          0  HIT:          0  MISS:          0
cpu0_L1D WRITEBACK ACCESS:          0  HIT:          0  MISS:          0
cpu0_L2C TOTAL     ACCESS:       3718  HIT:       2298  MISS:       1420
cpu0_L2C LOAD      ACCESS:       1703  HIT:        363  MISS:       1340
cpu0_L2C RFO       ACCESS:        367  HIT:        290  MISS:         77
cpu0_L2C PREFETCH  ACCESS:          0  HIT:          0  MISS:          0
cpu0_L2C WRITEBACK ACCESS:       1639  HIT:       1636  MISS:          3
LLC TOTAL     ACCESS:       2704  HIT:       1335  MISS:       1369
LLC LOAD      ACCESS:       1340  HIT:         46  MISS:       1294
LLC RFO       ACCESS:         77  HIT:          2  MISS:         75
LLC PREFETCH  ACCESS:          0  HIT:          0  MISS:          0
LLC WRITEBACK ACCESS:       1287  HIT:       1287  MISS:          0
Heartbeat CPU 0 instructions: 56000004 cycles: 19841702 heartbeat IPC: 0.829627 cumulative IPC: 0.819695 (Simulation time: 0 hr 26 min 55 sec) 

Region of Interest Statistics
cpu0_DTLB TOTAL     ACCESS:    1270044  HIT:    1258579  MISS:      11465
cpu0_DTLB LOAD      ACCESS:    1015293  HIT:    1005613  MISS:       9680
cpu0_DTLB RFO       ACCESS:     254751  HIT:     252966  MISS:       1785
cpu0_DTLB PREFETCH  ACCESS:          0  HIT:          0  MISS:          0
cpu0_DTLB WRITEBACK ACCESS:          0  HIT:          0  MISS:          0
cpu0_ITLB TOTAL     ACCESS:     586406  HIT:     586406  MISS:          0
cpu0_ITLB LOAD      ACCESS:     586406  HIT:     586406  MISS:          0
cpu0_ITLB RFO       ACCESS:          0  HIT:          0  MISS:          0
cpu0_ITLB PREFETCH  ACCESS:          0  HIT:          0  MISS:          0
cpu0_ITLB WRITEBACK ACCESS:          0  HIT:          0  MISS:          0
cpu0_L1I TOTAL     ACCESS:     328321  HIT:     328321  MISS:          0
cpu0_L1I LOAD      ACCESS:     328321  HIT:     328321  MISS:          0
cpu0_L1I RFO       ACCESS:          0  HIT:          0  MISS:          0
cpu0_L1I PREFETCH  ACCESS:          0  HIT:          0  MISS:          0
cpu0_L1I WRITEBACK ACCESS:          0  HIT:          0  MISS:          0
cpu0_STLB TOTAL     ACCESS:      11465  HIT:       9735  MISS:       1730
cpu0_STLB LOAD      ACCESS:       9680  HIT:       7954  MISS:       1726
cpu0_STLB RFO       ACCESS:       1785  HIT:       1781  MISS:          4
cpu0_STLB PREFETCH  ACCESS:          0  HIT:          0  MISS:          0
cpu0_STLB WRITEBACK ACCESS:          0  HIT:          0  MISS:          0
cpu0_L1D TOTAL     ACCESS:    1524185  HIT:    1521270  MISS:       2915
cpu0_L1D LOAD      ACCESS:    1069316  HIT:    1066876  MISS:       2440
cpu0_L1D RFO       ACCESS:     453139  HIT:     452676  MISS:        463
cpu0_L1D PREFETCH  ACCESS:          0  HIT:          0  MISS:          0
cpu0_L1D WRITEBACK ACCESS:          0  HIT:          0  MISS:          0
cpu0_L2C TOTAL     ACCESS:       5258  HIT:       3189  MISS:       2069
cpu0_L2C LOAD      ACCESS:       2440  HIT:        474  MISS:       1966
cpu0_L2C RFO       ACCESS:        463  HIT:        364  MISS:         99
cpu0_L2C PREFETCH  ACCESS:          0  HIT:          0  MISS:          0
cpu0_L2C WRITEBACK ACCESS:       2343  HIT:       2339  MISS:          4
LLC TOTAL     ACCESS:       3943  HIT:       1941  MISS:       2002
LLC LOAD      ACCESS:       1966  HIT:         61  MISS:       1905
LLC RFO       ACCESS:         99  HIT:          2  MISS:         97
LLC PREFETCH  ACCESS:          0  HIT:          0  MISS:          0
LLC WRITEBACK ACCESS:       1878  HIT:       1878  MISS:          0
Heartbeat CPU 0 instructions: 58000003 cycles: 22272357 heartbeat IPC: 0.822823 cumulative IPC: 0.820475 (Simulation time: 0 hr 27 min 57 sec) 

Region of Interest Statistics
cpu0_DTLB TOTAL     ACCESS:    1695311  HIT:    1679903  MISS:      15408
cpu0_DTLB LOAD      ACCESS:    1354804  HIT:    1341761  MISS:      13043
cpu0_DTLB RFO       ACCESS:     340507  HIT:     338142  MISS:       2365
cpu0_DTLB PREFETCH  ACCESS:          0  HIT:          0  MISS:          0
cpu0_DTLB WRITEBACK ACCESS:          0  HIT:          0  MISS:          0
cpu0_ITLB TOTAL     ACCESS:     780624  HIT:     780624  MISS:          0
cpu0_ITLB LOAD      ACCESS:     780624  HIT:     780624  MISS:          0
cpu0_ITLB RFO       ACCESS:          0  HIT:          0  MISS:          0
cpu0_ITLB PREFETCH  ACCESS:          0  HIT:          0  MISS:          0
cpu0_ITLB WRITEBACK ACCESS:          0  HIT:          0  MISS:          0
cpu0_L1I TOTAL     ACCESS:     438860  HIT:     438860  MISS:          0
cpu0_L1I LOAD      ACCESS:     438860  HIT:     438860  MISS:          0
cpu0_L1I RFO       ACCESS:          0  HIT:          0  MISS:          0
cpu0_L1I PREFETCH  ACCESS:          0  HIT:          0  MISS:          0
cpu0_L1I WRITEBACK ACCESS:          0  HIT:          0  MISS:          0
cpu0_STLB TOTAL     ACCESS:      15408  HIT:      13103  MISS:       2305
cpu0_STLB LOAD      ACCESS:      13043  HIT:      10744  MISS:       2299
cpu0_STLB RFO       ACCESS:       2365  HIT:       2359  MISS:          6
cpu0_STLB PREFETCH  ACCESS:          0  HIT:          0  MISS:          0
cpu0_STLB WRITEBACK ACCESS:          0  HIT:          0  MISS:          0
cpu0_L1D TOTAL     ACCESS:    2034613  HIT:    2030768  MISS:       3845
cpu0_L1D LOAD      ACCESS:    1426596  HIT:    1423369  MISS:       3227
cpu0_L1D RFO       ACCESS:     605712  HIT:     605111  MISS:        601
cpu0_L1D PREFETCH  ACCESS:          0  HIT:          0  MISS:          0
cpu0_L1D WRITEBACK ACCESS:          0  HIT:          0  MISS:          0
cpu0_L2C TOTAL     ACCESS:       6956  HIT:       4178  MISS:       2778
cpu0_L2C LOAD      ACCESS:       3227  HIT:        605  MISS:       2622
cpu0_L2C RFO       ACCESS:        601  HIT:        450  MISS:        151
cpu0_L2C PREFETCH  ACCESS:          0  HIT:          0  MISS:          0
cpu0_L2C WRITEBACK ACCESS:       3111  HIT:       3106  MISS:          5
LLC TOTAL     ACCESS:       5298  HIT:       2612  MISS:       2686
LLC LOAD      ACCESS:       2622  HIT:         85  MISS:       2537
LLC RFO       ACCESS:        151  HIT:          2  MISS:        149
LLC PREFETCH  ACCESS:          0  HIT:          0  MISS:          0
LLC WRITEBACK ACCESS:       2525  HIT:       2525  MISS:          0
Heartbeat CPU 0 instructions: 60000004 cycles: 24694076 heartbeat IPC: 0.82586 cumulative IPC: 0.821546 (Simulation time: 0 hr 28 min 59 sec) 

Region of Interest Statistics
cpu0_DTLB TOTAL     ACCESS:    2116696  HIT:    2097521  MISS:      19175
cpu0_DTLB LOAD      ACCESS:    1691967  HIT:    1675743  MISS:      16224
cpu0_DTLB RFO       ACCESS:     424729  HIT:     421778  MISS:       2951
cpu0_DTLB PREFETCH  ACCESS:          0  HIT:          0  MISS:          0
cpu0_DTLB WRITEBACK ACCESS:          0  HIT:          0  MISS:          0
cpu0_ITLB TOTAL     ACCESS:     975703  HIT:     975703  MISS:          0
cpu0_ITLB LOAD      ACCESS:     975703  HIT:     975703  MISS:          0
cpu0_ITLB RFO       ACCESS:          0  HIT:          0  MISS:          0
cpu0_ITLB PREFETCH  ACCESS:          0  HIT:          0  MISS:          0
cpu0_ITLB WRITEBACK ACCESS:          0  HIT:          0  MISS:          0
cpu0_L1I TOTAL     ACCESS:     547969  HIT:     547969  MISS:          0
cpu0_L1I LOAD      ACCESS:     547969  HIT:     547969  MISS:          0
cpu0_L1I RFO       ACCESS:          0  HIT:          0  MISS:          0
cpu0_L1I PREFETCH  ACCESS:          0  HIT:          0  MISS:          0
cpu0_L1I WRITEBACK ACCESS:          0  HIT:          0  MISS:          0
cpu0_STLB TOTAL     ACCESS:      19175  HIT:      16298  MISS:       2877
cpu0_STLB LOAD      ACCESS:      16224  HIT:      13354  MISS:       2870
cpu0_STLB RFO       ACCESS:       2951  HIT:       2944  MISS:          7
cpu0_STLB PREFETCH  ACCESS:          0  HIT:          0  MISS:          0
cpu0_STLB WRITEBACK ACCESS:          0  HIT:          0  MISS:          0
cpu0_L1D TOTAL     ACCESS:    2541152  HIT:    2536438  MISS:       4714
cpu0_L1D LOAD      ACCESS:    1781978  HIT:    1777995  MISS:       3983
cpu0_L1D RFO       ACCESS:     756297  HIT:     755587  MISS:        710
cpu0_L1D PREFETCH  ACCESS:          0  HIT:          0  MISS:          0
cpu0_L1D WRITEBACK ACCESS:          0  HIT:          0  MISS:          0
cpu0_L2C TOTAL     ACCESS:       8574  HIT:       5120  MISS:       3454
cpu0_L2C LOAD      ACCESS:       3983  HIT:        711  MISS:       3272
cpu0_L2C RFO       ACCESS:        710  HIT:        534  MISS:        176
cpu0_L2C PREFETCH  ACCESS:          0  HIT:          0  MISS:          0
cpu0_L2C WRITEBACK ACCESS:       3860  HIT:       3854  MISS:          6
LLC TOTAL     ACCESS:       6588  HIT:       3244  MISS:       3344
LLC LOAD      ACCESS:       3272  HIT:        102  MISS:       3170
LLC RFO       ACCESS:        176  HIT:          3  MISS:        173
LLC PREFETCH  ACCESS:          0  HIT:          0  MISS:          0
LLC WRITEBACK ACCESS:       3140  HIT:       3139  MISS:          1
Heartbeat CPU 0 instructions: 62000002 cycles: 27145171 heartbeat IPC: 0.815961 cumulative IPC: 0.82061 (Simulation time: 0 hr 30 min 2 sec) 

Region of Interest Statistics
cpu0_DTLB TOTAL     ACCESS:    2544411  HIT:    2521307  MISS:      23104
cpu0_DTLB LOAD      ACCESS:    2033633  HIT:    2014081  MISS:      19552
cpu0_DTLB RFO       ACCESS:     510778  HIT:     507226  MISS:       3552
cpu0_DTLB PREFETCH  ACCESS:          0  HIT:          0  MISS:          0
cpu0_DTLB WRITEBACK ACCESS:          0  HIT:          0  MISS:          0
cpu0_ITLB TOTAL     ACCESS:    1172083  HIT:    1172083  MISS:          0
cpu0_ITLB LOAD      ACCESS:    1172083  HIT:    1172083  MISS:          0
cpu0_ITLB RFO       ACCESS:          0  HIT:          0  MISS:          0
cpu0_ITLB PREFETCH  ACCESS:          0  HIT:          0  MISS:          0
cpu0_ITLB WRITEBACK ACCESS:          0  HIT:          0  MISS:          0
cpu0_L1I TOTAL     ACCESS:     658755  HIT:     658754  MISS:          1
cpu0_L1I LOAD      ACCESS:     658755  HIT:     658754  MISS:          1
cpu0_L1I RFO       ACCESS:          0  HIT:          0  MISS:          0
cpu0_L1I PREFETCH  ACCESS:          0  HIT:          0  MISS:          0
cpu0_L1I WRITEBACK ACCESS:          0  HIT:          0  MISS:          0
cpu0_STLB TOTAL     ACCESS:      23104  HIT:      19617  MISS:       3487
cpu0_STLB LOAD      ACCESS:      19552  HIT:      16072  MISS:       3480
cpu0_STLB RFO       ACCESS:       3552  HIT:       3545  MISS:          7
cpu0_STLB PREFETCH  ACCESS:          0  HIT:          0  MISS:          0
cpu0_STLB WRITEBACK ACCESS:          0  HIT:          0  MISS:          0
cpu0_L1D TOTAL     ACCESS:    3054986  HIT:    3049347  MISS:       5639
cpu0_L1D LOAD      ACCESS:    2142933  HIT:    2138144  MISS:       4789
cpu0_L1D RFO       ACCESS:     908566  HIT:     907741  MISS:        825
cpu0_L1D PREFETCH  ACCESS:          0  HIT:          0  MISS:          0
cpu0_L1D WRITEBACK ACCESS:          0  HIT:          0  MISS:          0
cpu0_L2C TOTAL     ACCESS:      10289  HIT:       6118  MISS:       4171
cpu0_L2C LOAD      ACCESS:       4790  HIT:        834  MISS:       3956
cpu0_L2C RFO       ACCESS:        824  HIT:        616  MISS:        208
cpu0_L2C PREFETCH  ACCESS:          0  HIT:          0  MISS:          0
cpu0_L2C WRITEBACK ACCESS:       4650  HIT:       4643  MISS:          7
LLC TOTAL     ACCESS:       7960  HIT:       3923  MISS:       4037
LLC LOAD      ACCESS:       3956  HIT:        121  MISS:       3835
LLC RFO       ACCESS:        208  HIT:          7  MISS:        201
LLC PREFETCH  ACCESS:          0  HIT:          0  MISS:          0
LLC WRITEBACK ACCESS:       3796  HIT:       3795  MISS:          1
Heartbeat CPU 0 instructions: 64000001 cycles: 29571960 heartbeat IPC: 0.824134 cumulative IPC: 0.821112 (Simulation time: 0 hr 31 min 3 sec) 

Region of Interest Statistics
cpu0_DTLB TOTAL     ACCESS:    2964110  HIT:    2936976  MISS:      27134
cpu0_DTLB LOAD      ACCESS:    2369796  HIT:    2346780  MISS:      23016
cpu0_DTLB RFO       ACCESS:     594314  HIT:     590196  MISS:       4118
cpu0_DTLB PREFETCH  ACCESS:          0  HIT:          0  MISS:          0
cpu0_DTLB WRITEBACK ACCESS:          0  HIT:          0  MISS:          0
cpu0_ITLB TOTAL     ACCESS:    1366759  HIT:    1366759  MISS:          0
cpu0_ITLB LOAD      ACCESS:    1366759  HIT:    1366759  MISS:          0
cpu0_ITLB RFO       ACCESS:          0  HIT:          0  MISS:          0
cpu0_ITLB PREFETCH  ACCESS:          0  HIT:          0  MISS:          0
cpu0_ITLB WRITEBACK ACCESS:          0  HIT:          0  MISS:          0
cpu0_L1I TOTAL     ACCESS:     765388  HIT:     765383  MISS:          5
cpu0_L1I LOAD      ACCESS:     765388  HIT:     765383  MISS:          5
cpu0_L1I RFO       ACCESS:          0  HIT:          0  MISS:          0
cpu0_L1I PREFETCH  ACCESS:          0  HIT:          0  MISS:          0
cpu0_L1I WRITEBACK ACCESS:          0  HIT:          0  MISS:          0
cpu0_STLB TOTAL     ACCESS:      27134  HIT:      23048  MISS:       4086
cpu0_STLB LOAD      ACCESS:      23016  HIT:      18942  MISS:       4074
cpu0_STLB RFO       ACCESS:       4118  HIT:       4106  MISS:         12
cpu0_STLB PREFETCH  ACCESS:          0  HIT:          0  MISS:          0
cpu0_STLB WRITEBACK ACCESS:          0  HIT:          0  MISS:          0
cpu0_L1D TOTAL     ACCESS:    3558267  HIT:    3551364  MISS:       6903
cpu0_L1D LOAD      ACCESS:    2497124  HIT:    2491338  MISS:       5786
cpu0_L1D RFO       ACCESS:    1057057  HIT:    1055972  MISS:       1085
cpu0_L1D PREFETCH  ACCESS:          0  HIT:          0  MISS:          0
cpu0_L1D WRITEBACK ACCESS:          0  HIT:          0  MISS:          0
cpu0_L2C TOTAL     ACCESS:      12575  HIT:       7566  MISS:       5009
cpu0_L2C LOAD      ACCESS:       5791  HIT:       1093  MISS:       4698
cpu0_L2C RFO       ACCESS:       1084  HIT:        798  MISS:        286
cpu0_L2C PREFETCH  ACCESS:          0  HIT:          0  MISS:          0
cpu0_L2C WRITEBACK ACCESS:       5668  HIT:       5643  MISS:         25
LLC TOTAL     ACCESS:       9560  HIT:       4838  MISS:       4722
LLC LOAD      ACCESS:       4698  HIT:        208  MISS:       4490
LLC RFO       ACCESS:        286  HIT:         55  MISS:        231
LLC PREFETCH  ACCESS:          0  HIT:          0  MISS:          0
LLC WRITEBACK ACCESS:       4576  HIT:       4575  MISS:          1
Heartbeat CPU 0 instructions: 66000002 cycles: 31938041 heartbeat IPC: 0.84528 cumulative IPC: 0.824057 (Simulation time: 0 hr 32 min 3 sec) 

Region of Interest Statistics
cpu0_DTLB TOTAL     ACCESS:    3390729  HIT:    3360099  MISS:      30630
cpu0_DTLB LOAD      ACCESS:    2705747  HIT:    2679719  MISS:      26028
cpu0_DTLB RFO       ACCESS:     684982  HIT:     680380  MISS:       4602
cpu0_DTLB PREFETCH  ACCESS:          0  HIT:          0  MISS:          0
cpu0_DTLB WRITEBACK ACCESS:          0  HIT:          0  MISS:          0
cpu0_ITLB TOTAL     ACCESS:    1561989  HIT:    1561989  MISS:          0
cpu0_ITLB LOAD      ACCESS:    1561989  HIT:    1561989  MISS:          0
cpu0_ITLB RFO       ACCESS:          0  HIT:          0  MISS:          0
cpu0_ITLB PREFETCH  ACCESS:          0  HIT:          0  MISS:          0
cpu0_ITLB WRITEBACK ACCESS:          0  HIT:          0  MISS:          0
cpu0_L1I TOTAL     ACCESS:     885055  HIT:     885025  MISS:         30
cpu0_L1I LOAD      ACCESS:     885055  HIT:     885025  MISS:         30
cpu0_L1I RFO       ACCESS:          0  HIT:          0  MISS:          0
cpu0_L1I PREFETCH  ACCESS:          0  HIT:          0  MISS:          0
cpu0_L1I WRITEBACK ACCESS:          0  HIT:          0  MISS:          0
cpu0_STLB TOTAL     ACCESS:      30630  HIT:      25964  MISS:       4666
cpu0_STLB LOAD      ACCESS:      26028  HIT:      21379  MISS:       4649
cpu0_STLB RFO       ACCESS:       4602  HIT:       4585  MISS:         17
cpu0_STLB PREFETCH  ACCESS:          0  HIT:          0  MISS:          0
cpu0_STLB WRITEBACK ACCESS:          0  HIT:          0  MISS:          0
cpu0_L1D TOTAL     ACCESS:    4063646  HIT:    4055373  MISS:       8273
cpu0_L1D LOAD      ACCESS:    2844530  HIT:    2837716  MISS:       6814
cpu0_L1D RFO       ACCESS:    1214450  HIT:    1213023  MISS:       1427
cpu0_L1D PREFETCH  ACCESS:          0  HIT:          0  MISS:          0
cpu0_L1D WRITEBACK ACCESS:          0  HIT:          0  MISS:          0
cpu0_L2C TOTAL     ACCESS:      14894  HIT:       9066  MISS:       5828
cpu0_L2C LOAD      ACCESS:       6844  HIT:       1439  MISS:       5405
cpu0_L2C RFO       ACCESS:       1426  HIT:       1050  MISS:        376
cpu0_L2C PREFETCH  ACCESS:          0  HIT:          0  MISS:          0
cpu0_L2C WRITEBACK ACCESS:       6592  HIT:       6545  MISS:         47
LLC TOTAL     ACCESS:      11127  HIT:       5764  MISS:       5363
LLC LOAD      ACCESS:       5405  HIT:        320  MISS:       5085
LLC RFO       ACCESS:        376  HIT:         99  MISS:        277
LLC PREFETCH  ACCESS:          0  HIT:          0  MISS:          0
LLC WRITEBACK ACCESS:       5346  HIT:       5345  MISS:          1
Heartbeat CPU 0 instructions: 68000000 cycles: 34332627 heartbeat IPC: 0.835217 cumulative IPC: 0.825282 (Simulation time: 0 hr 33 min 5 sec) 

Region of Interest Statistics
cpu0_DTLB TOTAL     ACCESS:    3814005  HIT:    3779757  MISS:      34248
cpu0_DTLB LOAD      ACCESS:    3040857  HIT:    3011698  MISS:      29159
cpu0_DTLB RFO       ACCESS:     773148  HIT:     768059  MISS:       5089
cpu0_DTLB PREFETCH  ACCESS:          0  HIT:          0  MISS:          0
cpu0_DTLB WRITEBACK ACCESS:          0  HIT:          0  MISS:          0
cpu0_ITLB TOTAL     ACCESS:    1757794  HIT:    1757794  MISS:          0
cpu0_ITLB LOAD      ACCESS:    1757794  HIT:    1757794  MISS:          0
cpu0_ITLB RFO       ACCESS:          0  HIT:          0  MISS:          0
cpu0_ITLB PREFETCH  ACCESS:          0  HIT:          0  MISS:          0
cpu0_ITLB WRITEBACK ACCESS:          0  HIT:          0  MISS:          0
cpu0_L1I TOTAL     ACCESS:    1000793  HIT:    1000747  MISS:         46
cpu0_L1I LOAD      ACCESS:    1000793  HIT:    1000747  MISS:         46
cpu0_L1I RFO       ACCESS:          0  HIT:          0  MISS:          0
cpu0_L1I PREFETCH  ACCESS:          0  HIT:          0  MISS:          0
cpu0_L1I WRITEBACK ACCESS:          0  HIT:          0  MISS:          0
cpu0_STLB TOTAL     ACCESS:      34248  HIT:      29005  MISS:       5243
cpu0_STLB LOAD      ACCESS:      29159  HIT:      23933  MISS:       5226
cpu0_STLB RFO       ACCESS:       5089  HIT:       5072  MISS:         17
cpu0_STLB PREFETCH  ACCESS:          0  HIT:          0  MISS:          0
cpu0_STLB WRITEBACK ACCESS:          0  HIT:          0  MISS:          0
cpu0_L1D TOTAL     ACCESS:    4565757  HIT:    4556241  MISS:       9516
cpu0_L1D LOAD      ACCESS:    3192159  HIT:    3184379  MISS:       7780
cpu0_L1D RFO       ACCESS:    1368355  HIT:    1366654  MISS:       1701
cpu0_L1D PREFETCH  ACCESS:          0  HIT:          0  MISS:          0
cpu0_L1D WRITEBACK ACCESS:          0  HIT:          0  MISS:          0
cpu0_L2C TOTAL     ACCESS:      17016  HIT:      10490  MISS:       6526
cpu0_L2C LOAD      ACCESS:       7826  HIT:       1769  MISS:       6057
cpu0_L2C RFO       ACCESS:       1700  HIT:       1280  MISS:        420
cpu0_L2C PREFETCH  ACCESS:          0  HIT:          0  MISS:          0
cpu0_L2C WRITEBACK ACCESS:       7455  HIT:       7406  MISS:         49
LLC TOTAL     ACCESS:      12488  HIT:       6479  MISS:       6009
LLC LOAD      ACCESS:       6057  HIT:        362  MISS:       5695
LLC RFO       ACCESS:        420  HIT:        108  MISS:        312
LLC PREFETCH  ACCESS:          0  HIT:          0  MISS:          0
LLC WRITEBACK ACCESS:       6011  HIT:       6009  MISS:          2
Heartbeat CPU 0 instructions: 70000004 cycles: 36718392 heartbeat IPC: 0.838307 cumulative IPC: 0.826566 (Simulation time: 0 hr 34 min 7 sec) 

Region of Interest Statistics
cpu0_DTLB TOTAL     ACCESS:    4239455  HIT:    4201487  MISS:      37968
cpu0_DTLB LOAD      ACCESS:    3380775  HIT:    3348460  MISS:      32315
cpu0_DTLB RFO       ACCESS:     858680  HIT:     853027  MISS:       5653
cpu0_DTLB PREFETCH  ACCESS:          0  HIT:          0  MISS:          0
cpu0_DTLB WRITEBACK ACCESS:          0  HIT:          0  MISS:          0
cpu0_ITLB TOTAL     ACCESS:    1955835  HIT:    1955835  MISS:          0
cpu0_ITLB LOAD      ACCESS:    1955835  HIT:    1955835  MISS:          0
cpu0_ITLB RFO       ACCESS:          0  HIT:          0  MISS:          0
cpu0_ITLB PREFETCH  ACCESS:          0  HIT:          0  MISS:          0
cpu0_ITLB WRITEBACK ACCESS:          0  HIT:          0  MISS:          0
cpu0_L1I TOTAL     ACCESS:    1107131  HIT:    1107070  MISS:         61
cpu0_L1I LOAD      ACCESS:    1107131  HIT:    1107070  MISS:         61
cpu0_L1I RFO       ACCESS:          0  HIT:          0  MISS:          0
cpu0_L1I PREFETCH  ACCESS:          0  HIT:          0  MISS:          0
cpu0_L1I WRITEBACK ACCESS:          0  HIT:          0  MISS:          0
cpu0_STLB TOTAL     ACCESS:      37968  HIT:      32117  MISS:       5851
cpu0_STLB LOAD      ACCESS:      32315  HIT:      26482  MISS:       5833
cpu0_STLB RFO       ACCESS:       5653  HIT:       5635  MISS:         18
cpu0_STLB PREFETCH  ACCESS:          0  HIT:          0  MISS:          0
cpu0_STLB WRITEBACK ACCESS:          0  HIT:          0  MISS:          0
cpu0_L1D TOTAL     ACCESS:    5076753  HIT:    5065883  MISS:      10870
cpu0_L1D LOAD      ACCESS:    3551502  HIT:    3542650  MISS:       8852
cpu0_L1D RFO       ACCESS:    1519400  HIT:    1517422  MISS:       1978
cpu0_L1D PREFETCH  ACCESS:          0  HIT:          0  MISS:          0
cpu0_L1D WRITEBACK ACCESS:          0  HIT:          0  MISS:          0
cpu0_L2C TOTAL     ACCESS:      19318  HIT:      12047  MISS:       7271
cpu0_L2C LOAD      ACCESS:       8913  HIT:       2155  MISS:       6758
cpu0_L2C RFO       ACCESS:       1977  HIT:       1519  MISS:        458
cpu0_L2C PREFETCH  ACCESS:          0  HIT:          0  MISS:          0
cpu0_L2C WRITEBACK ACCESS:       8388  HIT:       8333  MISS:         55
LLC TOTAL     ACCESS:      13935  HIT:       7241  MISS:       6694
LLC LOAD      ACCESS:       6758  HIT:        413  MISS:       6345
LLC RFO       ACCESS:        458  HIT:        111  MISS:        347
LLC PREFETCH  ACCESS:          0  HIT:          0  MISS:          0
LLC WRITEBACK ACCESS:       6719  HIT:       6717  MISS:          2
Heartbeat CPU 0 instructions: 72000000 cycles: 39065812 heartbeat IPC: 0.851997 cumulative IPC: 0.828815 (Simulation time: 0 hr 35 min 8 sec) 

Region of Interest Statistics
cpu0_DTLB TOTAL     ACCESS:    4668896  HIT:    4627335  MISS:      41561
cpu0_DTLB LOAD      ACCESS:    3721732  HIT:    3686358  MISS:      35374
cpu0_DTLB RFO       ACCESS:     947164  HIT:     940977  MISS:       6187
cpu0_DTLB PREFETCH  ACCESS:          0  HIT:          0  MISS:          0
cpu0_DTLB WRITEBACK ACCESS:          0  HIT:          0  MISS:          0
cpu0_ITLB TOTAL     ACCESS:    2153843  HIT:    2153843  MISS:          0
cpu0_ITLB LOAD      ACCESS:    2153843  HIT:    2153843  MISS:          0
cpu0_ITLB RFO       ACCESS:          0  HIT:          0  MISS:          0
cpu0_ITLB PREFETCH  ACCESS:          0  HIT:          0  MISS:          0
cpu0_ITLB WRITEBACK ACCESS:          0  HIT:          0  MISS:          0
cpu0_L1I TOTAL     ACCESS:    1218563  HIT:    1218473  MISS:         90
cpu0_L1I LOAD      ACCESS:    1218563  HIT:    1218473  MISS:         90
cpu0_L1I RFO       ACCESS:          0  HIT:          0  MISS:          0
cpu0_L1I PREFETCH  ACCESS:          0  HIT:          0  MISS:          0
cpu0_L1I WRITEBACK ACCESS:          0  HIT:          0  MISS:          0
cpu0_STLB TOTAL     ACCESS:      41561  HIT:      35100  MISS:       6461
cpu0_STLB LOAD      ACCESS:      35374  HIT:      28935  MISS:       6439
cpu0_STLB RFO       ACCESS:       6187  HIT:       6165  MISS:         22
cpu0_STLB PREFETCH  ACCESS:          0  HIT:          0  MISS:          0
cpu0_STLB WRITEBACK ACCESS:          0  HIT:          0  MISS:          0
cpu0_L1D TOTAL     ACCESS:    5590499  HIT:    5578187  MISS:      12312
cpu0_L1D LOAD      ACCESS:    3910067  HIT:    3900133  MISS:       9934
cpu0_L1D RFO       ACCESS:    1673971  HIT:    1671636  MISS:       2335
cpu0_L1D PREFETCH  ACCESS:          0  HIT:          0  MISS:          0
cpu0_L1D WRITEBACK ACCESS:          0  HIT:          0  MISS:          0
cpu0_L2C TOTAL     ACCESS:      21787  HIT:      13783  MISS:       8004
cpu0_L2C LOAD      ACCESS:      10024  HIT:       2598  MISS:       7426
cpu0_L2C RFO       ACCESS:       2334  HIT:       1815  MISS:        519
cpu0_L2C PREFETCH  ACCESS:          0  HIT:          0  MISS:          0
cpu0_L2C WRITEBACK ACCESS:       9386  HIT:       9327  MISS:         59
LLC TOTAL     ACCESS:      15363  HIT:       7994  MISS:       7369
LLC LOAD      ACCESS:       7426  HIT:        446  MISS:       6980
LLC RFO       ACCESS:        519  HIT:        132  MISS:        387
LLC PREFETCH  ACCESS:          0  HIT:          0  MISS:          0
LLC WRITEBACK ACCESS:       7418  HIT:       7416  MISS:          2
Heartbeat CPU 0 instructions: 74000001 cycles: 41408519 heartbeat IPC: 0.853714 cumulative IPC: 0.830835 (Simulation time: 0 hr 36 min 6 sec) 

Region of Interest Statistics
cpu0_DTLB TOTAL     ACCESS:    5091817  HIT:    5046618  MISS:      45199
cpu0_DTLB LOAD      ACCESS:    4059796  HIT:    4021367  MISS:      38429
cpu0_DTLB RFO       ACCESS:    1032021  HIT:    1025251  MISS:       6770
cpu0_DTLB PREFETCH  ACCESS:          0  HIT:          0  MISS:          0
cpu0_DTLB WRITEBACK ACCESS:          0  HIT:          0  MISS:          0
cpu0_ITLB TOTAL     ACCESS:    2349381  HIT:    2349381  MISS:          0
cpu0_ITLB LOAD      ACCESS:    2349381  HIT:    2349381  MISS:          0
cpu0_ITLB RFO       ACCESS:          0  HIT:          0  MISS:          0
cpu0_ITLB PREFETCH  ACCESS:          0  HIT:          0  MISS:          0
cpu0_ITLB WRITEBACK ACCESS:          0  HIT:          0  MISS:          0
cpu0_L1I TOTAL     ACCESS:    1330016  HIT:    1329897  MISS:        119
cpu0_L1I LOAD      ACCESS:    1330016  HIT:    1329897  MISS:        119
cpu0_L1I RFO       ACCESS:          0  HIT:          0  MISS:          0
cpu0_L1I PREFETCH  ACCESS:          0  HIT:          0  MISS:          0
cpu0_L1I WRITEBACK ACCESS:          0  HIT:          0  MISS:          0
cpu0_STLB TOTAL     ACCESS:      45199  HIT:      38240  MISS:       6959
cpu0_STLB LOAD      ACCESS:      38429  HIT:      31493  MISS:       6936
cpu0_STLB RFO       ACCESS:       6770  HIT:       6747  MISS:         23
cpu0_STLB PREFETCH  ACCESS:          0  HIT:          0  MISS:          0
cpu0_STLB WRITEBACK ACCESS:          0  HIT:          0  MISS:          0
cpu0_L1D TOTAL     ACCESS:    6094697  HIT:    6081383  MISS:      13314
cpu0_L1D LOAD      ACCESS:    4263894  HIT:    4253159  MISS:      10735
cpu0_L1D RFO       ACCESS:    1823844  HIT:    1821309  MISS:       2535
cpu0_L1D PREFETCH  ACCESS:          0  HIT:          0  MISS:          0
cpu0_L1D WRITEBACK ACCESS:          0  HIT:          0  MISS:          0
cpu0_L2C TOTAL     ACCESS:      23548  HIT:      14922  MISS:       8626
cpu0_L2C LOAD      ACCESS:      10854  HIT:       2847  MISS:       8007
cpu0_L2C RFO       ACCESS:       2534  HIT:       1976  MISS:        558
cpu0_L2C PREFETCH  ACCESS:          0  HIT:          0  MISS:          0
cpu0_L2C WRITEBACK ACCESS:      10116  HIT:      10055  MISS:         61
LLC TOTAL     ACCESS:      16576  HIT:       8618  MISS:       7958
LLC LOAD      ACCESS:       8007  HIT:        477  MISS:       7530
LLC RFO       ACCESS:        558  HIT:        132  MISS:        426
LLC PREFETCH  ACCESS:          0  HIT:          0  MISS:          0
LLC WRITEBACK ACCESS:       8011  HIT:       8009  MISS:          2
Heartbeat CPU 0 instructions: 76000000 cycles: 43825013 heartbeat IPC: 0.827645 cumulative IPC: 0.830588 (Simulation time: 0 hr 37 min 6 sec) 

Region of Interest Statistics
cpu0_DTLB TOTAL     ACCESS:    5510383  HIT:    5460907  MISS:      49476
cpu0_DTLB LOAD      ACCESS:    4397704  HIT:    4355678  MISS:      42026
cpu0_DTLB RFO       ACCESS:    1112679  HIT:    1105229  MISS:       7450
cpu0_DTLB PREFETCH  ACCESS:          0  HIT:          0  MISS:          0
cpu0_DTLB WRITEBACK ACCESS:          0  HIT:          0  MISS:          0
cpu0_ITLB TOTAL     ACCESS:    2543933  HIT:    2543933  MISS:          0
cpu0_ITLB LOAD      ACCESS:    2543933  HIT:    2543933  MISS:          0
cpu0_ITLB RFO       ACCESS:          0  HIT:          0  MISS:          0
cpu0_ITLB PREFETCH  ACCESS:          0  HIT:          0  MISS:          0
cpu0_ITLB WRITEBACK ACCESS:          0  HIT:          0  MISS:          0
cpu0_L1I TOTAL     ACCESS:    1433179  HIT:    1433057  MISS:        122
cpu0_L1I LOAD      ACCESS:    1433179  HIT:    1433057  MISS:        122
cpu0_L1I RFO       ACCESS:          0  HIT:          0  MISS:          0
cpu0_L1I PREFETCH  ACCESS:          0  HIT:          0  MISS:          0
cpu0_L1I WRITEBACK ACCESS:          0  HIT:          0  MISS:          0
cpu0_STLB TOTAL     ACCESS:      49476  HIT:      41948  MISS:       7528
cpu0_STLB LOAD      ACCESS:      42026  HIT:      34530  MISS:       7496
cpu0_STLB RFO       ACCESS:       7450  HIT:       7418  MISS:         32
cpu0_STLB PREFETCH  ACCESS:          0  HIT:          0  MISS:          0
cpu0_STLB WRITEBACK ACCESS:          0  HIT:          0  MISS:          0
cpu0_L1D TOTAL     ACCESS:    6596337  HIT:    6581990  MISS:      14347
cpu0_L1D LOAD      ACCESS:    4620433  HIT:    4608866  MISS:      11567
cpu0_L1D RFO       ACCESS:    1968376  HIT:    1965641  MISS:       2735
cpu0_L1D PREFETCH  ACCESS:          0  HIT:          0  MISS:          0
cpu0_L1D WRITEBACK ACCESS:          0  HIT:          0  MISS:          0
cpu0_L2C TOTAL     ACCESS:      25416  HIT:      16071  MISS:       9345
cpu0_L2C LOAD      ACCESS:      11689  HIT:       3026  MISS:       8663
cpu0_L2C RFO       ACCESS:       2734  HIT:       2114  MISS:        620
cpu0_L2C PREFETCH  ACCESS:          0  HIT:          0  MISS:          0
cpu0_L2C WRITEBACK ACCESS:      10948  HIT:      10886  MISS:         62
LLC TOTAL     ACCESS:      17974  HIT:       9352  MISS:       8622
LLC LOAD      ACCESS:       8663  HIT:        513  MISS:       8150
LLC RFO       ACCESS:        620  HIT:        150  MISS:        470
LLC PREFETCH  ACCESS:          0  HIT:          0  MISS:          0
LLC WRITEBACK ACCESS:       8691  HIT:       8689  MISS:          2
Heartbeat CPU 0 instructions: 78000003 cycles: 46157193 heartbeat IPC: 0.857568 cumulative IPC: 0.832459 (Simulation time: 0 hr 38 min 5 sec) 

Region of Interest Statistics
cpu0_DTLB TOTAL     ACCESS:    5934110  HIT:    5881049  MISS:      53061
cpu0_DTLB LOAD      ACCESS:    4733687  HIT:    4688658  MISS:      45029
cpu0_DTLB RFO       ACCESS:    1200423  HIT:    1192391  MISS:       8032
cpu0_DTLB PREFETCH  ACCESS:          0  HIT:          0  MISS:          0
cpu0_DTLB WRITEBACK ACCESS:          0  HIT:          0  MISS:          0
cpu0_ITLB TOTAL     ACCESS:    2739774  HIT:    2739774  MISS:          0
cpu0_ITLB LOAD      ACCESS:    2739774  HIT:    2739774  MISS:          0
cpu0_ITLB RFO       ACCESS:          0  HIT:          0  MISS:          0
cpu0_ITLB PREFETCH  ACCESS:          0  HIT:          0  MISS:          0
cpu0_ITLB WRITEBACK ACCESS:          0  HIT:          0  MISS:          0
cpu0_L1I TOTAL     ACCESS:    1545347  HIT:    1545197  MISS:        150
cpu0_L1I LOAD      ACCESS:    1545347  HIT:    1545197  MISS:        150
cpu0_L1I RFO       ACCESS:          0  HIT:          0  MISS:          0
cpu0_L1I PREFETCH  ACCESS:          0  HIT:          0  MISS:          0
cpu0_L1I WRITEBACK ACCESS:          0  HIT:          0  MISS:          0
cpu0_STLB TOTAL     ACCESS:      53061  HIT:      44987  MISS:       8074
cpu0_STLB LOAD      ACCESS:      45029  HIT:      36988  MISS:       8041
cpu0_STLB RFO       ACCESS:       8032  HIT:       7999  MISS:         33
cpu0_STLB PREFETCH  ACCESS:          0  HIT:          0  MISS:          0
cpu0_STLB WRITEBACK ACCESS:          0  HIT:          0  MISS:          0
cpu0_L1D TOTAL     ACCESS:    7101685  HIT:    7085862  MISS:      15823
cpu0_L1D LOAD      ACCESS:    4971799  HIT:    4959168  MISS:      12631
cpu0_L1D RFO       ACCESS:    2121812  HIT:    2118674  MISS:       3138
cpu0_L1D PREFETCH  ACCESS:          0  HIT:          0  MISS:          0
cpu0_L1D WRITEBACK ACCESS:          0  HIT:          0  MISS:          0
cpu0_L2C TOTAL     ACCESS:      28007  HIT:      17992  MISS:      10015
cpu0_L2C LOAD      ACCESS:      12781  HIT:       3490  MISS:       9291
cpu0_L2C RFO       ACCESS:       3137  HIT:       2479  MISS:        658
cpu0_L2C PREFETCH  ACCESS:          0  HIT:          0  MISS:          0
cpu0_L2C WRITEBACK ACCESS:      12035  HIT:      11970  MISS:         65
LLC TOTAL     ACCESS:      19278  HIT:      10024  MISS:       9254
LLC LOAD      ACCESS:       9291  HIT:        541  MISS:       8750
LLC RFO       ACCESS:        658  HIT:        157  MISS:        501
LLC PREFETCH  ACCESS:          0  HIT:          0  MISS:          0
LLC WRITEBACK ACCESS:       9328  HIT:       9325  MISS:          3
Heartbeat CPU 0 instructions: 80000003 cycles: 48481340 heartbeat IPC: 0.860531 cumulative IPC: 0.834273 (Simulation time: 0 hr 39 min 6 sec) 

Region of Interest Statistics
cpu0_DTLB TOTAL     ACCESS:    6363707  HIT:    6307151  MISS:      56556
cpu0_DTLB LOAD      ACCESS:    5072009  HIT:    5024029  MISS:      47980
cpu0_DTLB RFO       ACCESS:    1291698  HIT:    1283122  MISS:       8576
cpu0_DTLB PREFETCH  ACCESS:          0  HIT:          0  MISS:          0
cpu0_DTLB WRITEBACK ACCESS:          0  HIT:          0  MISS:          0
cpu0_ITLB TOTAL     ACCESS:    2933972  HIT:    2933972  MISS:          0
cpu0_ITLB LOAD      ACCESS:    2933972  HIT:    2933972  MISS:          0
cpu0_ITLB RFO       ACCESS:          0  HIT:          0  MISS:          0
cpu0_ITLB PREFETCH  ACCESS:          0  HIT:          0  MISS:          0
cpu0_ITLB WRITEBACK ACCESS:          0  HIT:          0  MISS:          0
cpu0_L1I TOTAL     ACCESS:    1669108  HIT:    1668938  MISS:        170
cpu0_L1I LOAD      ACCESS:    1669108  HIT:    1668938  MISS:        170
cpu0_L1I RFO       ACCESS:          0  HIT:          0  MISS:          0
cpu0_L1I PREFETCH  ACCESS:          0  HIT:          0  MISS:          0
cpu0_L1I WRITEBACK ACCESS:          0  HIT:          0  MISS:          0
cpu0_STLB TOTAL     ACCESS:      56556  HIT:      47949  MISS:       8607
cpu0_STLB LOAD      ACCESS:      47980  HIT:      39407  MISS:       8573
cpu0_STLB RFO       ACCESS:       8576  HIT:       8542  MISS:         34
cpu0_STLB PREFETCH  ACCESS:          0  HIT:          0  MISS:          0
cpu0_STLB WRITEBACK ACCESS:          0  HIT:          0  MISS:          0
cpu0_L1D TOTAL     ACCESS:    7613882  HIT:    7596912  MISS:      16970
cpu0_L1D LOAD      ACCESS:    5324056  HIT:    5310499  MISS:      13557
cpu0_L1D RFO       ACCESS:    2281219  HIT:    2277861  MISS:       3358
cpu0_L1D PREFETCH  ACCESS:          0  HIT:          0  MISS:          0
cpu0_L1D WRITEBACK ACCESS:          0  HIT:          0  MISS:          0
cpu0_L2C TOTAL     ACCESS:      29995  HIT:      19350  MISS:      10645
cpu0_L2C LOAD      ACCESS:      13727  HIT:       3829  MISS:       9898
cpu0_L2C RFO       ACCESS:       3357  HIT:       2676  MISS:        681
cpu0_L2C PREFETCH  ACCESS:          0  HIT:          0  MISS:          0
cpu0_L2C WRITEBACK ACCESS:      12856  HIT:      12791  MISS:         65
LLC TOTAL     ACCESS:      20505  HIT:      10647  MISS:       9858
LLC LOAD      ACCESS:       9898  HIT:        566  MISS:       9332
LLC RFO       ACCESS:        681  HIT:        158  MISS:        523
LLC PREFETCH  ACCESS:          0  HIT:          0  MISS:          0
LLC WRITEBACK ACCESS:       9925  HIT:       9922  MISS:          3
Heartbeat CPU 0 instructions: 82000004 cycles: 50859607 heartbeat IPC: 0.840949 cumulative IPC: 0.834687 (Simulation time: 0 hr 40 min 4 sec) 

Region of Interest Statistics
cpu0_DTLB TOTAL     ACCESS:    6786852  HIT:    6726655  MISS:      60197
cpu0_DTLB LOAD      ACCESS:    5409160  HIT:    5358084  MISS:      51076
cpu0_DTLB RFO       ACCESS:    1377692  HIT:    1368571  MISS:       9121
cpu0_DTLB PREFETCH  ACCESS:          0  HIT:          0  MISS:          0
cpu0_DTLB WRITEBACK ACCESS:          0  HIT:          0  MISS:          0
cpu0_ITLB TOTAL     ACCESS:    3129218  HIT:    3129218  MISS:          0
cpu0_ITLB LOAD      ACCESS:    3129218  HIT:    3129218  MISS:          0
cpu0_ITLB RFO       ACCESS:          0  HIT:          0  MISS:          0
cpu0_ITLB PREFETCH  ACCESS:          0  HIT:          0  MISS:          0
cpu0_ITLB WRITEBACK ACCESS:          0  HIT:          0  MISS:          0
cpu0_L1I TOTAL     ACCESS:    1780220  HIT:    1780034  MISS:        186
cpu0_L1I LOAD      ACCESS:    1780220  HIT:    1780034  MISS:        186
cpu0_L1I RFO       ACCESS:          0  HIT:          0  MISS:          0
cpu0_L1I PREFETCH  ACCESS:          0  HIT:          0  MISS:          0
cpu0_L1I WRITEBACK ACCESS:          0  HIT:          0  MISS:          0
cpu0_STLB TOTAL     ACCESS:      60197  HIT:      51029  MISS:       9168
cpu0_STLB LOAD      ACCESS:      51076  HIT:      41943  MISS:       9133
cpu0_STLB RFO       ACCESS:       9121  HIT:       9086  MISS:         35
cpu0_STLB PREFETCH  ACCESS:          0  HIT:          0  MISS:          0
cpu0_STLB WRITEBACK ACCESS:          0  HIT:          0  MISS:          0
cpu0_L1D TOTAL     ACCESS:    8122401  HIT:    8104367  MISS:      18034
cpu0_L1D LOAD      ACCESS:    5678990  HIT:    5664580  MISS:      14410
cpu0_L1D RFO       ACCESS:    2434243  HIT:    2430675  MISS:       3568
cpu0_L1D PREFETCH  ACCESS:          0  HIT:          0  MISS:          0
cpu0_L1D WRITEBACK ACCESS:          0  HIT:          0  MISS:          0
cpu0_L2C TOTAL     ACCESS:      31864  HIT:      20546  MISS:      11318
cpu0_L2C LOAD      ACCESS:      14596  HIT:       4061  MISS:      10535
cpu0_L2C RFO       ACCESS:       3567  HIT:       2853  MISS:        714
cpu0_L2C PREFETCH  ACCESS:          0  HIT:          0  MISS:          0
cpu0_L2C WRITEBACK ACCESS:      13645  HIT:      13577  MISS:         68
LLC TOTAL     ACCESS:      21802  HIT:      11294  MISS:      10508
LLC LOAD      ACCESS:      10535  HIT:        586  MISS:       9949
LLC RFO       ACCESS:        714  HIT:        158  MISS:        556
LLC PREFETCH  ACCESS:          0  HIT:          0  MISS:          0
LLC WRITEBACK ACCESS:      10552  HIT:      10549  MISS:          3
Heartbeat CPU 0 instructions: 84000001 cycles: 53247380 heartbeat IPC: 0.837599 cumulative IPC: 0.834858 (Simulation time: 0 hr 41 min 3 sec) 

Region of Interest Statistics
cpu0_DTLB TOTAL     ACCESS:    7209399  HIT:    7145562  MISS:      63837
cpu0_DTLB LOAD      ACCESS:    5745238  HIT:    5691053  MISS:      54185
cpu0_DTLB RFO       ACCESS:    1464161  HIT:    1454509  MISS:       9652
cpu0_DTLB PREFETCH  ACCESS:          0  HIT:          0  MISS:          0
cpu0_DTLB WRITEBACK ACCESS:          0  HIT:          0  MISS:          0
cpu0_ITLB TOTAL     ACCESS:    3323887  HIT:    3323887  MISS:          0
cpu0_ITLB LOAD      ACCESS:    3323887  HIT:    3323887  MISS:          0
cpu0_ITLB RFO       ACCESS:          0  HIT:          0  MISS:          0
cpu0_ITLB PREFETCH  ACCESS:          0  HIT:          0  MISS:          0
cpu0_ITLB WRITEBACK ACCESS:          0  HIT:          0  MISS:          0
cpu0_L1I TOTAL     ACCESS:    1893194  HIT:    1892984  MISS:        210
cpu0_L1I LOAD      ACCESS:    1893194  HIT:    1892984  MISS:        210
cpu0_L1I RFO       ACCESS:          0  HIT:          0  MISS:          0
cpu0_L1I PREFETCH  ACCESS:          0  HIT:          0  MISS:          0
cpu0_L1I WRITEBACK ACCESS:          0  HIT:          0  MISS:          0
cpu0_STLB TOTAL     ACCESS:      63837  HIT:      54129  MISS:       9708
cpu0_STLB LOAD      ACCESS:      54185  HIT:      44514  MISS:       9671
cpu0_STLB RFO       ACCESS:       9652  HIT:       9615  MISS:         37
cpu0_STLB PREFETCH  ACCESS:          0  HIT:          0  MISS:          0
cpu0_STLB WRITEBACK ACCESS:          0  HIT:          0  MISS:          0
cpu0_L1D TOTAL     ACCESS:    8628965  HIT:    8609668  MISS:      19297
cpu0_L1D LOAD      ACCESS:    6031686  HIT:    6016346  MISS:      15340
cpu0_L1D RFO       ACCESS:    2587571  HIT:    2583679  MISS:       3892
cpu0_L1D PREFETCH  ACCESS:          0  HIT:          0  MISS:          0
cpu0_L1D WRITEBACK ACCESS:          0  HIT:          0  MISS:          0
cpu0_L2C TOTAL     ACCESS:      34123  HIT:      22135  MISS:      11988
cpu0_L2C LOAD      ACCESS:      15550  HIT:       4394  MISS:      11156
cpu0_L2C RFO       ACCESS:       3891  HIT:       3128  MISS:        763
cpu0_L2C PREFETCH  ACCESS:          0  HIT:          0  MISS:          0
cpu0_L2C WRITEBACK ACCESS:      14617  HIT:      14549  MISS:         68
LLC TOTAL     ACCESS:      23093  HIT:      11954  MISS:      11139
LLC LOAD      ACCESS:      11156  HIT:        606  MISS:      10550
LLC RFO       ACCESS:        763  HIT:        177  MISS:        586
LLC PREFETCH  ACCESS:          0  HIT:          0  MISS:          0
LLC WRITEBACK ACCESS:      11173  HIT:      11170  MISS:          3
Heartbeat CPU 0 instructions: 86000004 cycles: 55595019 heartbeat IPC: 0.851921 cumulative IPC: 0.835788 (Simulation time: 0 hr 42 min 4 sec) 

Region of Interest Statistics
cpu0_DTLB TOTAL     ACCESS:    7630194  HIT:    7563021  MISS:      67173
cpu0_DTLB LOAD      ACCESS:    6077256  HIT:    6020227  MISS:      57029
cpu0_DTLB RFO       ACCESS:    1552938  HIT:    1542794  MISS:      10144
cpu0_DTLB PREFETCH  ACCESS:          0  HIT:          0  MISS:          0
cpu0_DTLB WRITEBACK ACCESS:          0  HIT:          0  MISS:          0
cpu0_ITLB TOTAL     ACCESS:    3518029  HIT:    3518029  MISS:          0
cpu0_ITLB LOAD      ACCESS:    3518029  HIT:    3518029  MISS:          0
cpu0_ITLB RFO       ACCESS:          0  HIT:          0  MISS:          0
cpu0_ITLB PREFETCH  ACCESS:          0  HIT:          0  MISS:          0
cpu0_ITLB WRITEBACK ACCESS:          0  HIT:          0  MISS:          0
cpu0_L1I TOTAL     ACCESS:    2012037  HIT:    2011802  MISS:        235
cpu0_L1I LOAD      ACCESS:    2012037  HIT:    2011802  MISS:        235
cpu0_L1I RFO       ACCESS:          0  HIT:          0  MISS:          0
cpu0_L1I PREFETCH  ACCESS:          0  HIT:          0  MISS:          0
cpu0_L1I WRITEBACK ACCESS:          0  HIT:          0  MISS:          0
cpu0_STLB TOTAL     ACCESS:      67173  HIT:      56944  MISS:      10229
cpu0_STLB LOAD      ACCESS:      57029  HIT:      46838  MISS:      10191
cpu0_STLB RFO       ACCESS:      10144  HIT:      10106  MISS:         38
cpu0_STLB PREFETCH  ACCESS:          0  HIT:          0  MISS:          0
cpu0_STLB WRITEBACK ACCESS:          0  HIT:          0  MISS:          0
cpu0_L1D TOTAL     ACCESS:    9133064  HIT:    9112513  MISS:      20551
cpu0_L1D LOAD      ACCESS:    6378525  HIT:    6362237  MISS:      16288
cpu0_L1D RFO       ACCESS:    2744310  HIT:    2740120  MISS:       4190
cpu0_L1D PREFETCH  ACCESS:          0  HIT:          0  MISS:          0
cpu0_L1D WRITEBACK ACCESS:          0  HIT:          0  MISS:          0
cpu0_L2C TOTAL     ACCESS:      36312  HIT:      23713  MISS:      12599
cpu0_L2C LOAD      ACCESS:      16523  HIT:       4786  MISS:      11737
cpu0_L2C RFO       ACCESS:       4189  HIT:       3398  MISS:        791
cpu0_L2C PREFETCH  ACCESS:          0  HIT:          0  MISS:          0
cpu0_L2C WRITEBACK ACCESS:      15527  HIT:      15457  MISS:         70
LLC TOTAL     ACCESS:      24264  HIT:      12533  MISS:      11731
LLC LOAD      ACCESS:      11737  HIT:        620  MISS:      11117
LLC RFO       ACCESS:        791  HIT:        181  MISS:        610
LLC PREFETCH  ACCESS:          0  HIT:          0  MISS:          0
LLC WRITEBACK ACCESS:      11735  HIT:      11731  MISS:          4
Heartbeat CPU 0 instructions: 88000000 cycles: 57979707 heartbeat IPC: 0.838682 cumulative IPC: 0.83594 (Simulation time: 0 hr 43 min 5 sec) 

Region of Interest Statistics
cpu0_DTLB TOTAL     ACCESS:    8057522  HIT:    7986605  MISS:      70917
cpu0_DTLB LOAD      ACCESS:    6416890  HIT:    6356693  MISS:      60197
cpu0_DTLB RFO       ACCESS:    1640632  HIT:    1629912  MISS:      10720
cpu0_DTLB PREFETCH  ACCESS:          0  HIT:          0  MISS:          0
cpu0_DTLB WRITEBACK ACCESS:          0  HIT:          0  MISS:          0
cpu0_ITLB TOTAL     ACCESS:    3712728  HIT:    3712728  MISS:          0
cpu0_ITLB LOAD      ACCESS:    3712728  HIT:    3712728  MISS:          0
cpu0_ITLB RFO       ACCESS:          0  HIT:          0  MISS:          0
cpu0_ITLB PREFETCH  ACCESS:          0  HIT:          0  MISS:          0
cpu0_ITLB WRITEBACK ACCESS:          0  HIT:          0  MISS:          0
cpu0_L1I TOTAL     ACCESS:    2125927  HIT:    2125682  MISS:        245
cpu0_L1I LOAD      ACCESS:    2125927  HIT:    2125682  MISS:        245
cpu0_L1I RFO       ACCESS:          0  HIT:          0  MISS:          0
cpu0_L1I PREFETCH  ACCESS:          0  HIT:          0  MISS:          0
cpu0_L1I WRITEBACK ACCESS:          0  HIT:          0  MISS:          0
cpu0_STLB TOTAL     ACCESS:      70917  HIT:      60109  MISS:      10808
cpu0_STLB LOAD      ACCESS:      60197  HIT:      49427  MISS:      10770
cpu0_STLB RFO       ACCESS:      10720  HIT:      10682  MISS:         38
cpu0_STLB PREFETCH  ACCESS:          0  HIT:          0  MISS:          0
cpu0_STLB WRITEBACK ACCESS:          0  HIT:          0  MISS:          0
cpu0_L1D TOTAL     ACCESS:    9644994  HIT:    9623157  MISS:      21837
cpu0_L1D LOAD      ACCESS:    6735885  HIT:    6718605  MISS:      17280
cpu0_L1D RFO       ACCESS:    2898301  HIT:    2893819  MISS:       4482
cpu0_L1D PREFETCH  ACCESS:          0  HIT:          0  MISS:          0
cpu0_L1D WRITEBACK ACCESS:          0  HIT:          0  MISS:          0
cpu0_L2C TOTAL     ACCESS:      38545  HIT:      25253  MISS:      13292
cpu0_L2C LOAD      ACCESS:      17525  HIT:       5125  MISS:      12400
cpu0_L2C RFO       ACCESS:       4481  HIT:       3662  MISS:        819
cpu0_L2C PREFETCH  ACCESS:          0  HIT:          0  MISS:          0
cpu0_L2C WRITEBACK ACCESS:      16464  HIT:      16392  MISS:         72
LLC TOTAL     ACCESS:      25591  HIT:      13197  MISS:      12394
LLC LOAD      ACCESS:      12400  HIT:        646  MISS:      11754
LLC RFO       ACCESS:        819  HIT:        184  MISS:        635
LLC PREFETCH  ACCESS:          0  HIT:          0  MISS:          0
LLC WRITEBACK ACCESS:      12371  HIT:      12366  MISS:          5
Heartbeat CPU 0 instructions: 90000001 cycles: 60408973 heartbeat IPC: 0.823294 cumulative IPC: 0.835299 (Simulation time: 0 hr 44 min 7 sec) 

Region of Interest Statistics
cpu0_DTLB TOTAL     ACCESS:    8486852  HIT:    8411995  MISS:      74857
cpu0_DTLB LOAD      ACCESS:    6759243  HIT:    6695729  MISS:      63514
cpu0_DTLB RFO       ACCESS:    1727609  HIT:    1716266  MISS:      11343
cpu0_DTLB PREFETCH  ACCESS:          0  HIT:          0  MISS:          0
cpu0_DTLB WRITEBACK ACCESS:          0  HIT:          0  MISS:          0
cpu0_ITLB TOTAL     ACCESS:    3908519  HIT:    3908519  MISS:          0
cpu0_ITLB LOAD      ACCESS:    3908519  HIT:    3908519  MISS:          0
cpu0_ITLB RFO       ACCESS:          0  HIT:          0  MISS:          0
cpu0_ITLB PREFETCH  ACCESS:          0  HIT:          0  MISS:          0
cpu0_ITLB WRITEBACK ACCESS:          0  HIT:          0  MISS:          0
cpu0_L1I TOTAL     ACCESS:    2238460  HIT:    2238196  MISS:        264
cpu0_L1I LOAD      ACCESS:    2238460  HIT:    2238196  MISS:        264
cpu0_L1I RFO       ACCESS:          0  HIT:          0  MISS:          0
cpu0_L1I PREFETCH  ACCESS:          0  HIT:          0  MISS:          0
cpu0_L1I WRITEBACK ACCESS:          0  HIT:          0  MISS:          0
cpu0_STLB TOTAL     ACCESS:      74857  HIT:      63460  MISS:      11397
cpu0_STLB LOAD      ACCESS:      63514  HIT:      52160  MISS:      11354
cpu0_STLB RFO       ACCESS:      11343  HIT:      11300  MISS:         43
cpu0_STLB PREFETCH  ACCESS:          0  HIT:          0  MISS:          0
cpu0_STLB WRITEBACK ACCESS:          0  HIT:          0  MISS:          0
cpu0_L1D TOTAL     ACCESS:   10157473  HIT:   10134545  MISS:      22928
cpu0_L1D LOAD      ACCESS:    7093886  HIT:    7075713  MISS:      18173
cpu0_L1D RFO       ACCESS:    3052190  HIT:    3047515  MISS:       4675
cpu0_L1D PREFETCH  ACCESS:          0  HIT:          0  MISS:          0
cpu0_L1D WRITEBACK ACCESS:          0  HIT:          0  MISS:          0
cpu0_L2C TOTAL     ACCESS:      40468  HIT:      26399  MISS:      14069
cpu0_L2C LOAD      ACCESS:      18437  HIT:       5336  MISS:      13101
cpu0_L2C RFO       ACCESS:       4674  HIT:       3781  MISS:        893
cpu0_L2C PREFETCH  ACCESS:          0  HIT:          0  MISS:          0
cpu0_L2C WRITEBACK ACCESS:      17277  HIT:      17203  MISS:         74
LLC TOTAL     ACCESS:      27093  HIT:      14014  MISS:      13079
LLC LOAD      ACCESS:      13101  HIT:        705  MISS:      12396
LLC RFO       ACCESS:        893  HIT:        215  MISS:        678
LLC PREFETCH  ACCESS:          0  HIT:          0  MISS:          0
LLC WRITEBACK ACCESS:      13098  HIT:      13093  MISS:          5
Heartbeat CPU 0 instructions: 92000004 cycles: 62854199 heartbeat IPC: 0.817922 cumulative IPC: 0.834454 (Simulation time: 0 hr 45 min 7 sec) 

Region of Interest Statistics
cpu0_DTLB TOTAL     ACCESS:    8912010  HIT:    8833247  MISS:      78763
cpu0_DTLB LOAD      ACCESS:    7100323  HIT:    7033522  MISS:      66801
cpu0_DTLB RFO       ACCESS:    1811687  HIT:    1799725  MISS:      11962
cpu0_DTLB PREFETCH  ACCESS:          0  HIT:          0  MISS:          0
cpu0_DTLB WRITEBACK ACCESS:          0  HIT:          0  MISS:          0
cpu0_ITLB TOTAL     ACCESS:    4104738  HIT:    4104738  MISS:          0
cpu0_ITLB LOAD      ACCESS:    4104738  HIT:    4104738  MISS:          0
cpu0_ITLB RFO       ACCESS:          0  HIT:          0  MISS:          0
cpu0_ITLB PREFETCH  ACCESS:          0  HIT:          0  MISS:          0
cpu0_ITLB WRITEBACK ACCESS:          0  HIT:          0  MISS:          0
cpu0_L1I TOTAL     ACCESS:    2347057  HIT:    2346779  MISS:        278
cpu0_L1I LOAD      ACCESS:    2347057  HIT:    2346779  MISS:        278
cpu0_L1I RFO       ACCESS:          0  HIT:          0  MISS:          0
cpu0_L1I PREFETCH  ACCESS:          0  HIT:          0  MISS:          0
cpu0_L1I WRITEBACK ACCESS:          0  HIT:          0  MISS:          0
cpu0_STLB TOTAL     ACCESS:      78763  HIT:      66778  MISS:      11985
cpu0_STLB LOAD      ACCESS:      66801  HIT:      54860  MISS:      11941
cpu0_STLB RFO       ACCESS:      11962  HIT:      11918  MISS:         44
cpu0_STLB PREFETCH  ACCESS:          0  HIT:          0  MISS:          0
cpu0_STLB WRITEBACK ACCESS:          0  HIT:          0  MISS:          0
cpu0_L1D TOTAL     ACCESS:   10664600  HIT:   10640764  MISS:      23836
cpu0_L1D LOAD      ACCESS:    7450373  HIT:    7431371  MISS:      19002
cpu0_L1D RFO       ACCESS:    3202242  HIT:    3197490  MISS:       4752
cpu0_L1D PREFETCH  ACCESS:          0  HIT:          0  MISS:          0
cpu0_L1D WRITEBACK ACCESS:          0  HIT:          0  MISS:          0
cpu0_L2C TOTAL     ACCESS:      42125  HIT:      27366  MISS:      14759
cpu0_L2C LOAD      ACCESS:      19280  HIT:       5525  MISS:      13755
cpu0_L2C RFO       ACCESS:       4751  HIT:       3822  MISS:        929
cpu0_L2C PREFETCH  ACCESS:          0  HIT:          0  MISS:          0
cpu0_L2C WRITEBACK ACCESS:      18012  HIT:      17938  MISS:         74
LLC TOTAL     ACCESS:      28426  HIT:      14689  MISS:      13737
LLC LOAD      ACCESS:      13755  HIT:        735  MISS:      13020
LLC RFO       ACCESS:        929  HIT:        217  MISS:        712
LLC PREFETCH  ACCESS:          0  HIT:          0  MISS:          0
LLC WRITEBACK ACCESS:      13741  HIT:      13736  MISS:          5
Heartbeat CPU 0 instructions: 94000001 cycles: 65258152 heartbeat IPC: 0.831962 cumulative IPC: 0.834341 (Simulation time: 0 hr 46 min 7 sec) 

Region of Interest Statistics
cpu0_DTLB TOTAL     ACCESS:    9346070  HIT:    9263458  MISS:      82612
cpu0_DTLB LOAD      ACCESS:    7448337  HIT:    7378224  MISS:      70113
cpu0_DTLB RFO       ACCESS:    1897733  HIT:    1885234  MISS:      12499
cpu0_DTLB PREFETCH  ACCESS:          0  HIT:          0  MISS:          0
cpu0_DTLB WRITEBACK ACCESS:          0  HIT:          0  MISS:          0
cpu0_ITLB TOTAL     ACCESS:    4303085  HIT:    4303085  MISS:          0
cpu0_ITLB LOAD      ACCESS:    4303085  HIT:    4303085  MISS:          0
cpu0_ITLB RFO       ACCESS:          0  HIT:          0  MISS:          0
cpu0_ITLB PREFETCH  ACCESS:          0  HIT:          0  MISS:          0
cpu0_ITLB WRITEBACK ACCESS:          0  HIT:          0  MISS:          0
cpu0_L1I TOTAL     ACCESS:    2453825  HIT:    2453525  MISS:        300
cpu0_L1I LOAD      ACCESS:    2453825  HIT:    2453525  MISS:        300
cpu0_L1I RFO       ACCESS:          0  HIT:          0  MISS:          0
cpu0_L1I PREFETCH  ACCESS:          0  HIT:          0  MISS:          0
cpu0_L1I WRITEBACK ACCESS:          0  HIT:          0  MISS:          0
cpu0_STLB TOTAL     ACCESS:      82612  HIT:      69999  MISS:      12613
cpu0_STLB LOAD      ACCESS:      70113  HIT:      57549  MISS:      12564
cpu0_STLB RFO       ACCESS:      12499  HIT:      12450  MISS:         49
cpu0_STLB PREFETCH  ACCESS:          0  HIT:          0  MISS:          0
cpu0_STLB WRITEBACK ACCESS:          0  HIT:          0  MISS:          0
cpu0_L1D TOTAL     ACCESS:   11184299  HIT:   11159224  MISS:      25075
cpu0_L1D LOAD      ACCESS:    7817805  HIT:    7797783  MISS:      20022
cpu0_L1D RFO       ACCESS:    3353881  HIT:    3348913  MISS:       4968
cpu0_L1D PREFETCH  ACCESS:          0  HIT:          0  MISS:          0
cpu0_L1D WRITEBACK ACCESS:          0  HIT:          0  MISS:          0
cpu0_L2C TOTAL     ACCESS:      44330  HIT:      28775  MISS:      15555
cpu0_L2C LOAD      ACCESS:      20322  HIT:       5829  MISS:      14493
cpu0_L2C RFO       ACCESS:       4967  HIT:       3988  MISS:        979
cpu0_L2C PREFETCH  ACCESS:          0  HIT:          0  MISS:          0
cpu0_L2C WRITEBACK ACCESS:      18956  HIT:      18874  MISS:         82
LLC TOTAL     ACCESS:      29953  HIT:      15482  MISS:      14471
LLC LOAD      ACCESS:      14493  HIT:        783  MISS:      13710
LLC RFO       ACCESS:        979  HIT:        223  MISS:        756
LLC PREFETCH  ACCESS:          0  HIT:          0  MISS:          0
LLC WRITEBACK ACCESS:      14480  HIT:      14475  MISS:          5
Heartbeat CPU 0 instructions: 96000000 cycles: 67646642 heartbeat IPC: 0.837349 cumulative IPC: 0.834471 (Simulation time: 0 hr 47 min 8 sec) 

Region of Interest Statistics
cpu0_DTLB TOTAL     ACCESS:    9780558  HIT:    9694244  MISS:      86314
cpu0_DTLB LOAD      ACCESS:    7794622  HIT:    7721375  MISS:      73247
cpu0_DTLB RFO       ACCESS:    1985936  HIT:    1972869  MISS:      13067
cpu0_DTLB PREFETCH  ACCESS:          0  HIT:          0  MISS:          0
cpu0_DTLB WRITEBACK ACCESS:          0  HIT:          0  MISS:          0
cpu0_ITLB TOTAL     ACCESS:    4499968  HIT:    4499968  MISS:          0
cpu0_ITLB LOAD      ACCESS:    4499968  HIT:    4499968  MISS:          0
cpu0_ITLB RFO       ACCESS:          0  HIT:          0  MISS:          0
cpu0_ITLB PREFETCH  ACCESS:          0  HIT:          0  MISS:          0
cpu0_ITLB WRITEBACK ACCESS:          0  HIT:          0  MISS:          0
cpu0_L1I TOTAL     ACCESS:    2567696  HIT:    2567384  MISS:        312
cpu0_L1I LOAD      ACCESS:    2567696  HIT:    2567384  MISS:        312
cpu0_L1I RFO       ACCESS:          0  HIT:          0  MISS:          0
cpu0_L1I PREFETCH  ACCESS:          0  HIT:          0  MISS:          0
cpu0_L1I WRITEBACK ACCESS:          0  HIT:          0  MISS:          0
cpu0_STLB TOTAL     ACCESS:      86314  HIT:      73112  MISS:      13202
cpu0_STLB LOAD      ACCESS:      73247  HIT:      60095  MISS:      13152
cpu0_STLB RFO       ACCESS:      13067  HIT:      13017  MISS:         50
cpu0_STLB PREFETCH  ACCESS:          0  HIT:          0  MISS:          0
cpu0_STLB WRITEBACK ACCESS:          0  HIT:          0  MISS:          0
cpu0_L1D TOTAL     ACCESS:   11702209  HIT:   11675904  MISS:      26305
cpu0_L1D LOAD      ACCESS:    8181441  HIT:    8160436  MISS:      21005
cpu0_L1D RFO       ACCESS:    3507566  HIT:    3502354  MISS:       5212
cpu0_L1D PREFETCH  ACCESS:          0  HIT:          0  MISS:          0
cpu0_L1D WRITEBACK ACCESS:          0  HIT:          0  MISS:          0
cpu0_L2C TOTAL     ACCESS:      46449  HIT:      30182  MISS:      16267
cpu0_L2C LOAD      ACCESS:      21317  HIT:       6163  MISS:      15154
cpu0_L2C RFO       ACCESS:       5211  HIT:       4187  MISS:       1024
cpu0_L2C PREFETCH  ACCESS:          0  HIT:          0  MISS:          0
cpu0_L2C WRITEBACK ACCESS:      19833  HIT:      19745  MISS:         88
LLC TOTAL     ACCESS:      31337  HIT:      16199  MISS:      15138
LLC LOAD      ACCESS:      15154  HIT:        815  MISS:      14339
LLC RFO       ACCESS:       1024  HIT:        230  MISS:        794
LLC PREFETCH  ACCESS:          0  HIT:          0  MISS:          0
LLC WRITEBACK ACCESS:      15158  HIT:      15153  MISS:          5
Heartbeat CPU 0 instructions: 98000002 cycles: 70048451 heartbeat IPC: 0.832707 cumulative IPC: 0.834397 (Simulation time: 0 hr 48 min 8 sec) 

Region of Interest Statistics
cpu0_DTLB TOTAL     ACCESS:   10216868  HIT:   10126759  MISS:      90109
cpu0_DTLB LOAD      ACCESS:    8142688  HIT:    8066220  MISS:      76468
cpu0_DTLB RFO       ACCESS:    2074180  HIT:    2060539  MISS:      13641
cpu0_DTLB PREFETCH  ACCESS:          0  HIT:          0  MISS:          0
cpu0_DTLB WRITEBACK ACCESS:          0  HIT:          0  MISS:          0
cpu0_ITLB TOTAL     ACCESS:    4696709  HIT:    4696709  MISS:          0
cpu0_ITLB LOAD      ACCESS:    4696709  HIT:    4696709  MISS:          0
cpu0_ITLB RFO       ACCESS:          0  HIT:          0  MISS:          0
cpu0_ITLB PREFETCH  ACCESS:          0  HIT:          0  MISS:          0
cpu0_ITLB WRITEBACK ACCESS:          0  HIT:          0  MISS:          0
cpu0_L1I TOTAL     ACCESS:    2679937  HIT:    2679600  MISS:        337
cpu0_L1I LOAD      ACCESS:    2679937  HIT:    2679600  MISS:        337
cpu0_L1I RFO       ACCESS:          0  HIT:          0  MISS:          0
cpu0_L1I PREFETCH  ACCESS:          0  HIT:          0  MISS:          0
cpu0_L1I WRITEBACK ACCESS:          0  HIT:          0  MISS:          0
cpu0_STLB TOTAL     ACCESS:      90109  HIT:      76303  MISS:      13806
cpu0_STLB LOAD      ACCESS:      76468  HIT:      62713  MISS:      13755
cpu0_STLB RFO       ACCESS:      13641  HIT:      13590  MISS:         51
cpu0_STLB PREFETCH  ACCESS:          0  HIT:          0  MISS:          0
cpu0_STLB WRITEBACK ACCESS:          0  HIT:          0  MISS:          0
cpu0_L1D TOTAL     ACCESS:   12223653  HIT:   12196123  MISS:      27530
cpu0_L1D LOAD      ACCESS:    8548016  HIT:    8526029  MISS:      21987
cpu0_L1D RFO       ACCESS:    3661831  HIT:    3656378  MISS:       5453
cpu0_L1D PREFETCH  ACCESS:          0  HIT:          0  MISS:          0
cpu0_L1D WRITEBACK ACCESS:          0  HIT:          0  MISS:          0
cpu0_L2C TOTAL     ACCESS:      48610  HIT:      31615  MISS:      16995
cpu0_L2C LOAD      ACCESS:      22324  HIT:       6482  MISS:      15842
cpu0_L2C RFO       ACCESS:       5452  HIT:       4391  MISS:       1061
cpu0_L2C PREFETCH  ACCESS:          0  HIT:          0  MISS:          0
cpu0_L2C WRITEBACK ACCESS:      20744  HIT:      20653  MISS:         91
LLC TOTAL     ACCESS:      32738  HIT:      16911  MISS:      15827
LLC LOAD      ACCESS:      15842  HIT:        844  MISS:      14998
LLC RFO       ACCESS:       1061  HIT:        237  MISS:        824
LLC PREFETCH  ACCESS:          0  HIT:          0  MISS:          0
LLC WRITEBACK ACCESS:      15834  HIT:      15829  MISS:          5
Heartbeat CPU 0 instructions: 100000000 cycles: 72422145 heartbeat IPC: 0.842568 cumulative IPC: 0.834721 (Simulation time: 0 hr 49 min 8 sec) 

Region of Interest Statistics
cpu0_DTLB TOTAL     ACCESS:   10652774  HIT:   10558751  MISS:      94023
cpu0_DTLB LOAD      ACCESS:    8489080  HIT:    8409277  MISS:      79803
cpu0_DTLB RFO       ACCESS:    2163694  HIT:    2149474  MISS:      14220
cpu0_DTLB PREFETCH  ACCESS:          0  HIT:          0  MISS:          0
cpu0_DTLB WRITEBACK ACCESS:          0  HIT:          0  MISS:          0
cpu0_ITLB TOTAL     ACCESS:    4894998  HIT:    4894998  MISS:          0
cpu0_ITLB LOAD      ACCESS:    4894998  HIT:    4894998  MISS:          0
cpu0_ITLB RFO       ACCESS:          0  HIT:          0  MISS:          0
cpu0_ITLB PREFETCH  ACCESS:          0  HIT:          0  MISS:          0
cpu0_ITLB WRITEBACK ACCESS:          0  HIT:          0  MISS:          0
cpu0_L1I TOTAL     ACCESS:    2794794  HIT:    2794444  MISS:        350
cpu0_L1I LOAD      ACCESS:    2794794  HIT:    2794444  MISS:        350
cpu0_L1I RFO       ACCESS:          0  HIT:          0  MISS:          0
cpu0_L1I PREFETCH  ACCESS:          0  HIT:          0  MISS:          0
cpu0_L1I WRITEBACK ACCESS:          0  HIT:          0  MISS:          0
cpu0_STLB TOTAL     ACCESS:      94023  HIT:      79578  MISS:      14445
cpu0_STLB LOAD      ACCESS:      79803  HIT:      65414  MISS:      14389
cpu0_STLB RFO       ACCESS:      14220  HIT:      14164  MISS:         56
cpu0_STLB PREFETCH  ACCESS:          0  HIT:          0  MISS:          0
cpu0_STLB WRITEBACK ACCESS:          0  HIT:          0  MISS:          0
cpu0_L1D TOTAL     ACCESS:   12742130  HIT:   12713210  MISS:      28920
cpu0_L1D LOAD      ACCESS:    8910842  HIT:    8887752  MISS:      23090
cpu0_L1D RFO       ACCESS:    3816843  HIT:    3811108  MISS:       5735
cpu0_L1D PREFETCH  ACCESS:          0  HIT:          0  MISS:          0
cpu0_L1D WRITEBACK ACCESS:          0  HIT:          0  MISS:          0
cpu0_L2C TOTAL     ACCESS:      50990  HIT:      33231  MISS:      17759
cpu0_L2C LOAD      ACCESS:      23440  HIT:       6890  MISS:      16550
cpu0_L2C RFO       ACCESS:       5734  HIT:       4620  MISS:       1114
cpu0_L2C PREFETCH  ACCESS:          0  HIT:          0  MISS:          0
cpu0_L2C WRITEBACK ACCESS:      21721  HIT:      21627  MISS:         94
LLC TOTAL     ACCESS:      34220  HIT:      17668  MISS:      16552
LLC LOAD      ACCESS:      16550  HIT:        872  MISS:      15678
LLC RFO       ACCESS:       1114  HIT:        245  MISS:        869
LLC PREFETCH  ACCESS:          0  HIT:          0  MISS:          0
LLC WRITEBACK ACCESS:      16555  HIT:      16550  MISS:          5
Heartbeat CPU 0 instructions: 102000001 cycles: 74830289 heartbeat IPC: 0.830516 cumulative IPC: 0.834559 (Simulation time: 0 hr 50 min 6 sec) 

Region of Interest Statistics
cpu0_DTLB TOTAL     ACCESS:   11081438  HIT:   10983573  MISS:      97865
cpu0_DTLB LOAD      ACCESS:    8831339  HIT:    8748292  MISS:      83047
cpu0_DTLB RFO       ACCESS:    2250099  HIT:    2235281  MISS:      14818
cpu0_DTLB PREFETCH  ACCESS:          0  HIT:          0  MISS:          0
cpu0_DTLB WRITEBACK ACCESS:          0  HIT:          0  MISS:          0
cpu0_ITLB TOTAL     ACCESS:    5091012  HIT:    5091012  MISS:          0
cpu0_ITLB LOAD      ACCESS:    5091012  HIT:    5091012  MISS:          0
cpu0_ITLB RFO       ACCESS:          0  HIT:          0  MISS:          0
cpu0_ITLB PREFETCH  ACCESS:          0  HIT:          0  MISS:          0
cpu0_ITLB WRITEBACK ACCESS:          0  HIT:          0  MISS:          0
cpu0_L1I TOTAL     ACCESS:    2905873  HIT:    2905513  MISS:        360
cpu0_L1I LOAD      ACCESS:    2905873  HIT:    2905513  MISS:        360
cpu0_L1I RFO       ACCESS:          0  HIT:          0  MISS:          0
cpu0_L1I PREFETCH  ACCESS:          0  HIT:          0  MISS:          0
cpu0_L1I WRITEBACK ACCESS:          0  HIT:          0  MISS:          0
cpu0_STLB TOTAL     ACCESS:      97865  HIT:      82823  MISS:      15042
cpu0_STLB LOAD      ACCESS:      83047  HIT:      68063  MISS:      14984
cpu0_STLB RFO       ACCESS:      14818  HIT:      14760  MISS:         58
cpu0_STLB PREFETCH  ACCESS:          0  HIT:          0  MISS:          0
cpu0_STLB WRITEBACK ACCESS:          0  HIT:          0  MISS:          0
cpu0_L1D TOTAL     ACCESS:   13252852  HIT:   13222675  MISS:      30177
cpu0_L1D LOAD      ACCESS:    9270120  HIT:    9246019  MISS:      24101
cpu0_L1D RFO       ACCESS:    3967690  HIT:    3961713  MISS:       5977
cpu0_L1D PREFETCH  ACCESS:          0  HIT:          0  MISS:          0
cpu0_L1D WRITEBACK ACCESS:          0  HIT:          0  MISS:          0
cpu0_L2C TOTAL     ACCESS:      53132  HIT:      34684  MISS:      18448
cpu0_L2C LOAD      ACCESS:      24460  HIT:       7259  MISS:      17201
cpu0_L2C RFO       ACCESS:       5976  HIT:       4825  MISS:       1151
cpu0_L2C PREFETCH  ACCESS:          0  HIT:          0  MISS:          0
cpu0_L2C WRITEBACK ACCESS:      22597  HIT:      22503  MISS:         94
LLC TOTAL     ACCESS:      35550  HIT:      18333  MISS:      17217
LLC LOAD      ACCESS:      17201  HIT:        893  MISS:      16308
LLC RFO       ACCESS:       1151  HIT:        247  MISS:        904
LLC PREFETCH  ACCESS:          0  HIT:          0  MISS:          0
LLC WRITEBACK ACCESS:      17196  HIT:      17191  MISS:          5
Heartbeat CPU 0 instructions: 104000001 cycles: 77231128 heartbeat IPC: 0.833042 cumulative IPC: 0.834502 (Simulation time: 0 hr 51 min 6 sec) 

Region of Interest Statistics
cpu0_DTLB TOTAL     ACCESS:   11510994  HIT:   11409131  MISS:     101863
cpu0_DTLB LOAD      ACCESS:    9175373  HIT:    9088915  MISS:      86458
cpu0_DTLB RFO       ACCESS:    2335621  HIT:    2320216  MISS:      15405
cpu0_DTLB PREFETCH  ACCESS:          0  HIT:          0  MISS:          0
cpu0_DTLB WRITEBACK ACCESS:          0  HIT:          0  MISS:          0
cpu0_ITLB TOTAL     ACCESS:    5290895  HIT:    5290895  MISS:          0
cpu0_ITLB LOAD      ACCESS:    5290895  HIT:    5290895  MISS:          0
cpu0_ITLB RFO       ACCESS:          0  HIT:          0  MISS:          0
cpu0_ITLB PREFETCH  ACCESS:          0  HIT:          0  MISS:          0
cpu0_ITLB WRITEBACK ACCESS:          0  HIT:          0  MISS:          0
cpu0_L1I TOTAL     ACCESS:    3010706  HIT:    3010333  MISS:        373
cpu0_L1I LOAD      ACCESS:    3010706  HIT:    3010333  MISS:        373
cpu0_L1I RFO       ACCESS:          0  HIT:          0  MISS:          0
cpu0_L1I PREFETCH  ACCESS:          0  HIT:          0  MISS:          0
cpu0_L1I WRITEBACK ACCESS:          0  HIT:          0  MISS:          0
cpu0_STLB TOTAL     ACCESS:     101863  HIT:      86128  MISS:      15735
cpu0_STLB LOAD      ACCESS:      86458  HIT:      70784  MISS:      15674
cpu0_STLB RFO       ACCESS:      15405  HIT:      15344  MISS:         61
cpu0_STLB PREFETCH  ACCESS:          0  HIT:          0  MISS:          0
cpu0_STLB WRITEBACK ACCESS:          0  HIT:          0  MISS:          0
cpu0_L1D TOTAL     ACCESS:   13765921  HIT:   13734216  MISS:      31705
cpu0_L1D LOAD      ACCESS:    9632933  HIT:    9607614  MISS:      25319
cpu0_L1D RFO       ACCESS:    4117253  HIT:    4110970  MISS:       6283
cpu0_L1D PREFETCH  ACCESS:          0  HIT:          0  MISS:          0
cpu0_L1D WRITEBACK ACCESS:          0  HIT:          0  MISS:          0
cpu0_L2C TOTAL     ACCESS:      55754  HIT:      36470  MISS:      19284
cpu0_L2C LOAD      ACCESS:      25691  HIT:       7704  MISS:      17987
cpu0_L2C RFO       ACCESS:       6281  HIT:       5083  MISS:       1198
cpu0_L2C PREFETCH  ACCESS:          0  HIT:          0  MISS:          0
cpu0_L2C WRITEBACK ACCESS:      23679  HIT:      23582  MISS:         97
LLC TOTAL     ACCESS:      37169  HIT:      19153  MISS:      18016
LLC LOAD      ACCESS:      17987  HIT:        923  MISS:      17064
LLC RFO       ACCESS:       1198  HIT:        251  MISS:        947
LLC PREFETCH  ACCESS:          0  HIT:          0  MISS:          0
LLC WRITEBACK ACCESS:      17982  HIT:      17977  MISS:          5
Heartbeat CPU 0 instructions: 106000002 cycles: 79522646 heartbeat IPC: 0.872784 cumulative IPC: 0.835812 (Simulation time: 0 hr 52 min 2 sec) 

Region of Interest Statistics
cpu0_DTLB TOTAL     ACCESS:   11932973  HIT:   11827581  MISS:     105392
cpu0_DTLB LOAD      ACCESS:    9506356  HIT:    9416886  MISS:      89470
cpu0_DTLB RFO       ACCESS:    2426617  HIT:    2410695  MISS:      15922
cpu0_DTLB PREFETCH  ACCESS:          0  HIT:          0  MISS:          0
cpu0_DTLB WRITEBACK ACCESS:          0  HIT:          0  MISS:          0
cpu0_ITLB TOTAL     ACCESS:    5482538  HIT:    5482538  MISS:          0
cpu0_ITLB LOAD      ACCESS:    5482538  HIT:    5482538  MISS:          0
cpu0_ITLB RFO       ACCESS:          0  HIT:          0  MISS:          0
cpu0_ITLB PREFETCH  ACCESS:          0  HIT:          0  MISS:          0
cpu0_ITLB WRITEBACK ACCESS:          0  HIT:          0  MISS:          0
cpu0_L1I TOTAL     ACCESS:    3138920  HIT:    3138485  MISS:        435
cpu0_L1I LOAD      ACCESS:    3138920  HIT:    3138485  MISS:        435
cpu0_L1I RFO       ACCESS:          0  HIT:          0  MISS:          0
cpu0_L1I PREFETCH  ACCESS:          0  HIT:          0  MISS:          0
cpu0_L1I WRITEBACK ACCESS:          0  HIT:          0  MISS:          0
cpu0_STLB TOTAL     ACCESS:     105392  HIT:      89157  MISS:      16235
cpu0_STLB LOAD      ACCESS:      89470  HIT:      73297  MISS:      16173
cpu0_STLB RFO       ACCESS:      15922  HIT:      15860  MISS:         62
cpu0_STLB PREFETCH  ACCESS:          0  HIT:          0  MISS:          0
cpu0_STLB WRITEBACK ACCESS:          0  HIT:          0  MISS:          0
cpu0_L1D TOTAL     ACCESS:   14264650  HIT:   14231543  MISS:      33107
cpu0_L1D LOAD      ACCESS:    9973330  HIT:    9946990  MISS:      26340
cpu0_L1D RFO       ACCESS:    4275085  HIT:    4268422  MISS:       6663
cpu0_L1D PREFETCH  ACCESS:          0  HIT:          0  MISS:          0
cpu0_L1D WRITEBACK ACCESS:          0  HIT:          0  MISS:          0
cpu0_L2C TOTAL     ACCESS:      58108  HIT:      38222  MISS:      19886
cpu0_L2C LOAD      ACCESS:      26774  HIT:       8229  MISS:      18545
cpu0_L2C RFO       ACCESS:       6661  HIT:       5423  MISS:       1238
cpu0_L2C PREFETCH  ACCESS:          0  HIT:          0  MISS:          0
cpu0_L2C WRITEBACK ACCESS:      24569  HIT:      24468  MISS:        101
[...]
cpu0_DTLB LOAD      ACCESS:  253858537  HIT:  251592216  MISS:    2266321
cpu0_DTLB RFO       ACCESS:   67012918  HIT:   66626818  MISS:     386100
cpu0_DTLB PREFETCH  ACCESS:          0  HIT:          0  MISS:          0
cpu0_DTLB WRITEBACK ACCESS:          0  HIT:          0  MISS:          0
cpu0_ITLB TOTAL     ACCESS:  148034469  HIT:  148034454  MISS:         15
cpu0_ITLB LOAD      ACCESS:  148034469  HIT:  148034454  MISS:         15
cpu0_ITLB RFO       ACCESS:          0  HIT:          0  MISS:          0
cpu0_ITLB PREFETCH  ACCESS:          0  HIT:          0  MISS:          0
cpu0_ITLB WRITEBACK ACCESS:          0  HIT:          0  MISS:          0
cpu0_L1I TOTAL     ACCESS:   85889742  HIT:   85867954  MISS:      21788
cpu0_L1I LOAD      ACCESS:   85889742  HIT:   85867954  MISS:      21788
cpu0_L1I RFO       ACCESS:          0  HIT:          0  MISS:          0
cpu0_L1I PREFETCH  ACCESS:          0  HIT:          0  MISS:          0
cpu0_L1I WRITEBACK ACCESS:          0  HIT:          0  MISS:          0
cpu0_STLB TOTAL     ACCESS:    2652436  HIT:    2198719  MISS:     453717
cpu0_STLB LOAD      ACCESS:    2266336  HIT:    1814399  MISS:     451937
cpu0_STLB RFO       ACCESS:     386100  HIT:     384320  MISS:       1780
cpu0_STLB PREFETCH  ACCESS:          0  HIT:          0  MISS:          0
cpu0_STLB WRITEBACK ACCESS:          0  HIT:          0  MISS:          0
cpu0_L1D TOTAL     ACCESS:  381656804  HIT:  380736171  MISS:     920633
cpu0_L1D LOAD      ACCESS:  264510463  HIT:  263761895  MISS:     748568
cpu0_L1D RFO       ACCESS:  116692632  HIT:  116523168  MISS:     169464
cpu0_L1D PREFETCH  ACCESS:          0  HIT:          0  MISS:          0
cpu0_L1D WRITEBACK ACCESS:          0  HIT:          0  MISS:          0
cpu0_L2C TOTAL     ACCESS:    1580135  HIT:    1033461  MISS:     546674
cpu0_L2C LOAD      ACCESS:     770351  HIT:     259957  MISS:     510394
cpu0_L2C RFO       ACCESS:     169425  HIT:     135637  MISS:      33788
cpu0_L2C PREFETCH  ACCESS:          0  HIT:          0  MISS:          0
cpu0_L2C WRITEBACK ACCESS:     637758  HIT:     635372  MISS:       2386
LLC TOTAL     ACCESS:    1024963  HIT:     527027  MISS:     497936
LLC LOAD      ACCESS:     510394  HIT:      40132  MISS:     470262
LLC RFO       ACCESS:      33788  HIT:       7871  MISS:      25917
LLC PREFETCH  ACCESS:          0  HIT:          0  MISS:          0
LLC WRITEBACK ACCESS:     480675  HIT:     478936  MISS:       1739
Heartbeat CPU 0 instructions: 1550000003 cycles: 1782583689 heartbeat IPC: 0.827561 cumulative IPC: 0.847428 (Simulation time: 12 hr 24 min 53 sec) 

Region of Interest Statistics
cpu0_DTLB TOTAL     ACCESS:  321300359  HIT:  318643939  MISS:    2656420
cpu0_DTLB LOAD      ACCESS:  254199605  HIT:  251929919  MISS:    2269686
cpu0_DTLB RFO       ACCESS:   67100754  HIT:   66714020  MISS:     386734
cpu0_DTLB PREFETCH  ACCESS:          0  HIT:          0  MISS:          0
cpu0_DTLB WRITEBACK ACCESS:          0  HIT:          0  MISS:          0
cpu0_ITLB TOTAL     ACCESS:  148231008  HIT:  148230993  MISS:         15
cpu0_ITLB LOAD      ACCESS:  148231008  HIT:  148230993  MISS:         15
cpu0_ITLB RFO       ACCESS:          0  HIT:          0  MISS:          0
cpu0_ITLB PREFETCH  ACCESS:          0  HIT:          0  MISS:          0
cpu0_ITLB WRITEBACK ACCESS:          0  HIT:          0  MISS:          0
cpu0_L1I TOTAL     ACCESS:   86000090  HIT:   85978302  MISS:      21788
cpu0_L1I LOAD      ACCESS:   86000090  HIT:   85978302  MISS:      21788
cpu0_L1I RFO       ACCESS:          0  HIT:          0  MISS:          0
cpu0_L1I PREFETCH  ACCESS:          0  HIT:          0  MISS:          0
cpu0_L1I WRITEBACK ACCESS:          0  HIT:          0  MISS:          0
cpu0_STLB TOTAL     ACCESS:    2656435  HIT:    2202098  MISS:     454337
cpu0_STLB LOAD      ACCESS:    2269701  HIT:    1817144  MISS:     452557
cpu0_STLB RFO       ACCESS:     386734  HIT:     384954  MISS:       1780
cpu0_STLB PREFETCH  ACCESS:          0  HIT:          0  MISS:          0
cpu0_STLB WRITEBACK ACCESS:          0  HIT:          0  MISS:          0
cpu0_L1D TOTAL     ACCESS:  382174075  HIT:  381252425  MISS:     921650
cpu0_L1D LOAD      ACCESS:  264872044  HIT:  264122620  MISS:     749424
cpu0_L1D RFO       ACCESS:  116847702  HIT:  116678080  MISS:     169622
cpu0_L1D PREFETCH  ACCESS:          0  HIT:          0  MISS:          0
cpu0_L1D WRITEBACK ACCESS:          0  HIT:          0  MISS:          0
cpu0_L2C TOTAL     ACCESS:    1581992  HIT:    1034567  MISS:     547425
cpu0_L2C LOAD      ACCESS:     771207  HIT:     260102  MISS:     511105
cpu0_L2C RFO       ACCESS:     169583  HIT:     135756  MISS:      33827
cpu0_L2C PREFETCH  ACCESS:          0  HIT:          0  MISS:          0
cpu0_L2C WRITEBACK ACCESS:     638598  HIT:     636211  MISS:       2387
LLC TOTAL     ACCESS:    1026404  HIT:     527753  MISS:     498651
LLC LOAD      ACCESS:     511105  HIT:      40169  MISS:     470936
LLC RFO       ACCESS:      33827  HIT:       7873  MISS:      25954
LLC PREFETCH  ACCESS:          0  HIT:          0  MISS:          0
LLC WRITEBACK ACCESS:     481366  HIT:     479623  MISS:       1743
Finished CPU 0 instructions: 1500000002 cycles: 1770061785 cumulative IPC: 0.847428 (Simulation time: 12 hr 24 min 53 sec) 

ChampSim completed all CPUs

Region of Interest Statistics

CPU 0 cumulative IPC: 0.847428 instructions: 1500000002 cycles: 1770061785
cpu0_DTLB TOTAL     ACCESS:  321300359  HIT:  318643939  MISS:    2656420
cpu0_DTLB LOAD      ACCESS:  254199605  HIT:  251929919  MISS:    2269686
cpu0_DTLB RFO       ACCESS:   67100754  HIT:   66714020  MISS:     386734
cpu0_DTLB PREFETCH  ACCESS:          0  HIT:          0  MISS:          0
cpu0_DTLB WRITEBACK ACCESS:          0  HIT:          0  MISS:          0
cpu0_DTLB TRANSLATION ACCESS:          0  HIT:          0  MISS:          0
cpu0_DTLB PREFETCH  REQUESTED:          0  ISSUED:          0  USEFUL:          0  USELESS:          0
cpu0_DTLB AVERAGE MISS LATENCY: 12.7011 cycles
cpu0_ITLB TOTAL     ACCESS:  148231008  HIT:  148230993  MISS:         15
cpu0_ITLB LOAD      ACCESS:  148231008  HIT:  148230993  MISS:         15
cpu0_ITLB RFO       ACCESS:          0  HIT:          0  MISS:          0
cpu0_ITLB PREFETCH  ACCESS:          0  HIT:          0  MISS:          0
cpu0_ITLB WRITEBACK ACCESS:          0  HIT:          0  MISS:          0
cpu0_ITLB TRANSLATION ACCESS:          0  HIT:          0  MISS:          0
cpu0_ITLB PREFETCH  REQUESTED:          0  ISSUED:          0  USEFUL:          0  USELESS:          0
cpu0_ITLB AVERAGE MISS LATENCY: 217 cycles
cpu0_L1I TOTAL     ACCESS:   86000090  HIT:   85978302  MISS:      21788
cpu0_L1I LOAD      ACCESS:   86000090  HIT:   85978302  MISS:      21788
cpu0_L1I RFO       ACCESS:          0  HIT:          0  MISS:          0
cpu0_L1I PREFETCH  ACCESS:          0  HIT:          0  MISS:          0
cpu0_L1I WRITEBACK ACCESS:          0  HIT:          0  MISS:          0
cpu0_L1I TRANSLATION ACCESS:          0  HIT:          0  MISS:          0
cpu0_L1I PREFETCH  REQUESTED:          0  ISSUED:          0  USEFUL:          0  USELESS:          0
cpu0_L1I AVERAGE MISS LATENCY: 14.679 cycles
cpu0_STLB TOTAL     ACCESS:    2656435  HIT:    2202098  MISS:     454337
cpu0_STLB LOAD      ACCESS:    2269701  HIT:    1817144  MISS:     452557
cpu0_STLB RFO       ACCESS:     386734  HIT:     384954  MISS:       1780
cpu0_STLB PREFETCH  ACCESS:          0  HIT:          0  MISS:          0
cpu0_STLB WRITEBACK ACCESS:          0  HIT:          0  MISS:          0
cpu0_STLB TRANSLATION ACCESS:          0  HIT:          0  MISS:          0
cpu0_STLB PREFETCH  REQUESTED:          0  ISSUED:          0  USEFUL:          0  USELESS:          0
cpu0_STLB AVERAGE MISS LATENCY: 21.5654 cycles
cpu0_L1D TOTAL     ACCESS:  382174076  HIT:  381252426  MISS:     921650
cpu0_L1D LOAD      ACCESS:  264872045  HIT:  264122621  MISS:     749424
cpu0_L1D RFO       ACCESS:  116847702  HIT:  116678080  MISS:     169622
cpu0_L1D PREFETCH  ACCESS:          0  HIT:          0  MISS:          0
cpu0_L1D WRITEBACK ACCESS:          0  HIT:          0  MISS:          0
cpu0_L1D TRANSLATION ACCESS:     454329  HIT:     451725  MISS:       2604
cpu0_L1D PREFETCH  REQUESTED:          0  ISSUED:          0  USEFUL:          0  USELESS:          0
cpu0_L1D AVERAGE MISS LATENCY: 111.384 cycles
cpu0_L2C TOTAL     ACCESS:    1581992  HIT:    1034567  MISS:     547425
cpu0_L2C LOAD      ACCESS:     771207  HIT:     260102  MISS:     511105
cpu0_L2C RFO       ACCESS:     169583  HIT:     135756  MISS:      33827
cpu0_L2C PREFETCH  ACCESS:          0  HIT:          0  MISS:          0
cpu0_L2C WRITEBACK ACCESS:     638598  HIT:     636211  MISS:       2387
cpu0_L2C TRANSLATION ACCESS:       2604  HIT:       2498  MISS:        106
cpu0_L2C PREFETCH  REQUESTED:          0  ISSUED:          0  USEFUL:          0  USELESS:          0
cpu0_L2C AVERAGE MISS LATENCY: 169.139 cycles
LLC TOTAL     ACCESS:    1026404  HIT:     527753  MISS:     498651
LLC LOAD      ACCESS:     511105  HIT:      40169  MISS:     470936
LLC RFO       ACCESS:      33827  HIT:       7873  MISS:      25954
LLC PREFETCH  ACCESS:          0  HIT:          0  MISS:          0
LLC WRITEBACK ACCESS:     481366  HIT:     479623  MISS:       1743
LLC TRANSLATION ACCESS:        106  HIT:         88  MISS:         18
LLC PREFETCH  REQUESTED:          0  ISSUED:          0  USEFUL:          0  USELESS:          0
LLC AVERAGE MISS LATENCY: 162.729 cycles
~~~~~~~~~~Reuse Distance Profiler output~~~~~~~~~~
0	0	0
1	0	0
2	0	0
3	0	0
4	0	0
5	0	0
6	0	0
7	0	0
8	0	0
9	0	0
10	0	0
11	0	0
12	0	0
13	0	0
14	0	0
15	0	0
16	0	0
17	0	0
18	0	0
19	0	0
20	0	0
21	0	0
22	0	0
23	0	0
24	0	0
25	0	0
26	0	0
27	0	0
28	0	0
29	0	0
30	0	0
31	0	0
32	0	0
33	0	0
34	0	0
35	0	0
36	0	0
37	0	0
38	0	0
39	0	0
40	0	0
41	0	0
42	0	0
43	0	0
44	0	0
45	0	0
46	0	0
47	0	0
48	0	0
49	0	0
50	0	0
51	0	0
52	0	0
53	0	0
54	0	0
55	0	0
56	0	0
57	0	0
58	0	0
59	0	0
60	0	0
61	0	0
62	0	0
63	0	0
64	0	0
66	0	0
68	0	0
70	0	0
72	0	0
74	0	0
76	0	0
78	0	0
80	0	0
82	0	0
84	0	0
86	0	0
88	0	0
90	0	0
92	0	0
94	0	0
96	0	0
98	0	0
100	0	0
102	0	0
104	0	0
106	0	0
108	0	0
110	0	0
112	0	0
114	0	0
116	0	0
118	0	0
120	0	0
122	0	0
124	0	0
126	0	0
128	0	0
132	0	0
136	0	0
140	0	0
144	0	0
148	0	0
152	0	0
156	0	0
160	0	0
164	0	0
168	0	0
172	0	0
176	0	0
180	0	0
184	0	0
188	0	0
192	0	0
196	0	0
200	0	0
204	0	0
208	0	0
212	0	0
216	0	0
220	0	0
224	0	0
228	0	0
232	0	0
236	0	0
240	0	0
244	0	0
248	0	0
252	0	0
256	0	0
264	0	0
272	0	0
280	0	0
288	0	0
296	0	0
304	0	0
312	0	0
320	0	0
328	0	0
336	0	0
344	0	0
352	0	0
360	0	0
368	0	0
376	0	0
384	0	0
392	0	0
400	0	0
408	0	0
416	0	0
424	0	0
432	0	0
440	0	0
448	0	0
456	0	0
464	0	0
472	0	0
480	0	0
488	0	0
496	0	0
504	0	0
512	0	0
528	0	0
544	0	0
560	0	0
576	0	0
592	0	0
608	0	0
624	0	0
640	0	0
656	0	0
672	0	0
688	0	0
704	0	0
720	0	0
736	0	0
752	0	0
768	0	0
784	0	0
800	0	0
816	0	0
832	0	0
848	0	0
864	0	0
880	0	0
896	0	0
912	0	0
928	0	0
944	0	0
960	0	0
976	0	0
992	0	0
1008	0	0
1024	0	0
1056	0	0
1088	0	0
1120	0	0
1152	0	0
1184	0	0
1216	0	0
1248	0	0
1280	0	0
1312	0	0
1344	0	0
1376	0	0
1408	0	0
1440	0	0
1472	0	0
1504	0	0
1536	0	0
1568	0	0
1600	0	0
1632	0	0
1664	0	0
1696	0	0
1728	0	0
1760	0	0
1792	0	0
1824	0	0
1856	0	0
1888	0	0
1920	0	0
1952	0	0
1984	0	0
2016	0	0
2048	0	0
2112	0	0
2176	0	0
2240	0	0
2304	0	0
2368	0	0
2432	0	0
2496	0	0
2560	0	0
2624	0	0
2688	0	0
2752	0	0
2816	0	0
2880	0	0
2944	0	0
3008	0	0
3072	0	0
3136	0	0
3200	0	0
3264	0	0
3328	0	0
3392	0	0
3456	0	0
3520	0	0
3584	0	0
3648	0	0
3712	0	0
3776	0	0
3840	0	0
3904	0	0
3968	0	0
4032	0	0
4096	0	0
4224	0	0
4352	0	0
4480	0	0
4608	0	0
4736	0	0
4864	0	0
4992	0	0
5120	0	0
5248	0	0
5376	0	0
5504	0	0
5632	0	0
5760	0	0
5888	0	0
6016	0	0
6144	0	0
6272	0	0
6400	0	0
6528	0	0
6656	0	0
6784	0	0
6912	0	0
7040	0	0
7168	0	0
7296	0	0
7424	0	0
7552	0	0
7680	0	0
7808	0	0
7936	0	0
8064	0	0
8192	0	0
8448	0	0
8704	0	0
8960	0	0
9216	0	0
9472	0	0
9728	0	0
9984	0	0
10240	0	0
10496	0	0
10752	0	0
11008	0	0
11264	0	0
11520	0	0
11776	0	0
12032	0	0
12288	0	0
12544	0	0
12800	0	0
13056	0	0
13312	0	0
13568	0	0
13824	0	0
14080	0	0
14336	0	0
14592	0	0
14848	0	0
15104	0	0
15360	0	0
15616	0	0
15872	0	0
16128	0	0
16384	0	0
16896	0	0
17408	0	0
17920	0	0
18432	0	0
18944	0	0
19456	0	0
19968	0	0
20480	0	0
20992	0	0
21504	0	0
22016	0	0
22528	0	0
23040	0	0
23552	0	0
24064	0	0
24576	0	0
25088	0	0
25600	0	0
26112	0	0
26624	0	0
27136	0	0
27648	0	0
28160	0	0
28672	0	0
29184	0	0
29696	0	0
30208	0	0
30720	0	0
31232	0	0
31744	0	0
32256	0	0
32768	0	0
33792	0	0
34816	0	0
35840	0	0
36864	0	0
37888	0	0
38912	0	0
39936	0	0
40960	0	0
41984	0	0
43008	0	0
44032	0	0
45056	0	0
46080	0	0
47104	0	0
48128	0	0
49152	0	0
50176	0	0
51200	0	0
52224	0	0
53248	0	0
54272	0	0
55296	0	0
56320	0	0
57344	0	0
58368	0	0
59392	0	0
60416	0	0
61440	0	0
62464	0	0
63488	0	0
64512	0	0
65536	0	0
67584	0	0
69632	0	0
71680	0	0
73728	0	0
75776	0	0
77824	0	0
79872	0	0
81920	0	0
83968	0	0
86016	0	0
88064	0	0
90112	0	0
92160	0	0
94208	0	0
96256	0	0
98304	0	0
100352	0	0
102400	0	0
104448	0	0
106496	0	0
108544	0	0
110592	0	0
112640	0	0
114688	0	0
116736	0	0
118784	0	0
120832	0	0
122880	0	0
124928	0	0
126976	0	0
129024	0	0
131072	0	0
135168	0	0
139264	0	0
143360	0	0
147456	0	0
151552	0	0
155648	0	0
159744	0	0
163840	0	0
167936	0	0
172032	0	0
176128	0	0
180224	0	0
184320	0	0
188416	0	0
192512	0	0
196608	0	0
200704	0	0
204800	0	0
208896	0	0
212992	0	0
217088	0	0
221184	0	0
225280	0	0
229376	0	0
233472	0	0
237568	0	0
241664	0	0
245760	0	0
249856	0	0
253952	0	0
258048	0	0
262144	0	0
270336	0	0
278528	0	0
286720	0	0
294912	0	0
303104	0	0
311296	0	0
319488	0	0
327680	0	0
335872	0	0
344064	0	0
352256	0	0
360448	0	0
368640	0	0
376832	0	0
385024	0	0
393216	0	0
401408	0	0
409600	0	0
417792	0	0
425984	0	0
434176	0	0
442368	0	0
450560	0	0
458752	0	0
466944	0	0
475136	0	0
483328	0	0
491520	0	0
499712	0	0
507904	0	0
516096	0	0
524288	0	0
540672	0	0
557056	0	0
573440	0	0
589824	0	0
606208	0	0
622592	0	0
638976	0	0
655360	0	0
671744	0	0
688128	0	0
704512	0	0
720896	0	0
737280	0	0
753664	0	0
770048	0	0
786432	0	0
802816	0	0
819200	0	0
835584	0	0
851968	0	0
868352	0	0
884736	0	0
901120	0	0
917504	0	0
933888	0	0
950272	0	0
966656	0	0
983040	0	0
999424	0	0
1015808	0	0
1032192	0	0
1048576	0	0
1081344	0	0
1114112	0	0
1146880	0	0
1179648	0	0
1212416	0	0
1245184	0	0
1277952	0	0
1310720	0	0
1343488	0	0
1376256	0	0
1409024	0	0
1441792	0	0
1474560	0	0
1507328	0	0
1540096	0	0
1572864	0	0
1605632	0	0
1638400	0	0
1671168	0	0
1703936	0	0
1736704	0	0
1769472	0	0
1802240	0	0
1835008	0	0
1867776	0	0
1900544	0	0
1933312	0	0
1966080	0	0
1998848	0	0
2031616	0	0
2064384	0	0
2097152	0	0
2162688	0	0
2228224	0	0
2293760	0	0
2359296	0	0
2424832	0	0
2490368	0	0
2555904	0	0
2621440	0	0
2686976	0	0
2752512	0	0
2818048	0	0
2883584	0	0
2949120	0	0
3014656	0	0
3080192	0	0
3145728	0	0
3211264	0	0
3276800	0	0
3342336	0	0
3407872	0	0
3473408	0	0
3538944	0	0
3604480	0	0
3670016	0	0
3735552	0	0
3801088	0	0
3866624	0	0
3932160	0	0
3997696	0	0
4063232	0	0
4128768	0	0
4194304	0	0
4325376	0	0
4456448	0	0
4587520	0	0
4718592	0	0
4849664	0	0
4980736	0	0
5111808	0	0
5242880	0	0
5373952	0	0
5505024	0	0
5636096	0	0
5767168	0	0
5898240	0	0
6029312	0	0
6160384	0	0
6291456	0	0
6422528	0	0
6553600	0	0
6684672	0	0
6815744	0	0
6946816	0	0
7077888	0	0
7208960	0	0
7340032	0	0
7471104	0	0
7602176	0	0
7733248	0	0
7864320	0	0
7995392	0	0
8126464	0	0
8257536	0	0
8388608	0	0
8650752	0	0
8912896	0	0
9175040	0	0
9437184	0	0
9699328	0	0
9961472	0	0
10223616	0	0
10485760	0	0
10747904	0	0
11010048	0	0
11272192	0	0
11534336	0	0
11796480	0	0
12058624	0	0
12320768	0	0
12582912	0	0
12845056	0	0
13107200	0	0
13369344	0	0
13631488	0	0
13893632	0	0
14155776	0	0
14417920	0	0
14680064	0	0
14942208	0	0
15204352	0	0
15466496	0	0
15728640	0	0
15990784	0	0
16252928	0	0
16515072	0	0
16777216	0	0
17301504	0	0
17825792	0	0
18350080	0	0
18874368	0	0
19398656	0	0
19922944	0	0
20447232	0	0
20971520	0	0
21495808	0	0
22020096	0	0
22544384	0	0
23068672	0	0
23592960	0	0
24117248	0	0
24641536	0	0
25165824	0	0
25690112	0	0
26214400	0	0
26738688	0	0
27262976	0	0
27787264	0	0
28311552	0	0
28835840	0	0
29360128	0	0
29884416	0	0
30408704	0	0
30932992	0	0
31457280	0	0
31981568	0	0
32505856	0	0
33030144	0	0
33554432	0	0
34603008	0	0
35651584	0	0
36700160	0	0
37748736	0	0
38797312	0	0
39845888	0	0
40894464	0	0
41943040	0	0
42991616	0	0
44040192	0	0
45088768	0	0
46137344	0	0
47185920	0	0
48234496	0	0
49283072	0	0
50331648	0	0
51380224	0	0
52428800	0	0
53477376	0	0
54525952	0	0
55574528	0	0
56623104	0	0
57671680	0	0
58720256	0	0
59768832	0	0
60817408	0	0
61865984	0	0
62914560	0	0
63963136	0	0
65011712	0	0
66060288	0	0
67108864	0	0
69206016	0	0
71303168	0	0
73400320	0	0
75497472	0	0
77594624	0	0
79691776	0	0
81788928	0	0
83886080	0	0
85983232	0	0
88080384	0	0
90177536	0	0
92274688	0	0
94371840	0	0
96468992	0	0
98566144	0	0
100663296	0	0
102760448	0	0
104857600	0	0
106954752	0	0
109051904	0	0
111149056	0	0
113246208	0	0
115343360	0	0
117440512	0	0
119537664	0	0
121634816	0	0
123731968	0	0
125829120	0	0
127926272	0	0
130023424	0	0
132120576	0	0
134217728	0	0
138412032	0	0
142606336	0	0
146800640	0	0
150994944	0	0
155189248	0	0
159383552	0	0
163577856	0	0
167772160	0	0
171966464	0	0
176160768	0	0
180355072	0	0
184549376	0	0
188743680	0	0
192937984	0	0
197132288	0	0
201326592	0	0
205520896	0	0
209715200	0	0
213909504	0	0
218103808	0	0
222298112	0	0
226492416	0	0
230686720	0	0
234881024	0	0
239075328	0	0
243269632	0	0
247463936	0	0
251658240	0	0
255852544	0	0
260046848	0	0
264241152	0	0
268435456	0	0
276824064	0	0
285212672	0	0
293601280	0	0
301989888	0	0
310378496	0	0
318767104	0	0
327155712	0	0
335544320	0	0
343932928	0	0
352321536	0	0
360710144	0	0
369098752	0	0
377487360	0	0
385875968	0	0
394264576	0	0
402653184	0	0
411041792	0	0
419430400	0	0
427819008	0	0
436207616	0	0
444596224	0	0
452984832	0	0
461373440	0	0
469762048	0	0
478150656	0	0
486539264	0	0
494927872	0	0
503316480	0	0
511705088	0	0
520093696	0	0
528482304	0	0
536870912	0	0
553648128	0	0
570425344	0	0
587202560	0	0
603979776	0	0
620756992	0	0
637534208	0	0
654311424	0	0
671088640	0	0
687865856	0	0
704643072	0	0
721420288	0	0
738197504	0	0
754974720	0	0
771751936	0	0
788529152	0	0
805306368	0	0
822083584	0	0
838860800	0	0
855638016	0	0
872415232	0	0
889192448	0	0
905969664	0	0
922746880	0	0
939524096	0	0
956301312	0	0
973078528	0	0
989855744	0	0
1006632960	0	0
1023410176	0	0
1040187392	0	0
1056964608	0	0
1073741824	0	0
1107296256	0	0
1140850688	0	0
1174405120	0	0
1207959552	0	0
1241513984	0	0
1275068416	0	0
1308622848	0	0
1342177280	0	0
1375731712	0	0
1409286144	0	0
1442840576	0	0
1476395008	0	0
1509949440	0	0
1543503872	0	0
1577058304	0	0
1610612736	0	0
1644167168	0	0
1677721600	0	0
1711276032	0	0
1744830464	0	0
1778384896	0	0
1811939328	0	0
1845493760	0	0
1879048192	0	0
1912602624	0	0
1946157056	0	0
1979711488	0	0
2013265920	0	0
2046820352	0	0
2080374784	0	0
2113929216	0	0
2147483648	0	0
2214592512	0	0
2281701376	0	0
2348810240	0	0
2415919104	0	0
2483027968	0	0
2550136832	0	0
2617245696	0	0
2684354560	0	0
2751463424	0	0
2818572288	0	0
2885681152	0	0
2952790016	0	0
3019898880	0	0
3087007744	0	0
3154116608	0	0
3221225472	0	0
3288334336	0	0
3355443200	0	0
3422552064	0	0
3489660928	0	0
3556769792	0	0
3623878656	0	0
3690987520	0	0
3758096384	0	0
3825205248	0	0
3892314112	0	0
3959422976	0	0
4026531840	0	0
4093640704	0	0
4160749568	0	0
4227858432	0	0
~~~~~~~~~~Reuse Distance Profiler output end~~~~~~~~~~

Sampler size:0

DRAM Statistics
 CHANNEL 0
 RQ ROW_BUFFER_HIT:        169  ROW_BUFFER_MISS:     496739
 DBUS AVG_CONGESTED_CYCLE:    3.62097
 WQ ROW_BUFFER_HIT:      11634  ROW_BUFFER_MISS:     408783  FULL:          0


CPU 0 Branch Prediction Accuracy: 85.4056% MPKI: 32.2789 Average ROB Occupancy at Mispredict: 16.5321
Branch type MPKI
BRANCH_DIRECT_JUMP: 3.46667e-05
BRANCH_INDIRECT: 0.985567
BRANCH_CONDITIONAL: 30.8609
BRANCH_DIRECT_CALL: 3.2e-05
BRANCH_INDIRECT_CALL: 0.432305
BRANCH_RETURN: 3.2e-05

