
*** ChampSim Multicore Out-of-Order Simulator ***

Warmup Instructions: 50000000
Simulation Instructions: 1500000000
Number of CPUs: 1
Off-chip DRAM Size: 4 GiB Channels: 1 Width: 64-bit Data Rate: 3200 MT/s

VirtualMemory physical capacity: 8588881920 num_ppages: 2096895
VirtualMemory page size: 4096 log2_page_size: 12

CPU 0 runs /s/traces/champsim_traces/459.GemsFDTD-1169B.champsimtrace.xz
CPU 0 Bimodal branch predictor
Basic BTB sets: 1024 ways: 8 indirect buffer size: 4096 RAS size: 64
Initializing LRU.
Initializing LRU.
Initializing LRU.
Initializing LRU.
Initializing rdLRU.
Initializing LRU.
Initializing LRU.
Heartbeat CPU 0 instructions: 2000003 cycles: 500068 heartbeat IPC: 3.99946 cumulative IPC: 3.99946 (Simulation time: 0 hr 0 min 34 sec) 
Heartbeat CPU 0 instructions: 4000003 cycles: 1000068 heartbeat IPC: 4 cumulative IPC: 3.99973 (Simulation time: 0 hr 1 min 24 sec) 
Heartbeat CPU 0 instructions: 6000003 cycles: 1500068 heartbeat IPC: 4 cumulative IPC: 3.99982 (Simulation time: 0 hr 2 min 15 sec) 
Heartbeat CPU 0 instructions: 8000003 cycles: 2000068 heartbeat IPC: 4 cumulative IPC: 3.99987 (Simulation time: 0 hr 3 min 6 sec) 
Heartbeat CPU 0 instructions: 10000003 cycles: 2500068 heartbeat IPC: 4 cumulative IPC: 3.99989 (Simulation time: 0 hr 3 min 57 sec) 
Heartbeat CPU 0 instructions: 12000003 cycles: 3000068 heartbeat IPC: 4 cumulative IPC: 3.99991 (Simulation time: 0 hr 4 min 45 sec) 
Heartbeat CPU 0 instructions: 14000001 cycles: 3657477 heartbeat IPC: 3.04224 cumulative IPC: 3.82778 (Simulation time: 0 hr 6 min 6 sec) 
Heartbeat CPU 0 instructions: 16000001 cycles: 4692988 heartbeat IPC: 1.93141 cumulative IPC: 3.40934 (Simulation time: 0 hr 8 min 26 sec) 
Heartbeat CPU 0 instructions: 18000002 cycles: 5728511 heartbeat IPC: 1.93139 cumulative IPC: 3.14218 (Simulation time: 0 hr 11 min 6 sec) 
Heartbeat CPU 0 instructions: 20000001 cycles: 6764032 heartbeat IPC: 1.93139 cumulative IPC: 2.95682 (Simulation time: 0 hr 13 min 51 sec) 
Heartbeat CPU 0 instructions: 22000002 cycles: 7799534 heartbeat IPC: 1.93143 cumulative IPC: 2.82068 (Simulation time: 0 hr 16 min 33 sec) 
Heartbeat CPU 0 instructions: 24000001 cycles: 8835050 heartbeat IPC: 1.9314 cumulative IPC: 2.71645 (Simulation time: 0 hr 19 min 19 sec) 
Heartbeat CPU 0 instructions: 26000003 cycles: 9869287 heartbeat IPC: 1.93379 cumulative IPC: 2.63444 (Simulation time: 0 hr 22 min 4 sec) 
Heartbeat CPU 0 instructions: 28000002 cycles: 10899145 heartbeat IPC: 1.94201 cumulative IPC: 2.56901 (Simulation time: 0 hr 24 min 45 sec) 
Heartbeat CPU 0 instructions: 30000004 cycles: 11929008 heartbeat IPC: 1.94201 cumulative IPC: 2.51488 (Simulation time: 0 hr 27 min 22 sec) 
Heartbeat CPU 0 instructions: 32000004 cycles: 12958868 heartbeat IPC: 1.94201 cumulative IPC: 2.46935 (Simulation time: 0 hr 30 min 1 sec) 
Heartbeat CPU 0 instructions: 34000000 cycles: 13988730 heartbeat IPC: 1.942 cumulative IPC: 2.43053 (Simulation time: 0 hr 32 min 38 sec) 
Heartbeat CPU 0 instructions: 36000001 cycles: 15018590 heartbeat IPC: 1.94201 cumulative IPC: 2.39703 (Simulation time: 0 hr 35 min 11 sec) 
Heartbeat CPU 0 instructions: 38000002 cycles: 16049336 heartbeat IPC: 1.94034 cumulative IPC: 2.3677 (Simulation time: 0 hr 37 min 44 sec) 
Heartbeat CPU 0 instructions: 40000002 cycles: 17084168 heartbeat IPC: 1.93268 cumulative IPC: 2.34135 (Simulation time: 0 hr 40 min 21 sec) 
Heartbeat CPU 0 instructions: 42000002 cycles: 18119007 heartbeat IPC: 1.93267 cumulative IPC: 2.31801 (Simulation time: 0 hr 42 min 57 sec) 
Heartbeat CPU 0 instructions: 44000001 cycles: 19153834 heartbeat IPC: 1.93269 cumulative IPC: 2.29719 (Simulation time: 0 hr 45 min 32 sec) 
Heartbeat CPU 0 instructions: 46000000 cycles: 20188673 heartbeat IPC: 1.93267 cumulative IPC: 2.27851 (Simulation time: 0 hr 48 min 4 sec) 
Heartbeat CPU 0 instructions: 48000003 cycles: 21223516 heartbeat IPC: 1.93266 cumulative IPC: 2.26164 (Simulation time: 0 hr 50 min 34 sec) 
Heartbeat CPU 0 instructions: 50000004 cycles: 22258709 heartbeat IPC: 1.93201 cumulative IPC: 2.24631 (Simulation time: 0 hr 53 min 7 sec) 

Warmup complete CPU 0 instructions: 50000004 cycles: 22258709 (Simulation time: 0 hr 53 min 7 sec) 

Heartbeat CPU 0 instructions: 52000004 cycles: 23900485 heartbeat IPC: 1.21819 cumulative IPC: 1.21819 (Simulation time: 0 hr 56 min 6 sec) 

Region of Interest Statistics
cpu0_DTLB TOTAL     ACCESS:     789158  HIT:     755105  MISS:      34053
cpu0_DTLB LOAD      ACCESS:     726847  HIT:     692810  MISS:      34037
cpu0_DTLB RFO       ACCESS:      62311  HIT:      62295  MISS:         16
cpu0_DTLB PREFETCH  ACCESS:          0  HIT:          0  MISS:          0
cpu0_DTLB WRITEBACK ACCESS:          0  HIT:          0  MISS:          0
cpu0_ITLB TOTAL     ACCESS:      36021  HIT:      36021  MISS:          0
cpu0_ITLB LOAD      ACCESS:      36021  HIT:      36021  MISS:          0
cpu0_ITLB RFO       ACCESS:          0  HIT:          0  MISS:          0
cpu0_ITLB PREFETCH  ACCESS:          0  HIT:          0  MISS:          0
cpu0_ITLB WRITEBACK ACCESS:          0  HIT:          0  MISS:          0
cpu0_L1I TOTAL     ACCESS:     198123  HIT:     198123  MISS:          0
cpu0_L1I LOAD      ACCESS:     198123  HIT:     198123  MISS:          0
cpu0_L1I RFO       ACCESS:          0  HIT:          0  MISS:          0
cpu0_L1I PREFETCH  ACCESS:          0  HIT:          0  MISS:          0
cpu0_L1I WRITEBACK ACCESS:          0  HIT:          0  MISS:          0
cpu0_STLB TOTAL     ACCESS:      34053  HIT:      25597  MISS:       8456
cpu0_STLB LOAD      ACCESS:      34037  HIT:      25581  MISS:       8456
cpu0_STLB RFO       ACCESS:         16  HIT:         16  MISS:          0
cpu0_STLB PREFETCH  ACCESS:          0  HIT:          0  MISS:          0
cpu0_STLB WRITEBACK ACCESS:          0  HIT:          0  MISS:          0
cpu0_L1D TOTAL     ACCESS:     969807  HIT:     884486  MISS:      85321
cpu0_L1D LOAD      ACCESS:     896261  HIT:     811452  MISS:      84809
cpu0_L1D RFO       ACCESS:      65131  HIT:      65131  MISS:          0
cpu0_L1D PREFETCH  ACCESS:          0  HIT:          0  MISS:          0
cpu0_L1D WRITEBACK ACCESS:          0  HIT:          0  MISS:          0
cpu0_L2C TOTAL     ACCESS:     105076  HIT:      97984  MISS:       7092
cpu0_L2C LOAD      ACCESS:      84809  HIT:      77717  MISS:       7092
cpu0_L2C RFO       ACCESS:          0  HIT:          0  MISS:          0
cpu0_L2C PREFETCH  ACCESS:          0  HIT:          0  MISS:          0
cpu0_L2C WRITEBACK ACCESS:      19755  HIT:      19755  MISS:          0
LLC TOTAL     ACCESS:       7123  HIT:        240  MISS:       6883
LLC LOAD      ACCESS:       7092  HIT:        219  MISS:       6873
LLC RFO       ACCESS:          0  HIT:          0  MISS:          0
LLC PREFETCH  ACCESS:          0  HIT:          0  MISS:          0
LLC WRITEBACK ACCESS:         31  HIT:         21  MISS:         10
Heartbeat CPU 0 instructions: 54000001 cycles: 25539494 heartbeat IPC: 1.22025 cumulative IPC: 1.21922 (Simulation time: 0 hr 59 min 7 sec) 

Region of Interest Statistics
cpu0_DTLB TOTAL     ACCESS:    1577928  HIT:    1509725  MISS:      68203
cpu0_DTLB LOAD      ACCESS:    1453245  HIT:    1385083  MISS:      68162
cpu0_DTLB RFO       ACCESS:     124683  HIT:     124642  MISS:         41
cpu0_DTLB PREFETCH  ACCESS:          0  HIT:          0  MISS:          0
cpu0_DTLB WRITEBACK ACCESS:          0  HIT:          0  MISS:          0
cpu0_ITLB TOTAL     ACCESS:      72040  HIT:      72040  MISS:          0
cpu0_ITLB LOAD      ACCESS:      72040  HIT:      72040  MISS:          0
cpu0_ITLB RFO       ACCESS:          0  HIT:          0  MISS:          0
cpu0_ITLB PREFETCH  ACCESS:          0  HIT:          0  MISS:          0
cpu0_ITLB WRITEBACK ACCESS:          0  HIT:          0  MISS:          0
cpu0_L1I TOTAL     ACCESS:     396301  HIT:     396301  MISS:          0
cpu0_L1I LOAD      ACCESS:     396301  HIT:     396301  MISS:          0
cpu0_L1I RFO       ACCESS:          0  HIT:          0  MISS:          0
cpu0_L1I PREFETCH  ACCESS:          0  HIT:          0  MISS:          0
cpu0_L1I WRITEBACK ACCESS:          0  HIT:          0  MISS:          0
cpu0_STLB TOTAL     ACCESS:      68203  HIT:      50434  MISS:      17769
cpu0_STLB LOAD      ACCESS:      68162  HIT:      50393  MISS:      17769
cpu0_STLB RFO       ACCESS:         41  HIT:         41  MISS:          0
cpu0_STLB PREFETCH  ACCESS:          0  HIT:          0  MISS:          0
cpu0_STLB WRITEBACK ACCESS:          0  HIT:          0  MISS:          0
cpu0_L1D TOTAL     ACCESS:    1940213  HIT:    1769593  MISS:     170620
cpu0_L1D LOAD      ACCESS:    1792269  HIT:    1622659  MISS:     169610
cpu0_L1D RFO       ACCESS:     130267  HIT:     130267  MISS:          0
cpu0_L1D PREFETCH  ACCESS:          0  HIT:          0  MISS:          0
cpu0_L1D WRITEBACK ACCESS:          0  HIT:          0  MISS:          0
cpu0_L2C TOTAL     ACCESS:     210127  HIT:     195905  MISS:      14222
cpu0_L2C LOAD      ACCESS:     169610  HIT:     155389  MISS:      14221
cpu0_L2C RFO       ACCESS:          0  HIT:          0  MISS:          0
cpu0_L2C PREFETCH  ACCESS:          0  HIT:          0  MISS:          0
cpu0_L2C WRITEBACK ACCESS:      39507  HIT:      39507  MISS:          0
LLC TOTAL     ACCESS:      14343  HIT:        748  MISS:      13595
LLC LOAD      ACCESS:      14220  HIT:        652  MISS:      13568
LLC RFO       ACCESS:          0  HIT:          0  MISS:          0
LLC PREFETCH  ACCESS:          0  HIT:          0  MISS:          0
LLC WRITEBACK ACCESS:        122  HIT:         95  MISS:         27
Heartbeat CPU 0 instructions: 56000003 cycles: 27183337 heartbeat IPC: 1.21666 cumulative IPC: 1.21837 (Simulation time: 1 hr 2 min 4 sec) 

Region of Interest Statistics
cpu0_DTLB TOTAL     ACCESS:    2367127  HIT:    2264667  MISS:     102460
cpu0_DTLB LOAD      ACCESS:    2180128  HIT:    2077743  MISS:     102385
cpu0_DTLB RFO       ACCESS:     186999  HIT:     186924  MISS:         75
cpu0_DTLB PREFETCH  ACCESS:          0  HIT:          0  MISS:          0
cpu0_DTLB WRITEBACK ACCESS:          0  HIT:          0  MISS:          0
cpu0_ITLB TOTAL     ACCESS:     108065  HIT:     108065  MISS:          0
cpu0_ITLB LOAD      ACCESS:     108065  HIT:     108065  MISS:          0
cpu0_ITLB RFO       ACCESS:          0  HIT:          0  MISS:          0
cpu0_ITLB PREFETCH  ACCESS:          0  HIT:          0  MISS:          0
cpu0_ITLB WRITEBACK ACCESS:          0  HIT:          0  MISS:          0
cpu0_L1I TOTAL     ACCESS:     594453  HIT:     594453  MISS:          0
cpu0_L1I LOAD      ACCESS:     594453  HIT:     594453  MISS:          0
cpu0_L1I RFO       ACCESS:          0  HIT:          0  MISS:          0
cpu0_L1I PREFETCH  ACCESS:          0  HIT:          0  MISS:          0
cpu0_L1I WRITEBACK ACCESS:          0  HIT:          0  MISS:          0
cpu0_STLB TOTAL     ACCESS:     102460  HIT:      76193  MISS:      26267
cpu0_STLB LOAD      ACCESS:     102385  HIT:      76118  MISS:      26267
cpu0_STLB RFO       ACCESS:         75  HIT:         75  MISS:          0
cpu0_STLB PREFETCH  ACCESS:          0  HIT:          0  MISS:          0
cpu0_STLB WRITEBACK ACCESS:          0  HIT:          0  MISS:          0
cpu0_L1D TOTAL     ACCESS:    2909502  HIT:    2653577  MISS:     255925
cpu0_L1D LOAD      ACCESS:    2687977  HIT:    2433571  MISS:     254406
cpu0_L1D RFO       ACCESS:     195402  HIT:     195402  MISS:          0
cpu0_L1D PREFETCH  ACCESS:          0  HIT:          0  MISS:          0
cpu0_L1D WRITEBACK ACCESS:          0  HIT:          0  MISS:          0
cpu0_L2C TOTAL     ACCESS:     315187  HIT:     293554  MISS:      21633
cpu0_L2C LOAD      ACCESS:     254406  HIT:     232775  MISS:      21631
cpu0_L2C RFO       ACCESS:          0  HIT:          0  MISS:          0
cpu0_L2C PREFETCH  ACCESS:          0  HIT:          0  MISS:          0
cpu0_L2C WRITEBACK ACCESS:      59262  HIT:      59262  MISS:          0
LLC TOTAL     ACCESS:      21875  HIT:       1384  MISS:      20491
LLC LOAD      ACCESS:      21630  HIT:       1188  MISS:      20442
LLC RFO       ACCESS:          0  HIT:          0  MISS:          0
LLC PREFETCH  ACCESS:          0  HIT:          0  MISS:          0
LLC WRITEBACK ACCESS:        243  HIT:        194  MISS:         49
Heartbeat CPU 0 instructions: 58000004 cycles: 28816362 heartbeat IPC: 1.22472 cumulative IPC: 1.21995 (Simulation time: 1 hr 5 min 3 sec) 

Region of Interest Statistics
cpu0_DTLB TOTAL     ACCESS:    3155997  HIT:    3019263  MISS:     136734
cpu0_DTLB LOAD      ACCESS:    2906629  HIT:    2769993  MISS:     136636
cpu0_DTLB RFO       ACCESS:     249368  HIT:     249270  MISS:         98
cpu0_DTLB PREFETCH  ACCESS:          0  HIT:          0  MISS:          0
cpu0_DTLB WRITEBACK ACCESS:          0  HIT:          0  MISS:          0
cpu0_ITLB TOTAL     ACCESS:     144082  HIT:     144082  MISS:          0
cpu0_ITLB LOAD      ACCESS:     144082  HIT:     144082  MISS:          0
cpu0_ITLB RFO       ACCESS:          0  HIT:          0  MISS:          0
cpu0_ITLB PREFETCH  ACCESS:          0  HIT:          0  MISS:          0
cpu0_ITLB WRITEBACK ACCESS:          0  HIT:          0  MISS:          0
cpu0_L1I TOTAL     ACCESS:     792733  HIT:     792733  MISS:          0
cpu0_L1I LOAD      ACCESS:     792733  HIT:     792733  MISS:          0
cpu0_L1I RFO       ACCESS:          0  HIT:          0  MISS:          0
cpu0_L1I PREFETCH  ACCESS:          0  HIT:          0  MISS:          0
cpu0_L1I WRITEBACK ACCESS:          0  HIT:          0  MISS:          0
cpu0_STLB TOTAL     ACCESS:     136734  HIT:     101949  MISS:      34785
cpu0_STLB LOAD      ACCESS:     136636  HIT:     101851  MISS:      34785
cpu0_STLB RFO       ACCESS:         98  HIT:         98  MISS:          0
cpu0_STLB PREFETCH  ACCESS:          0  HIT:          0  MISS:          0
cpu0_STLB WRITEBACK ACCESS:          0  HIT:          0  MISS:          0
cpu0_L1D TOTAL     ACCESS:    3878627  HIT:    3537395  MISS:     341232
cpu0_L1D LOAD      ACCESS:    3583491  HIT:    3244279  MISS:     339212
cpu0_L1D RFO       ACCESS:     260537  HIT:     260537  MISS:          0
cpu0_L1D PREFETCH  ACCESS:          0  HIT:          0  MISS:          0
cpu0_L1D WRITEBACK ACCESS:          0  HIT:          0  MISS:          0
cpu0_L2C TOTAL     ACCESS:     420252  HIT:     391697  MISS:      28555
cpu0_L2C LOAD      ACCESS:     339212  HIT:     310659  MISS:      28553
cpu0_L2C RFO       ACCESS:          0  HIT:          0  MISS:          0
cpu0_L2C PREFETCH  ACCESS:          0  HIT:          0  MISS:          0
cpu0_L2C WRITEBACK ACCESS:      79020  HIT:      79020  MISS:          0
LLC TOTAL     ACCESS:      28849  HIT:       1652  MISS:      27197
LLC LOAD      ACCESS:      28552  HIT:       1418  MISS:      27134
LLC RFO       ACCESS:          0  HIT:          0  MISS:          0
LLC PREFETCH  ACCESS:          0  HIT:          0  MISS:          0
LLC WRITEBACK ACCESS:        295  HIT:        232  MISS:         63
Heartbeat CPU 0 instructions: 60000001 cycles: 30463238 heartbeat IPC: 1.21442 cumulative IPC: 1.21884 (Simulation time: 1 hr 8 min 3 sec) 

Region of Interest Statistics
cpu0_DTLB TOTAL     ACCESS:    3945436  HIT:    3774468  MISS:     170968
cpu0_DTLB LOAD      ACCESS:    3633752  HIT:    3462901  MISS:     170851
cpu0_DTLB RFO       ACCESS:     311684  HIT:     311567  MISS:        117
cpu0_DTLB PREFETCH  ACCESS:          0  HIT:          0  MISS:          0
cpu0_DTLB WRITEBACK ACCESS:          0  HIT:          0  MISS:          0
cpu0_ITLB TOTAL     ACCESS:     180101  HIT:     180101  MISS:          0
cpu0_ITLB LOAD      ACCESS:     180101  HIT:     180101  MISS:          0
cpu0_ITLB RFO       ACCESS:          0  HIT:          0  MISS:          0
cpu0_ITLB PREFETCH  ACCESS:          0  HIT:          0  MISS:          0
cpu0_ITLB WRITEBACK ACCESS:          0  HIT:          0  MISS:          0
cpu0_L1I TOTAL     ACCESS:     990707  HIT:     990707  MISS:          0
cpu0_L1I LOAD      ACCESS:     990707  HIT:     990707  MISS:          0
cpu0_L1I RFO       ACCESS:          0  HIT:          0  MISS:          0
cpu0_L1I PREFETCH  ACCESS:          0  HIT:          0  MISS:          0
cpu0_L1I WRITEBACK ACCESS:          0  HIT:          0  MISS:          0
cpu0_STLB TOTAL     ACCESS:     170968  HIT:     127564  MISS:      43404
cpu0_STLB LOAD      ACCESS:     170851  HIT:     127447  MISS:      43404
cpu0_STLB RFO       ACCESS:        117  HIT:        117  MISS:          0
cpu0_STLB PREFETCH  ACCESS:          0  HIT:          0  MISS:          0
cpu0_STLB WRITEBACK ACCESS:          0  HIT:          0  MISS:          0
cpu0_L1D TOTAL     ACCESS:    4847906  HIT:    4421389  MISS:     426517
cpu0_L1D LOAD      ACCESS:    4479064  HIT:    4055051  MISS:     424013
cpu0_L1D RFO       ACCESS:     325672  HIT:     325672  MISS:          0
cpu0_L1D PREFETCH  ACCESS:          0  HIT:          0  MISS:          0
cpu0_L1D WRITEBACK ACCESS:          0  HIT:          0  MISS:          0
cpu0_L2C TOTAL     ACCESS:     525290  HIT:     489454  MISS:      35836
cpu0_L2C LOAD      ACCESS:     424013  HIT:     388179  MISS:      35834
cpu0_L2C RFO       ACCESS:          0  HIT:          0  MISS:          0
cpu0_L2C PREFETCH  ACCESS:          0  HIT:          0  MISS:          0
cpu0_L2C WRITEBACK ACCESS:      98773  HIT:      98773  MISS:          0
LLC TOTAL     ACCESS:      36223  HIT:       2125  MISS:      34098
LLC LOAD      ACCESS:      35833  HIT:       1820  MISS:      34013
LLC RFO       ACCESS:          0  HIT:          0  MISS:          0
LLC PREFETCH  ACCESS:          0  HIT:          0  MISS:          0
LLC WRITEBACK ACCESS:        388  HIT:        303  MISS:         85
Heartbeat CPU 0 instructions: 62000000 cycles: 32023592 heartbeat IPC: 1.28176 cumulative IPC: 1.22889 (Simulation time: 1 hr 10 min 56 sec) 

Region of Interest Statistics
cpu0_DTLB TOTAL     ACCESS:    4733072  HIT:    4528007  MISS:     205065
cpu0_DTLB LOAD      ACCESS:    4359110  HIT:    4154171  MISS:     204939
cpu0_DTLB RFO       ACCESS:     373962  HIT:     373836  MISS:        126
cpu0_DTLB PREFETCH  ACCESS:          0  HIT:          0  MISS:          0
cpu0_DTLB WRITEBACK ACCESS:          0  HIT:          0  MISS:          0
cpu0_ITLB TOTAL     ACCESS:     216145  HIT:     216145  MISS:          0
cpu0_ITLB LOAD      ACCESS:     216145  HIT:     216145  MISS:          0
cpu0_ITLB RFO       ACCESS:          0  HIT:          0  MISS:          0
cpu0_ITLB PREFETCH  ACCESS:          0  HIT:          0  MISS:          0
cpu0_ITLB WRITEBACK ACCESS:          0  HIT:          0  MISS:          0
cpu0_L1I TOTAL     ACCESS:    1188799  HIT:    1188799  MISS:          0
cpu0_L1I LOAD      ACCESS:    1188799  HIT:    1188799  MISS:          0
cpu0_L1I RFO       ACCESS:          0  HIT:          0  MISS:          0
cpu0_L1I PREFETCH  ACCESS:          0  HIT:          0  MISS:          0
cpu0_L1I WRITEBACK ACCESS:          0  HIT:          0  MISS:          0
cpu0_STLB TOTAL     ACCESS:     205065  HIT:     152899  MISS:      52166
cpu0_STLB LOAD      ACCESS:     204939  HIT:     152773  MISS:      52166
cpu0_STLB RFO       ACCESS:        126  HIT:        126  MISS:          0
cpu0_STLB PREFETCH  ACCESS:          0  HIT:          0  MISS:          0
cpu0_STLB WRITEBACK ACCESS:          0  HIT:          0  MISS:          0
cpu0_L1D TOTAL     ACCESS:    5815092  HIT:    5303259  MISS:     511833
cpu0_L1D LOAD      ACCESS:    5372386  HIT:    4863574  MISS:     508812
cpu0_L1D RFO       ACCESS:     390807  HIT:     390807  MISS:          0
cpu0_L1D PREFETCH  ACCESS:          0  HIT:          0  MISS:          0
cpu0_L1D WRITEBACK ACCESS:          0  HIT:          0  MISS:          0
cpu0_L2C TOTAL     ACCESS:     630363  HIT:     587340  MISS:      43023
cpu0_L2C LOAD      ACCESS:     508812  HIT:     465795  MISS:      43017
cpu0_L2C RFO       ACCESS:          0  HIT:          0  MISS:          0
cpu0_L2C PREFETCH  ACCESS:          0  HIT:          0  MISS:          0
cpu0_L2C WRITEBACK ACCESS:     118530  HIT:     118530  MISS:          0
LLC TOTAL     ACCESS:      43488  HIT:       3528  MISS:      39960
LLC LOAD      ACCESS:      43014  HIT:       3160  MISS:      39854
LLC RFO       ACCESS:          0  HIT:          0  MISS:          0
LLC PREFETCH  ACCESS:          0  HIT:          0  MISS:          0
LLC WRITEBACK ACCESS:        468  HIT:        362  MISS:        106
Heartbeat CPU 0 instructions: 64000003 cycles: 33717950 heartbeat IPC: 1.18039 cumulative IPC: 1.22172 (Simulation time: 1 hr 13 min 57 sec) 

Region of Interest Statistics
cpu0_DTLB TOTAL     ACCESS:    5528034  HIT:    5303339  MISS:     224695
cpu0_DTLB LOAD      ACCESS:    5086631  HIT:    4862180  MISS:     224451
cpu0_DTLB RFO       ACCESS:     441403  HIT:     441159  MISS:        244
cpu0_DTLB PREFETCH  ACCESS:          0  HIT:          0  MISS:          0
cpu0_DTLB WRITEBACK ACCESS:          0  HIT:          0  MISS:          0
cpu0_ITLB TOTAL     ACCESS:     252078  HIT:     252077  MISS:          1
cpu0_ITLB LOAD      ACCESS:     252078  HIT:     252077  MISS:          1
cpu0_ITLB RFO       ACCESS:          0  HIT:          0  MISS:          0
cpu0_ITLB PREFETCH  ACCESS:          0  HIT:          0  MISS:          0
cpu0_ITLB WRITEBACK ACCESS:          0  HIT:          0  MISS:          0
cpu0_L1I TOTAL     ACCESS:    1386311  HIT:    1386270  MISS:         41
cpu0_L1I LOAD      ACCESS:    1386311  HIT:    1386270  MISS:         41
cpu0_L1I RFO       ACCESS:          0  HIT:          0  MISS:          0
cpu0_L1I PREFETCH  ACCESS:          0  HIT:          0  MISS:          0
cpu0_L1I WRITEBACK ACCESS:          0  HIT:          0  MISS:          0
cpu0_STLB TOTAL     ACCESS:     224696  HIT:     171700  MISS:      52996
cpu0_STLB LOAD      ACCESS:     224452  HIT:     171456  MISS:      52996
cpu0_STLB RFO       ACCESS:        244  HIT:        244  MISS:          0
cpu0_STLB PREFETCH  ACCESS:          0  HIT:          0  MISS:          0
cpu0_STLB WRITEBACK ACCESS:          0  HIT:          0  MISS:          0
cpu0_L1D TOTAL     ACCESS:    6807158  HIT:    6243359  MISS:     563799
cpu0_L1D LOAD      ACCESS:    6294920  HIT:    5734158  MISS:     560762
cpu0_L1D RFO       ACCESS:     459509  HIT:     459509  MISS:          0
cpu0_L1D PREFETCH  ACCESS:          0  HIT:          0  MISS:          0
cpu0_L1D WRITEBACK ACCESS:          0  HIT:          0  MISS:          0
cpu0_L2C TOTAL     ACCESS:     682801  HIT:     632406  MISS:      50395
cpu0_L2C LOAD      ACCESS:     560803  HIT:     510419  MISS:      50384
cpu0_L2C RFO       ACCESS:          0  HIT:          0  MISS:          0
cpu0_L2C PREFETCH  ACCESS:          0  HIT:          0  MISS:          0
cpu0_L2C WRITEBACK ACCESS:     118961  HIT:     118961  MISS:          0
LLC TOTAL     ACCESS:      51213  HIT:       3644  MISS:      47569
LLC LOAD      ACCESS:      50381  HIT:       3204  MISS:      47177
LLC RFO       ACCESS:          0  HIT:          0  MISS:          0
LLC PREFETCH  ACCESS:          0  HIT:          0  MISS:          0
LLC WRITEBACK ACCESS:        821  HIT:        434  MISS:        387
Heartbeat CPU 0 instructions: 66000004 cycles: 35281184 heartbeat IPC: 1.2794 cumulative IPC: 1.22865 (Simulation time: 1 hr 16 min 51 sec) 

Region of Interest Statistics
cpu0_DTLB TOTAL     ACCESS:    6323922  HIT:    6079664  MISS:     244258
cpu0_DTLB LOAD      ACCESS:    5815080  HIT:    5571194  MISS:     243886
cpu0_DTLB RFO       ACCESS:     508842  HIT:     508470  MISS:        372
cpu0_DTLB PREFETCH  ACCESS:          0  HIT:          0  MISS:          0
cpu0_DTLB WRITEBACK ACCESS:          0  HIT:          0  MISS:          0
cpu0_ITLB TOTAL     ACCESS:     288083  HIT:     288082  MISS:          1
cpu0_ITLB LOAD      ACCESS:     288083  HIT:     288082  MISS:          1
cpu0_ITLB RFO       ACCESS:          0  HIT:          0  MISS:          0
cpu0_ITLB PREFETCH  ACCESS:          0  HIT:          0  MISS:          0
cpu0_ITLB WRITEBACK ACCESS:          0  HIT:          0  MISS:          0
cpu0_L1I TOTAL     ACCESS:    1584025  HIT:    1583984  MISS:         41
cpu0_L1I LOAD      ACCESS:    1584025  HIT:    1583984  MISS:         41
cpu0_L1I RFO       ACCESS:          0  HIT:          0  MISS:          0
cpu0_L1I PREFETCH  ACCESS:          0  HIT:          0  MISS:          0
cpu0_L1I WRITEBACK ACCESS:          0  HIT:          0  MISS:          0
cpu0_STLB TOTAL     ACCESS:     244259  HIT:     191263  MISS:      52996
cpu0_STLB LOAD      ACCESS:     243887  HIT:     190891  MISS:      52996
cpu0_STLB RFO       ACCESS:        372  HIT:        372  MISS:          0
cpu0_STLB PREFETCH  ACCESS:          0  HIT:          0  MISS:          0
cpu0_STLB WRITEBACK ACCESS:          0  HIT:          0  MISS:          0
cpu0_L1D TOTAL     ACCESS:    7799476  HIT:    7184188  MISS:     615288
cpu0_L1D LOAD      ACCESS:    7218496  HIT:    6606245  MISS:     612251
cpu0_L1D RFO       ACCESS:     528251  HIT:     528251  MISS:          0
cpu0_L1D PREFETCH  ACCESS:          0  HIT:          0  MISS:          0
cpu0_L1D WRITEBACK ACCESS:          0  HIT:          0  MISS:          0
cpu0_L2C TOTAL     ACCESS:     734290  HIT:     678480  MISS:      55810
cpu0_L2C LOAD      ACCESS:     612292  HIT:     556493  MISS:      55799
cpu0_L2C RFO       ACCESS:          0  HIT:          0  MISS:          0
cpu0_L2C PREFETCH  ACCESS:          0  HIT:          0  MISS:          0
cpu0_L2C WRITEBACK ACCESS:     118961  HIT:     118961  MISS:          0
LLC TOTAL     ACCESS:      56895  HIT:       3718  MISS:      53177
LLC LOAD      ACCESS:      55796  HIT:       3241  MISS:      52555
LLC RFO       ACCESS:          0  HIT:          0  MISS:          0
LLC PREFETCH  ACCESS:          0  HIT:          0  MISS:          0
LLC WRITEBACK ACCESS:       1088  HIT:        471  MISS:        617
Heartbeat CPU 0 instructions: 68000001 cycles: 36842032 heartbeat IPC: 1.28135 cumulative IPC: 1.23429 (Simulation time: 1 hr 19 min 46 sec) 

Region of Interest Statistics
cpu0_DTLB TOTAL     ACCESS:    7119783  HIT:    6855994  MISS:     263789
cpu0_DTLB LOAD      ACCESS:    6543508  HIT:    6280230  MISS:     263278
cpu0_DTLB RFO       ACCESS:     576275  HIT:     575764  MISS:        511
cpu0_DTLB PREFETCH  ACCESS:          0  HIT:          0  MISS:          0
cpu0_DTLB WRITEBACK ACCESS:          0  HIT:          0  MISS:          0
cpu0_ITLB TOTAL     ACCESS:     324086  HIT:     324085  MISS:          1
cpu0_ITLB LOAD      ACCESS:     324086  HIT:     324085  MISS:          1
cpu0_ITLB RFO       ACCESS:          0  HIT:          0  MISS:          0
cpu0_ITLB PREFETCH  ACCESS:          0  HIT:          0  MISS:          0
cpu0_ITLB WRITEBACK ACCESS:          0  HIT:          0  MISS:          0
cpu0_L1I TOTAL     ACCESS:    1781706  HIT:    1781665  MISS:         41
cpu0_L1I LOAD      ACCESS:    1781706  HIT:    1781665  MISS:         41
cpu0_L1I RFO       ACCESS:          0  HIT:          0  MISS:          0
cpu0_L1I PREFETCH  ACCESS:          0  HIT:          0  MISS:          0
cpu0_L1I WRITEBACK ACCESS:          0  HIT:          0  MISS:          0
cpu0_STLB TOTAL     ACCESS:     263790  HIT:     210794  MISS:      52996
cpu0_STLB LOAD      ACCESS:     263279  HIT:     210283  MISS:      52996
cpu0_STLB RFO       ACCESS:        511  HIT:        511  MISS:          0
cpu0_STLB PREFETCH  ACCESS:          0  HIT:          0  MISS:          0
cpu0_STLB WRITEBACK ACCESS:          0  HIT:          0  MISS:          0
cpu0_L1D TOTAL     ACCESS:    8792046  HIT:    8125270  MISS:     666776
cpu0_L1D LOAD      ACCESS:    8142321  HIT:    7478582  MISS:     663739
cpu0_L1D RFO       ACCESS:     596996  HIT:     596996  MISS:          0
cpu0_L1D PREFETCH  ACCESS:          0  HIT:          0  MISS:          0
cpu0_L1D WRITEBACK ACCESS:          0  HIT:          0  MISS:          0
cpu0_L2C TOTAL     ACCESS:     785778  HIT:     724574  MISS:      61204
cpu0_L2C LOAD      ACCESS:     663780  HIT:     602587  MISS:      61193
cpu0_L2C RFO       ACCESS:          0  HIT:          0  MISS:          0
cpu0_L2C PREFETCH  ACCESS:          0  HIT:          0  MISS:          0
cpu0_L2C WRITEBACK ACCESS:     118961  HIT:     118961  MISS:          0
LLC TOTAL     ACCESS:      62330  HIT:       3786  MISS:      58544
LLC LOAD      ACCESS:      61190  HIT:       3299  MISS:      57891
LLC RFO       ACCESS:          0  HIT:          0  MISS:          0
LLC PREFETCH  ACCESS:          0  HIT:          0  MISS:          0
LLC WRITEBACK ACCESS:       1129  HIT:        481  MISS:        648
Heartbeat CPU 0 instructions: 70000000 cycles: 38405020 heartbeat IPC: 1.2796 cumulative IPC: 1.23867 (Simulation time: 1 hr 22 min 45 sec) 

Region of Interest Statistics
cpu0_DTLB TOTAL     ACCESS:    7915847  HIT:    7632560  MISS:     283287
cpu0_DTLB LOAD      ACCESS:    7272196  HIT:    6989562  MISS:     282634
cpu0_DTLB RFO       ACCESS:     643651  HIT:     642998  MISS:        653
cpu0_DTLB PREFETCH  ACCESS:          0  HIT:          0  MISS:          0
cpu0_DTLB WRITEBACK ACCESS:          0  HIT:          0  MISS:          0
cpu0_ITLB TOTAL     ACCESS:     360089  HIT:     360088  MISS:          1
cpu0_ITLB LOAD      ACCESS:     360089  HIT:     360088  MISS:          1
cpu0_ITLB RFO       ACCESS:          0  HIT:          0  MISS:          0
cpu0_ITLB PREFETCH  ACCESS:          0  HIT:          0  MISS:          0
cpu0_ITLB WRITEBACK ACCESS:          0  HIT:          0  MISS:          0
cpu0_L1I TOTAL     ACCESS:    1979378  HIT:    1979337  MISS:         41
cpu0_L1I LOAD      ACCESS:    1979378  HIT:    1979337  MISS:         41
cpu0_L1I RFO       ACCESS:          0  HIT:          0  MISS:          0
cpu0_L1I PREFETCH  ACCESS:          0  HIT:          0  MISS:          0
cpu0_L1I WRITEBACK ACCESS:          0  HIT:          0  MISS:          0
cpu0_STLB TOTAL     ACCESS:     283288  HIT:     230292  MISS:      52996
cpu0_STLB LOAD      ACCESS:     282635  HIT:     229639  MISS:      52996
cpu0_STLB RFO       ACCESS:        653  HIT:        653  MISS:          0
cpu0_STLB PREFETCH  ACCESS:          0  HIT:          0  MISS:          0
cpu0_STLB WRITEBACK ACCESS:          0  HIT:          0  MISS:          0
cpu0_L1D TOTAL     ACCESS:    9784697  HIT:    9066438  MISS:     718259
cpu0_L1D LOAD      ACCESS:    9066231  HIT:    8351009  MISS:     715222
cpu0_L1D RFO       ACCESS:     665737  HIT:     665737  MISS:          0
cpu0_L1D PREFETCH  ACCESS:          0  HIT:          0  MISS:          0
cpu0_L1D WRITEBACK ACCESS:          0  HIT:          0  MISS:          0
cpu0_L2C TOTAL     ACCESS:     837261  HIT:     770608  MISS:      66653
cpu0_L2C LOAD      ACCESS:     715263  HIT:     648621  MISS:      66642
cpu0_L2C RFO       ACCESS:          0  HIT:          0  MISS:          0
cpu0_L2C PREFETCH  ACCESS:          0  HIT:          0  MISS:          0
cpu0_L2C WRITEBACK ACCESS:     118961  HIT:     118961  MISS:          0
LLC TOTAL     ACCESS:      67779  HIT:       3890  MISS:      63889
LLC LOAD      ACCESS:      66639  HIT:       3403  MISS:      63236
LLC RFO       ACCESS:          0  HIT:          0  MISS:          0
LLC PREFETCH  ACCESS:          0  HIT:          0  MISS:          0
LLC WRITEBACK ACCESS:       1129  HIT:        481  MISS:        648
Heartbeat CPU 0 instructions: 72000001 cycles: 39967283 heartbeat IPC: 1.28019 cumulative IPC: 1.24234 (Simulation time: 1 hr 25 min 41 sec) 

Region of Interest Statistics
cpu0_DTLB TOTAL     ACCESS:    8712247  HIT:    8409435  MISS:     302812
cpu0_DTLB LOAD      ACCESS:    8001124  HIT:    7699101  MISS:     302023
cpu0_DTLB RFO       ACCESS:     711123  HIT:     710334  MISS:        789
cpu0_DTLB PREFETCH  ACCESS:          0  HIT:          0  MISS:          0
cpu0_DTLB WRITEBACK ACCESS:          0  HIT:          0  MISS:          0
cpu0_ITLB TOTAL     ACCESS:     396094  HIT:     396093  MISS:          1
cpu0_ITLB LOAD      ACCESS:     396094  HIT:     396093  MISS:          1
cpu0_ITLB RFO       ACCESS:          0  HIT:          0  MISS:          0
cpu0_ITLB PREFETCH  ACCESS:          0  HIT:          0  MISS:          0
cpu0_ITLB WRITEBACK ACCESS:          0  HIT:          0  MISS:          0
cpu0_L1I TOTAL     ACCESS:    2177178  HIT:    2177137  MISS:         41
cpu0_L1I LOAD      ACCESS:    2177178  HIT:    2177137  MISS:         41
cpu0_L1I RFO       ACCESS:          0  HIT:          0  MISS:          0
cpu0_L1I PREFETCH  ACCESS:          0  HIT:          0  MISS:          0
cpu0_L1I WRITEBACK ACCESS:          0  HIT:          0  MISS:          0
cpu0_STLB TOTAL     ACCESS:     302813  HIT:     249817  MISS:      52996
cpu0_STLB LOAD      ACCESS:     302024  HIT:     249028  MISS:      52996
cpu0_STLB RFO       ACCESS:        789  HIT:        789  MISS:          0
cpu0_STLB PREFETCH  ACCESS:          0  HIT:          0  MISS:          0
cpu0_STLB WRITEBACK ACCESS:          0  HIT:          0  MISS:          0
cpu0_L1D TOTAL     ACCESS:   10776986  HIT:   10007235  MISS:     769751
cpu0_L1D LOAD      ACCESS:    9989775  HIT:    9223061  MISS:     766714
cpu0_L1D RFO       ACCESS:     734482  HIT:     734482  MISS:          0
cpu0_L1D PREFETCH  ACCESS:          0  HIT:          0  MISS:          0
cpu0_L1D WRITEBACK ACCESS:          0  HIT:          0  MISS:          0
cpu0_L2C TOTAL     ACCESS:     888753  HIT:     816664  MISS:      72089
cpu0_L2C LOAD      ACCESS:     766755  HIT:     694677  MISS:      72078
cpu0_L2C RFO       ACCESS:          0  HIT:          0  MISS:          0
cpu0_L2C PREFETCH  ACCESS:          0  HIT:          0  MISS:          0
cpu0_L2C WRITEBACK ACCESS:     118961  HIT:     118961  MISS:          0
LLC TOTAL     ACCESS:      73215  HIT:       3944  MISS:      69271
LLC LOAD      ACCESS:      72075  HIT:       3457  MISS:      68618
LLC RFO       ACCESS:          0  HIT:          0  MISS:          0
LLC PREFETCH  ACCESS:          0  HIT:          0  MISS:          0
LLC WRITEBACK ACCESS:       1129  HIT:        481  MISS:        648
Heartbeat CPU 0 instructions: 74000001 cycles: 41529746 heartbeat IPC: 1.28003 cumulative IPC: 1.24539 (Simulation time: 1 hr 28 min 37 sec) 

Region of Interest Statistics
cpu0_DTLB TOTAL     ACCESS:    9508102  HIT:    9185837  MISS:     322265
cpu0_DTLB LOAD      ACCESS:    8729533  HIT:    8408188  MISS:     321345
cpu0_DTLB RFO       ACCESS:     778569  HIT:     777649  MISS:        920
cpu0_DTLB PREFETCH  ACCESS:          0  HIT:          0  MISS:          0
cpu0_DTLB WRITEBACK ACCESS:          0  HIT:          0  MISS:          0
cpu0_ITLB TOTAL     ACCESS:     432094  HIT:     432093  MISS:          1
cpu0_ITLB LOAD      ACCESS:     432094  HIT:     432093  MISS:          1
cpu0_ITLB RFO       ACCESS:          0  HIT:          0  MISS:          0
cpu0_ITLB PREFETCH  ACCESS:          0  HIT:          0  MISS:          0
cpu0_ITLB WRITEBACK ACCESS:          0  HIT:          0  MISS:          0
cpu0_L1I TOTAL     ACCESS:    2374934  HIT:    2374893  MISS:         41
cpu0_L1I LOAD      ACCESS:    2374934  HIT:    2374893  MISS:         41
cpu0_L1I RFO       ACCESS:          0  HIT:          0  MISS:          0
cpu0_L1I PREFETCH  ACCESS:          0  HIT:          0  MISS:          0
cpu0_L1I WRITEBACK ACCESS:          0  HIT:          0  MISS:          0
cpu0_STLB TOTAL     ACCESS:     322266  HIT:     269270  MISS:      52996
cpu0_STLB LOAD      ACCESS:     321346  HIT:     268350  MISS:      52996
cpu0_STLB RFO       ACCESS:        920  HIT:        920  MISS:          0
cpu0_STLB PREFETCH  ACCESS:          0  HIT:          0  MISS:          0
cpu0_STLB WRITEBACK ACCESS:          0  HIT:          0  MISS:          0
cpu0_L1D TOTAL     ACCESS:   11769591  HIT:   10948357  MISS:     821234
cpu0_L1D LOAD      ACCESS:   10913635  HIT:   10095438  MISS:     818197
cpu0_L1D RFO       ACCESS:     803227  HIT:     803227  MISS:          0
cpu0_L1D PREFETCH  ACCESS:          0  HIT:          0  MISS:          0
cpu0_L1D WRITEBACK ACCESS:          0  HIT:          0  MISS:          0
cpu0_L2C TOTAL     ACCESS:     940236  HIT:     862754  MISS:      77482
cpu0_L2C LOAD      ACCESS:     818238  HIT:     740767  MISS:      77471
cpu0_L2C RFO       ACCESS:          0  HIT:          0  MISS:          0
cpu0_L2C PREFETCH  ACCESS:          0  HIT:          0  MISS:          0
cpu0_L2C WRITEBACK ACCESS:     118961  HIT:     118961  MISS:          0
LLC TOTAL     ACCESS:      78608  HIT:       3953  MISS:      74655
LLC LOAD      ACCESS:      77468  HIT:       3466  MISS:      74002
LLC RFO       ACCESS:          0  HIT:          0  MISS:          0
LLC PREFETCH  ACCESS:          0  HIT:          0  MISS:          0
LLC WRITEBACK ACCESS:       1129  HIT:        481  MISS:        648
Heartbeat CPU 0 instructions: 76000002 cycles: 43090722 heartbeat IPC: 1.28125 cumulative IPC: 1.24808 (Simulation time: 1 hr 31 min 30 sec) 

Region of Interest Statistics
cpu0_DTLB TOTAL     ACCESS:   10304001  HIT:    9962540  MISS:     341461
cpu0_DTLB LOAD      ACCESS:    9457973  HIT:    9117534  MISS:     340439
cpu0_DTLB RFO       ACCESS:     846028  HIT:     845006  MISS:       1022
cpu0_DTLB PREFETCH  ACCESS:          0  HIT:          0  MISS:          0
cpu0_DTLB WRITEBACK ACCESS:          0  HIT:          0  MISS:          0
cpu0_ITLB TOTAL     ACCESS:     468088  HIT:     468087  MISS:          1
cpu0_ITLB LOAD      ACCESS:     468088  HIT:     468087  MISS:          1
cpu0_ITLB RFO       ACCESS:          0  HIT:          0  MISS:          0
cpu0_ITLB PREFETCH  ACCESS:          0  HIT:          0  MISS:          0
cpu0_ITLB WRITEBACK ACCESS:          0  HIT:          0  MISS:          0
cpu0_L1I TOTAL     ACCESS:    2572598  HIT:    2572557  MISS:         41
cpu0_L1I LOAD      ACCESS:    2572598  HIT:    2572557  MISS:         41
cpu0_L1I RFO       ACCESS:          0  HIT:          0  MISS:          0
cpu0_L1I PREFETCH  ACCESS:          0  HIT:          0  MISS:          0
cpu0_L1I WRITEBACK ACCESS:          0  HIT:          0  MISS:          0
cpu0_STLB TOTAL     ACCESS:     341462  HIT:     288466  MISS:      52996
cpu0_STLB LOAD      ACCESS:     340440  HIT:     287444  MISS:      52996
cpu0_STLB RFO       ACCESS:       1022  HIT:       1022  MISS:          0
cpu0_STLB PREFETCH  ACCESS:          0  HIT:          0  MISS:          0
cpu0_STLB WRITEBACK ACCESS:          0  HIT:          0  MISS:          0
cpu0_L1D TOTAL     ACCESS:   12762199  HIT:   11889478  MISS:     872721
cpu0_L1D LOAD      ACCESS:   11837501  HIT:   10967817  MISS:     869684
cpu0_L1D RFO       ACCESS:     871969  HIT:     871969  MISS:          0
cpu0_L1D PREFETCH  ACCESS:          0  HIT:          0  MISS:          0
cpu0_L1D WRITEBACK ACCESS:          0  HIT:          0  MISS:          0
cpu0_L2C TOTAL     ACCESS:     991723  HIT:     908880  MISS:      82843
cpu0_L2C LOAD      ACCESS:     869725  HIT:     786893  MISS:      82832
cpu0_L2C RFO       ACCESS:          0  HIT:          0  MISS:          0
cpu0_L2C PREFETCH  ACCESS:          0  HIT:          0  MISS:          0
cpu0_L2C WRITEBACK ACCESS:     118961  HIT:     118961  MISS:          0
LLC TOTAL     ACCESS:      83969  HIT:       3958  MISS:      80011
LLC LOAD      ACCESS:      82829  HIT:       3471  MISS:      79358
LLC RFO       ACCESS:          0  HIT:          0  MISS:          0
LLC PREFETCH  ACCESS:          0  HIT:          0  MISS:          0
LLC WRITEBACK ACCESS:       1129  HIT:        481  MISS:        648
Heartbeat CPU 0 instructions: 78000003 cycles: 44664439 heartbeat IPC: 1.27088 cumulative IPC: 1.24968 (Simulation time: 1 hr 34 min 26 sec) 

Region of Interest Statistics
cpu0_DTLB TOTAL     ACCESS:   11103084  HIT:   10742542  MISS:     360542
cpu0_DTLB LOAD      ACCESS:   10189613  HIT:    9830162  MISS:     359451
cpu0_DTLB RFO       ACCESS:     913471  HIT:     912380  MISS:       1091
cpu0_DTLB PREFETCH  ACCESS:          0  HIT:          0  MISS:          0
cpu0_DTLB WRITEBACK ACCESS:          0  HIT:          0  MISS:          0
cpu0_ITLB TOTAL     ACCESS:     504938  HIT:     504936  MISS:          2
cpu0_ITLB LOAD      ACCESS:     504938  HIT:     504936  MISS:          2
cpu0_ITLB RFO       ACCESS:          0  HIT:          0  MISS:          0
cpu0_ITLB PREFETCH  ACCESS:          0  HIT:          0  MISS:          0
cpu0_ITLB WRITEBACK ACCESS:          0  HIT:          0  MISS:          0
cpu0_L1I TOTAL     ACCESS:    2768088  HIT:    2768005  MISS:         83
cpu0_L1I LOAD      ACCESS:    2768088  HIT:    2768005  MISS:         83
cpu0_L1I RFO       ACCESS:          0  HIT:          0  MISS:          0
cpu0_L1I PREFETCH  ACCESS:          0  HIT:          0  MISS:          0
cpu0_L1I WRITEBACK ACCESS:          0  HIT:          0  MISS:          0
cpu0_STLB TOTAL     ACCESS:     360544  HIT:     306821  MISS:      53723
cpu0_STLB LOAD      ACCESS:     359453  HIT:     305730  MISS:      53723
cpu0_STLB RFO       ACCESS:       1091  HIT:       1091  MISS:          0
cpu0_STLB PREFETCH  ACCESS:          0  HIT:          0  MISS:          0
cpu0_STLB WRITEBACK ACCESS:          0  HIT:          0  MISS:          0
cpu0_L1D TOTAL     ACCESS:   13757508  HIT:   12833260  MISS:     924248
cpu0_L1D LOAD      ACCESS:   12763335  HIT:   11842137  MISS:     921198
cpu0_L1D RFO       ACCESS:     940717  HIT:     940717  MISS:          0
cpu0_L1D PREFETCH  ACCESS:          0  HIT:          0  MISS:          0
cpu0_L1D WRITEBACK ACCESS:          0  HIT:          0  MISS:          0
cpu0_L2C TOTAL     ACCESS:    1043293  HIT:     953047  MISS:      90246
cpu0_L2C LOAD      ACCESS:     921281  HIT:     831056  MISS:      90225
cpu0_L2C RFO       ACCESS:          0  HIT:          0  MISS:          0
cpu0_L2C PREFETCH  ACCESS:          0  HIT:          0  MISS:          0
cpu0_L2C WRITEBACK ACCESS:     118962  HIT:     118961  MISS:          1
LLC TOTAL     ACCESS:      91371  HIT:       4906  MISS:      86465
LLC LOAD      ACCESS:      90222  HIT:       4419  MISS:      85803
LLC RFO       ACCESS:          0  HIT:          0  MISS:          0
LLC PREFETCH  ACCESS:          0  HIT:          0  MISS:          0
LLC WRITEBACK ACCESS:       1129  HIT:        481  MISS:        648
Heartbeat CPU 0 instructions: 80000003 cycles: 46165360 heartbeat IPC: 1.33252 cumulative IPC: 1.25488 (Simulation time: 1 hr 37 min 17 sec) 

Region of Interest Statistics
cpu0_DTLB TOTAL     ACCESS:   11917653  HIT:   11538036  MISS:     379617
cpu0_DTLB LOAD      ACCESS:   10936719  HIT:   10558241  MISS:     378478
cpu0_DTLB RFO       ACCESS:     980934  HIT:     979795  MISS:       1139
cpu0_DTLB PREFETCH  ACCESS:          0  HIT:          0  MISS:          0
cpu0_DTLB WRITEBACK ACCESS:          0  HIT:          0  MISS:          0
cpu0_ITLB TOTAL     ACCESS:     543672  HIT:     543670  MISS:          2
cpu0_ITLB LOAD      ACCESS:     543672  HIT:     543670  MISS:          2
cpu0_ITLB RFO       ACCESS:          0  HIT:          0  MISS:          0
cpu0_ITLB PREFETCH  ACCESS:          0  HIT:          0  MISS:          0
cpu0_ITLB WRITEBACK ACCESS:          0  HIT:          0  MISS:          0
cpu0_L1I TOTAL     ACCESS:    2958313  HIT:    2958230  MISS:         83
cpu0_L1I LOAD      ACCESS:    2958313  HIT:    2958230  MISS:         83
cpu0_L1I RFO       ACCESS:          0  HIT:          0  MISS:          0
cpu0_L1I PREFETCH  ACCESS:          0  HIT:          0  MISS:          0
cpu0_L1I WRITEBACK ACCESS:          0  HIT:          0  MISS:          0
cpu0_STLB TOTAL     ACCESS:     379619  HIT:     325896  MISS:      53723
cpu0_STLB LOAD      ACCESS:     378480  HIT:     324757  MISS:      53723
cpu0_STLB RFO       ACCESS:       1139  HIT:       1139  MISS:          0
cpu0_STLB PREFETCH  ACCESS:          0  HIT:          0  MISS:          0
cpu0_STLB WRITEBACK ACCESS:          0  HIT:          0  MISS:          0
cpu0_L1D TOTAL     ACCESS:   14761071  HIT:   13785313  MISS:     975758
cpu0_L1D LOAD      ACCESS:   13698154  HIT:   12725446  MISS:     972708
cpu0_L1D RFO       ACCESS:    1009461  HIT:    1009461  MISS:          0
cpu0_L1D PREFETCH  ACCESS:          0  HIT:          0  MISS:          0
cpu0_L1D WRITEBACK ACCESS:          0  HIT:          0  MISS:          0
cpu0_L2C TOTAL     ACCESS:    1094803  HIT:     999132  MISS:      95671
cpu0_L2C LOAD      ACCESS:     972791  HIT:     877141  MISS:      95650
cpu0_L2C RFO       ACCESS:          0  HIT:          0  MISS:          0
cpu0_L2C PREFETCH  ACCESS:          0  HIT:          0  MISS:          0
cpu0_L2C WRITEBACK ACCESS:     118962  HIT:     118961  MISS:          1
LLC TOTAL     ACCESS:      96796  HIT:       4917  MISS:      91879
LLC LOAD      ACCESS:      95647  HIT:       4430  MISS:      91217
LLC RFO       ACCESS:          0  HIT:          0  MISS:          0
LLC PREFETCH  ACCESS:          0  HIT:          0  MISS:          0
LLC WRITEBACK ACCESS:       1129  HIT:        481  MISS:        648
Heartbeat CPU 0 instructions: 82000002 cycles: 47660837 heartbeat IPC: 1.33737 cumulative IPC: 1.25974 (Simulation time: 1 hr 40 min 5 sec) 

Region of Interest Statistics
cpu0_DTLB TOTAL     ACCESS:   12731647  HIT:   12332898  MISS:     398749
cpu0_DTLB LOAD      ACCESS:   11683208  HIT:   11285644  MISS:     397564
cpu0_DTLB RFO       ACCESS:    1048439  HIT:    1047254  MISS:       1185
cpu0_DTLB PREFETCH  ACCESS:          0  HIT:          0  MISS:          0
cpu0_DTLB WRITEBACK ACCESS:          0  HIT:          0  MISS:          0
cpu0_ITLB TOTAL     ACCESS:     582408  HIT:     582406  MISS:          2
cpu0_ITLB LOAD      ACCESS:     582408  HIT:     582406  MISS:          2
cpu0_ITLB RFO       ACCESS:          0  HIT:          0  MISS:          0
cpu0_ITLB PREFETCH  ACCESS:          0  HIT:          0  MISS:          0
cpu0_ITLB WRITEBACK ACCESS:          0  HIT:          0  MISS:          0
cpu0_L1I TOTAL     ACCESS:    3148479  HIT:    3148396  MISS:         83
cpu0_L1I LOAD      ACCESS:    3148479  HIT:    3148396  MISS:         83
cpu0_L1I RFO       ACCESS:          0  HIT:          0  MISS:          0
cpu0_L1I PREFETCH  ACCESS:          0  HIT:          0  MISS:          0
cpu0_L1I WRITEBACK ACCESS:          0  HIT:          0  MISS:          0
cpu0_STLB TOTAL     ACCESS:     398751  HIT:     345027  MISS:      53724
cpu0_STLB LOAD      ACCESS:     397566  HIT:     343842  MISS:      53724
cpu0_STLB RFO       ACCESS:       1185  HIT:       1185  MISS:          0
cpu0_STLB PREFETCH  ACCESS:          0  HIT:          0  MISS:          0
cpu0_STLB WRITEBACK ACCESS:          0  HIT:          0  MISS:          0
cpu0_L1D TOTAL     ACCESS:   15765029  HIT:   14737763  MISS:    1027266
cpu0_L1D LOAD      ACCESS:   14633369  HIT:   13609154  MISS:    1024215
cpu0_L1D RFO       ACCESS:    1078203  HIT:    1078203  MISS:          0
cpu0_L1D PREFETCH  ACCESS:          0  HIT:          0  MISS:          0
cpu0_L1D WRITEBACK ACCESS:          0  HIT:          0  MISS:          0
cpu0_L2C TOTAL     ACCESS:    1146311  HIT:    1045316  MISS:     100995
cpu0_L2C LOAD      ACCESS:    1024298  HIT:     923325  MISS:     100973
cpu0_L2C RFO       ACCESS:          0  HIT:          0  MISS:          0
cpu0_L2C PREFETCH  ACCESS:          0  HIT:          0  MISS:          0
cpu0_L2C WRITEBACK ACCESS:     118962  HIT:     118961  MISS:          1
LLC TOTAL     ACCESS:     102120  HIT:       4918  MISS:      97202
LLC LOAD      ACCESS:     100970  HIT:       4430  MISS:      96540
LLC RFO       ACCESS:          0  HIT:          0  MISS:          0
LLC PREFETCH  ACCESS:          0  HIT:          0  MISS:          0
LLC WRITEBACK ACCESS:       1129  HIT:        481  MISS:        648
Heartbeat CPU 0 instructions: 84000000 cycles: 49153462 heartbeat IPC: 1.33992 cumulative IPC: 1.26419 (Simulation time: 1 hr 42 min 44 sec) 

Region of Interest Statistics
cpu0_DTLB TOTAL     ACCESS:   13546031  HIT:   13128275  MISS:     417756
cpu0_DTLB LOAD      ACCESS:   12430128  HIT:   12013602  MISS:     416526
cpu0_DTLB RFO       ACCESS:    1115903  HIT:    1114673  MISS:       1230
cpu0_DTLB PREFETCH  ACCESS:          0  HIT:          0  MISS:          0
cpu0_DTLB WRITEBACK ACCESS:          0  HIT:          0  MISS:          0
cpu0_ITLB TOTAL     ACCESS:     621142  HIT:     621140  MISS:          2
cpu0_ITLB LOAD      ACCESS:     621142  HIT:     621140  MISS:          2
cpu0_ITLB RFO       ACCESS:          0  HIT:          0  MISS:          0
cpu0_ITLB PREFETCH  ACCESS:          0  HIT:          0  MISS:          0
cpu0_ITLB WRITEBACK ACCESS:          0  HIT:          0  MISS:          0
cpu0_L1I TOTAL     ACCESS:    3338698  HIT:    3338615  MISS:         83
cpu0_L1I LOAD      ACCESS:    3338698  HIT:    3338615  MISS:         83
cpu0_L1I RFO       ACCESS:          0  HIT:          0  MISS:          0
cpu0_L1I PREFETCH  ACCESS:          0  HIT:          0  MISS:          0
cpu0_L1I WRITEBACK ACCESS:          0  HIT:          0  MISS:          0
cpu0_STLB TOTAL     ACCESS:     417758  HIT:     364033  MISS:      53725
cpu0_STLB LOAD      ACCESS:     416528  HIT:     362803  MISS:      53725
cpu0_STLB RFO       ACCESS:       1230  HIT:       1230  MISS:          0
cpu0_STLB PREFETCH  ACCESS:          0  HIT:          0  MISS:          0
cpu0_STLB WRITEBACK ACCESS:          0  HIT:          0  MISS:          0
cpu0_L1D TOTAL     ACCESS:   16768833  HIT:   15690050  MISS:    1078783
cpu0_L1D LOAD      ACCESS:   15568429  HIT:   14492698  MISS:    1075731
cpu0_L1D RFO       ACCESS:    1146946  HIT:    1146946  MISS:          0
cpu0_L1D PREFETCH  ACCESS:          0  HIT:          0  MISS:          0
cpu0_L1D WRITEBACK ACCESS:          0  HIT:          0  MISS:          0
cpu0_L2C TOTAL     ACCESS:    1197828  HIT:    1091523  MISS:     106305
cpu0_L2C LOAD      ACCESS:    1075814  HIT:     969532  MISS:     106282
cpu0_L2C RFO       ACCESS:          0  HIT:          0  MISS:          0
cpu0_L2C PREFETCH  ACCESS:          0  HIT:          0  MISS:          0
cpu0_L2C WRITEBACK ACCESS:     118962  HIT:     118961  MISS:          1
LLC TOTAL     ACCESS:     107430  HIT:       4919  MISS:     102511
LLC LOAD      ACCESS:     106279  HIT:       4430  MISS:     101849
LLC RFO       ACCESS:          0  HIT:          0  MISS:          0
LLC PREFETCH  ACCESS:          0  HIT:          0  MISS:          0
LLC WRITEBACK ACCESS:       1129  HIT:        481  MISS:        648
Heartbeat CPU 0 instructions: 86000004 cycles: 50647610 heartbeat IPC: 1.33856 cumulative IPC: 1.2681 (Simulation time: 1 hr 45 min 24 sec) 

Region of Interest Statistics
cpu0_DTLB TOTAL     ACCESS:   14360305  HIT:   13923495  MISS:     436810
cpu0_DTLB LOAD      ACCESS:   13176918  HIT:   12741389  MISS:     435529
cpu0_DTLB RFO       ACCESS:    1183387  HIT:    1182106  MISS:       1281
cpu0_DTLB PREFETCH  ACCESS:          0  HIT:          0  MISS:          0
cpu0_DTLB WRITEBACK ACCESS:          0  HIT:          0  MISS:          0
cpu0_ITLB TOTAL     ACCESS:     659880  HIT:     659878  MISS:          2
cpu0_ITLB LOAD      ACCESS:     659880  HIT:     659878  MISS:          2
cpu0_ITLB RFO       ACCESS:          0  HIT:          0  MISS:          0
cpu0_ITLB PREFETCH  ACCESS:          0  HIT:          0  MISS:          0
cpu0_ITLB WRITEBACK ACCESS:          0  HIT:          0  MISS:          0
cpu0_L1I TOTAL     ACCESS:    3528831  HIT:    3528748  MISS:         83
cpu0_L1I LOAD      ACCESS:    3528831  HIT:    3528748  MISS:         83
cpu0_L1I RFO       ACCESS:          0  HIT:          0  MISS:          0
cpu0_L1I PREFETCH  ACCESS:          0  HIT:          0  MISS:          0
cpu0_L1I WRITEBACK ACCESS:          0  HIT:          0  MISS:          0
cpu0_STLB TOTAL     ACCESS:     436812  HIT:     383086  MISS:      53726
cpu0_STLB LOAD      ACCESS:     435531  HIT:     381805  MISS:      53726
cpu0_STLB RFO       ACCESS:       1281  HIT:       1281  MISS:          0
cpu0_STLB PREFETCH  ACCESS:          0  HIT:          0  MISS:          0
cpu0_STLB WRITEBACK ACCESS:          0  HIT:          0  MISS:          0
cpu0_L1D TOTAL     ACCESS:   17772900  HIT:   16642610  MISS:    1130290
cpu0_L1D LOAD      ACCESS:   16503750  HIT:   15376513  MISS:    1127237
cpu0_L1D RFO       ACCESS:    1215691  HIT:    1215691  MISS:          0
cpu0_L1D PREFETCH  ACCESS:          0  HIT:          0  MISS:          0
cpu0_L1D WRITEBACK ACCESS:          0  HIT:          0  MISS:          0
cpu0_L2C TOTAL     ACCESS:    1249335  HIT:    1137709  MISS:     111626
cpu0_L2C LOAD      ACCESS:    1127320  HIT:    1015718  MISS:     111602
cpu0_L2C RFO       ACCESS:          0  HIT:          0  MISS:          0
cpu0_L2C PREFETCH  ACCESS:          0  HIT:          0  MISS:          0
cpu0_L2C WRITEBACK ACCESS:     118962  HIT:     118961  MISS:          1
LLC TOTAL     ACCESS:     112751  HIT:       4930  MISS:     107821
LLC LOAD      ACCESS:     111599  HIT:       4440  MISS:     107159
LLC RFO       ACCESS:          0  HIT:          0  MISS:          0
LLC PREFETCH  ACCESS:          0  HIT:          0  MISS:          0
LLC WRITEBACK ACCESS:       1129  HIT:        481  MISS:        648
Heartbeat CPU 0 instructions: 88000002 cycles: 52146527 heartbeat IPC: 1.3343 cumulative IPC: 1.27142 (Simulation time: 1 hr 48 min 12 sec) 

Region of Interest Statistics
cpu0_DTLB TOTAL     ACCESS:   15174574  HIT:   14718430  MISS:     456144
cpu0_DTLB LOAD      ACCESS:   13923727  HIT:   13468918  MISS:     454809
cpu0_DTLB RFO       ACCESS:    1250847  HIT:    1249512  MISS:       1335
cpu0_DTLB PREFETCH  ACCESS:          0  HIT:          0  MISS:          0
cpu0_DTLB WRITEBACK ACCESS:          0  HIT:          0  MISS:          0
cpu0_ITLB TOTAL     ACCESS:     698612  HIT:     698610  MISS:          2
cpu0_ITLB LOAD      ACCESS:     698612  HIT:     698610  MISS:          2
cpu0_ITLB RFO       ACCESS:          0  HIT:          0  MISS:          0
cpu0_ITLB PREFETCH  ACCESS:          0  HIT:          0  MISS:          0
cpu0_ITLB WRITEBACK ACCESS:          0  HIT:          0  MISS:          0
cpu0_L1I TOTAL     ACCESS:    3719008  HIT:    3718925  MISS:         83
cpu0_L1I LOAD      ACCESS:    3719008  HIT:    3718925  MISS:         83
cpu0_L1I RFO       ACCESS:          0  HIT:          0  MISS:          0
cpu0_L1I PREFETCH  ACCESS:          0  HIT:          0  MISS:          0
cpu0_L1I WRITEBACK ACCESS:          0  HIT:          0  MISS:          0
cpu0_STLB TOTAL     ACCESS:     456146  HIT:     402420  MISS:      53726
cpu0_STLB LOAD      ACCESS:     454811  HIT:     401085  MISS:      53726
cpu0_STLB RFO       ACCESS:       1335  HIT:       1335  MISS:          0
cpu0_STLB PREFETCH  ACCESS:          0  HIT:          0  MISS:          0
cpu0_STLB WRITEBACK ACCESS:          0  HIT:          0  MISS:          0
cpu0_L1D TOTAL     ACCESS:   18776639  HIT:   17594840  MISS:    1181799
cpu0_L1D LOAD      ACCESS:   17438748  HIT:   16260002  MISS:    1178746
cpu0_L1D RFO       ACCESS:    1284432  HIT:    1284432  MISS:          0
cpu0_L1D PREFETCH  ACCESS:          0  HIT:          0  MISS:          0
cpu0_L1D WRITEBACK ACCESS:          0  HIT:          0  MISS:          0
cpu0_L2C TOTAL     ACCESS:    1300844  HIT:    1183794  MISS:     117050
cpu0_L2C LOAD      ACCESS:    1178829  HIT:    1061803  MISS:     117026
cpu0_L2C RFO       ACCESS:          0  HIT:          0  MISS:          0
cpu0_L2C PREFETCH  ACCESS:          0  HIT:          0  MISS:          0
cpu0_L2C WRITEBACK ACCESS:     118962  HIT:     118961  MISS:          1
LLC TOTAL     ACCESS:     118175  HIT:       4991  MISS:     113184
LLC LOAD      ACCESS:     117023  HIT:       4501  MISS:     112522
LLC RFO       ACCESS:          0  HIT:          0  MISS:          0
LLC PREFETCH  ACCESS:          0  HIT:          0  MISS:          0
LLC WRITEBACK ACCESS:       1129  HIT:        481  MISS:        648
Heartbeat CPU 0 instructions: 90000002 cycles: 53653455 heartbeat IPC: 1.3272 cumulative IPC: 1.2741 (Simulation time: 1 hr 51 min 4 sec) 

Region of Interest Statistics
cpu0_DTLB TOTAL     ACCESS:   15988917  HIT:   15513517  MISS:     475400
cpu0_DTLB LOAD      ACCESS:   14670611  HIT:   14196596  MISS:     474015
cpu0_DTLB RFO       ACCESS:    1318306  HIT:    1316921  MISS:       1385
cpu0_DTLB PREFETCH  ACCESS:          0  HIT:          0  MISS:          0
cpu0_DTLB WRITEBACK ACCESS:          0  HIT:          0  MISS:          0
cpu0_ITLB TOTAL     ACCESS:     737353  HIT:     737351  MISS:          2
cpu0_ITLB LOAD      ACCESS:     737353  HIT:     737351  MISS:          2
cpu0_ITLB RFO       ACCESS:          0  HIT:          0  MISS:          0
cpu0_ITLB PREFETCH  ACCESS:          0  HIT:          0  MISS:          0
cpu0_ITLB WRITEBACK ACCESS:          0  HIT:          0  MISS:          0
cpu0_L1I TOTAL     ACCESS:    3909134  HIT:    3909051  MISS:         83
cpu0_L1I LOAD      ACCESS:    3909134  HIT:    3909051  MISS:         83
cpu0_L1I RFO       ACCESS:          0  HIT:          0  MISS:          0
cpu0_L1I PREFETCH  ACCESS:          0  HIT:          0  MISS:          0
cpu0_L1I WRITEBACK ACCESS:          0  HIT:          0  MISS:          0
cpu0_STLB TOTAL     ACCESS:     475402  HIT:     421676  MISS:      53726
cpu0_STLB LOAD      ACCESS:     474017  HIT:     420291  MISS:      53726
cpu0_STLB RFO       ACCESS:       1385  HIT:       1385  MISS:          0
cpu0_STLB PREFETCH  ACCESS:          0  HIT:          0  MISS:          0
cpu0_STLB WRITEBACK ACCESS:          0  HIT:          0  MISS:          0
cpu0_L1D TOTAL     ACCESS:   19780274  HIT:   18546963  MISS:    1233311
cpu0_L1D LOAD      ACCESS:   18373639  HIT:   17143381  MISS:    1230258
cpu0_L1D RFO       ACCESS:    1353176  HIT:    1353176  MISS:          0
cpu0_L1D PREFETCH  ACCESS:          0  HIT:          0  MISS:          0
cpu0_L1D WRITEBACK ACCESS:          0  HIT:          0  MISS:          0
cpu0_L2C TOTAL     ACCESS:    1352357  HIT:    1229810  MISS:     122547
cpu0_L2C LOAD      ACCESS:    1230342  HIT:    1107819  MISS:     122523
cpu0_L2C RFO       ACCESS:          0  HIT:          0  MISS:          0
cpu0_L2C PREFETCH  ACCESS:          0  HIT:          0  MISS:          0
cpu0_L2C WRITEBACK ACCESS:     118962  HIT:     118961  MISS:          1
LLC TOTAL     ACCESS:     123672  HIT:       5074  MISS:     118598
LLC LOAD      ACCESS:     122520  HIT:       4584  MISS:     117936
LLC RFO       ACCESS:          0  HIT:          0  MISS:          0
LLC PREFETCH  ACCESS:          0  HIT:          0  MISS:          0
LLC WRITEBACK ACCESS:       1129  HIT:        481  MISS:        648
Heartbeat CPU 0 instructions: 92000003 cycles: 55130948 heartbeat IPC: 1.35364 cumulative IPC: 1.27767 (Simulation time: 1 hr 53 min 55 sec) 

Region of Interest Statistics
cpu0_DTLB TOTAL     ACCESS:   16803136  HIT:   16308631  MISS:     494505
cpu0_DTLB LOAD      ACCESS:   15417356  HIT:   14924280  MISS:     493076
cpu0_DTLB RFO       ACCESS:    1385780  HIT:    1384351  MISS:       1429
cpu0_DTLB PREFETCH  ACCESS:          0  HIT:          0  MISS:          0
cpu0_DTLB WRITEBACK ACCESS:          0  HIT:          0  MISS:          0
cpu0_ITLB TOTAL     ACCESS:     776091  HIT:     776089  MISS:          2
cpu0_ITLB LOAD      ACCESS:     776091  HIT:     776089  MISS:          2
cpu0_ITLB RFO       ACCESS:          0  HIT:          0  MISS:          0
cpu0_ITLB PREFETCH  ACCESS:          0  HIT:          0  MISS:          0
cpu0_ITLB WRITEBACK ACCESS:          0  HIT:          0  MISS:          0
cpu0_L1I TOTAL     ACCESS:    4099299  HIT:    4099216  MISS:         83
cpu0_L1I LOAD      ACCESS:    4099299  HIT:    4099216  MISS:         83
cpu0_L1I RFO       ACCESS:          0  HIT:          0  MISS:          0
cpu0_L1I PREFETCH  ACCESS:          0  HIT:          0  MISS:          0
cpu0_L1I WRITEBACK ACCESS:          0  HIT:          0  MISS:          0
cpu0_STLB TOTAL     ACCESS:     494507  HIT:     440781  MISS:      53726
cpu0_STLB LOAD      ACCESS:     493078  HIT:     439352  MISS:      53726
cpu0_STLB RFO       ACCESS:       1429  HIT:       1429  MISS:          0
cpu0_STLB PREFETCH  ACCESS:          0  HIT:          0  MISS:          0
cpu0_STLB WRITEBACK ACCESS:          0  HIT:          0  MISS:          0
cpu0_L1D TOTAL     ACCESS:   20783928  HIT:   19499106  MISS:    1284822
cpu0_L1D LOAD      ACCESS:   19308549  HIT:   18026780  MISS:    1281769
cpu0_L1D RFO       ACCESS:    1421920  HIT:    1421920  MISS:          0
cpu0_L1D PREFETCH  ACCESS:          0  HIT:          0  MISS:          0
cpu0_L1D WRITEBACK ACCESS:          0  HIT:          0  MISS:          0
cpu0_L2C TOTAL     ACCESS:    1403867  HIT:    1275900  MISS:     127967
cpu0_L2C LOAD      ACCESS:    1281852  HIT:    1153909  MISS:     127943
cpu0_L2C RFO       ACCESS:          0  HIT:          0  MISS:          0
cpu0_L2C PREFETCH  ACCESS:          0  HIT:          0  MISS:          0
cpu0_L2C WRITEBACK ACCESS:     118962  HIT:     118961  MISS:          1
LLC TOTAL     ACCESS:     129092  HIT:       5281  MISS:     123811
LLC LOAD      ACCESS:     127940  HIT:       4791  MISS:     123149
LLC RFO       ACCESS:          0  HIT:          0  MISS:          0
LLC PREFETCH  ACCESS:          0  HIT:          0  MISS:          0
LLC WRITEBACK ACCESS:       1129  HIT:        481  MISS:        648
Heartbeat CPU 0 instructions: 94000003 cycles: 57004335 heartbeat IPC: 1.06759 cumulative IPC: 1.26635 (Simulation time: 1 hr 57 min 6 sec) 

Region of Interest Statistics
cpu0_DTLB TOTAL     ACCESS:   17610144  HIT:   17090427  MISS:     519717
cpu0_DTLB LOAD      ACCESS:   16158267  HIT:   15640228  MISS:     518039
cpu0_DTLB RFO       ACCESS:    1451877  HIT:    1450199  MISS:       1678
cpu0_DTLB PREFETCH  ACCESS:          0  HIT:          0  MISS:          0
cpu0_DTLB WRITEBACK ACCESS:          0  HIT:          0  MISS:          0
cpu0_ITLB TOTAL     ACCESS:     814664  HIT:     814662  MISS:          2
cpu0_ITLB LOAD      ACCESS:     814664  HIT:     814662  MISS:          2
cpu0_ITLB RFO       ACCESS:          0  HIT:          0  MISS:          0
cpu0_ITLB PREFETCH  ACCESS:          0  HIT:          0  MISS:          0
cpu0_ITLB WRITEBACK ACCESS:          0  HIT:          0  MISS:          0
cpu0_L1I TOTAL     ACCESS:    4293674  HIT:    4293591  MISS:         83
cpu0_L1I LOAD      ACCESS:    4293674  HIT:    4293591  MISS:         83
cpu0_L1I RFO       ACCESS:          0  HIT:          0  MISS:          0
cpu0_L1I PREFETCH  ACCESS:          0  HIT:          0  MISS:          0
cpu0_L1I WRITEBACK ACCESS:          0  HIT:          0  MISS:          0
cpu0_STLB TOTAL     ACCESS:     519719  HIT:     461294  MISS:      58425
cpu0_STLB LOAD      ACCESS:     518041  HIT:     459616  MISS:      58425
cpu0_STLB RFO       ACCESS:       1678  HIT:       1678  MISS:          0
cpu0_STLB PREFETCH  ACCESS:          0  HIT:          0  MISS:          0
cpu0_STLB WRITEBACK ACCESS:          0  HIT:          0  MISS:          0
cpu0_L1D TOTAL     ACCESS:   21754014  HIT:   20395640  MISS:    1358374
cpu0_L1D LOAD      ACCESS:   20207082  HIT:   18852061  MISS:    1355021
cpu0_L1D RFO       ACCESS:    1488781  HIT:    1488781  MISS:          0
cpu0_L1D PREFETCH  ACCESS:          0  HIT:          0  MISS:          0
cpu0_L1D WRITEBACK ACCESS:          0  HIT:          0  MISS:          0
cpu0_L2C TOTAL     ACCESS:    1489969  HIT:    1341572  MISS:     148397
cpu0_L2C LOAD      ACCESS:    1355104  HIT:    1206765  MISS:     148339
cpu0_L2C RFO       ACCESS:          0  HIT:          0  MISS:          0
cpu0_L2C PREFETCH  ACCESS:          0  HIT:          0  MISS:          0
cpu0_L2C WRITEBACK ACCESS:     131512  HIT:     131496  MISS:         16
LLC TOTAL     ACCESS:     149541  HIT:       6146  MISS:     143395
LLC LOAD      ACCESS:     148336  HIT:       5621  MISS:     142715
LLC RFO       ACCESS:          0  HIT:          0  MISS:          0
LLC PREFETCH  ACCESS:          0  HIT:          0  MISS:          0
LLC WRITEBACK ACCESS:       1163  HIT:        513  MISS:        650
Heartbeat CPU 0 instructions: 96000001 cycles: 59023224 heartbeat IPC: 0.990643 cumulative IPC: 1.25121 (Simulation time: 2 hr 0 min 33 sec) 

Region of Interest Statistics
cpu0_DTLB TOTAL     ACCESS:   18413797  HIT:   17865156  MISS:     548641
cpu0_DTLB LOAD      ACCESS:   16896463  HIT:   16349881  MISS:     546582
cpu0_DTLB RFO       ACCESS:    1517334  HIT:    1515275  MISS:       2059
cpu0_DTLB PREFETCH  ACCESS:          0  HIT:          0  MISS:          0
cpu0_DTLB WRITEBACK ACCESS:          0  HIT:          0  MISS:          0
cpu0_ITLB TOTAL     ACCESS:     853128  HIT:     853126  MISS:          2
cpu0_ITLB LOAD      ACCESS:     853128  HIT:     853126  MISS:          2
cpu0_ITLB RFO       ACCESS:          0  HIT:          0  MISS:          0
cpu0_ITLB PREFETCH  ACCESS:          0  HIT:          0  MISS:          0
cpu0_ITLB WRITEBACK ACCESS:          0  HIT:          0  MISS:          0
cpu0_L1I TOTAL     ACCESS:    4490650  HIT:    4490567  MISS:         83
cpu0_L1I LOAD      ACCESS:    4490650  HIT:    4490567  MISS:         83
cpu0_L1I RFO       ACCESS:          0  HIT:          0  MISS:          0
cpu0_L1I PREFETCH  ACCESS:          0  HIT:          0  MISS:          0
cpu0_L1I WRITEBACK ACCESS:          0  HIT:          0  MISS:          0
cpu0_STLB TOTAL     ACCESS:     548643  HIT:     483911  MISS:      64732
cpu0_STLB LOAD      ACCESS:     546584  HIT:     481852  MISS:      64732
cpu0_STLB RFO       ACCESS:       2059  HIT:       2059  MISS:          0
cpu0_STLB PREFETCH  ACCESS:          0  HIT:          0  MISS:          0
cpu0_STLB WRITEBACK ACCESS:          0  HIT:          0  MISS:          0
cpu0_L1D TOTAL     ACCESS:   22701150  HIT:   21256383  MISS:    1444767
cpu0_L1D LOAD      ACCESS:   21082147  HIT:   19641206  MISS:    1440941
cpu0_L1D RFO       ACCESS:    1554545  HIT:    1554545  MISS:          0
cpu0_L1D PREFETCH  ACCESS:          0  HIT:          0  MISS:          0
cpu0_L1D WRITEBACK ACCESS:          0  HIT:          0  MISS:          0
cpu0_L2C TOTAL     ACCESS:    1596533  HIT:    1421974  MISS:     174559
cpu0_L2C LOAD      ACCESS:    1441024  HIT:    1266526  MISS:     174498
cpu0_L2C RFO       ACCESS:          0  HIT:          0  MISS:          0
cpu0_L2C PREFETCH  ACCESS:          0  HIT:          0  MISS:          0
cpu0_L2C WRITEBACK ACCESS:     151683  HIT:     151667  MISS:         16
LLC TOTAL     ACCESS:     175747  HIT:       6363  MISS:     169384
LLC LOAD      ACCESS:     174495  HIT:       5797  MISS:     168698
LLC RFO       ACCESS:          0  HIT:          0  MISS:          0
LLC PREFETCH  ACCESS:          0  HIT:          0  MISS:          0
LLC WRITEBACK ACCESS:       1207  HIT:        551  MISS:        656
Heartbeat CPU 0 instructions: 98000002 cycles: 61045536 heartbeat IPC: 0.988968 cumulative IPC: 1.23753 (Simulation time: 2 hr 4 min 4 sec) 

Region of Interest Statistics
cpu0_DTLB TOTAL     ACCESS:   19217631  HIT:   18640101  MISS:     577530
cpu0_DTLB LOAD      ACCESS:   17634832  HIT:   17059746  MISS:     575086
cpu0_DTLB RFO       ACCESS:    1582799  HIT:    1580355  MISS:       2444
cpu0_DTLB PREFETCH  ACCESS:          0  HIT:          0  MISS:          0
cpu0_DTLB WRITEBACK ACCESS:          0  HIT:          0  MISS:          0
cpu0_ITLB TOTAL     ACCESS:     891593  HIT:     891591  MISS:          2
cpu0_ITLB LOAD      ACCESS:     891593  HIT:     891591  MISS:          2
cpu0_ITLB RFO       ACCESS:          0  HIT:          0  MISS:          0
cpu0_ITLB PREFETCH  ACCESS:          0  HIT:          0  MISS:          0
cpu0_ITLB WRITEBACK ACCESS:          0  HIT:          0  MISS:          0
cpu0_L1I TOTAL     ACCESS:    4687624  HIT:    4687541  MISS:         83
cpu0_L1I LOAD      ACCESS:    4687624  HIT:    4687541  MISS:         83
cpu0_L1I RFO       ACCESS:          0  HIT:          0  MISS:          0
cpu0_L1I PREFETCH  ACCESS:          0  HIT:          0  MISS:          0
cpu0_L1I WRITEBACK ACCESS:          0  HIT:          0  MISS:          0
cpu0_STLB TOTAL     ACCESS:     577532  HIT:     506712  MISS:      70820
cpu0_STLB LOAD      ACCESS:     575088  HIT:     504268  MISS:      70820
cpu0_STLB RFO       ACCESS:       2444  HIT:       2444  MISS:          0
cpu0_STLB PREFETCH  ACCESS:          0  HIT:          0  MISS:          0
cpu0_STLB WRITEBACK ACCESS:          0  HIT:          0  MISS:          0
cpu0_L1D TOTAL     ACCESS:   23648239  HIT:   22117074  MISS:    1531165
cpu0_L1D LOAD      ACCESS:   21957384  HIT:   20430523  MISS:    1526861
cpu0_L1D RFO       ACCESS:    1620309  HIT:    1620309  MISS:          0
cpu0_L1D PREFETCH  ACCESS:          0  HIT:          0  MISS:          0
cpu0_L1D WRITEBACK ACCESS:          0  HIT:          0  MISS:          0
cpu0_L2C TOTAL     ACCESS:    1703081  HIT:    1502356  MISS:     200725
cpu0_L2C LOAD      ACCESS:    1526944  HIT:    1326285  MISS:     200659
cpu0_L2C RFO       ACCESS:          0  HIT:          0  MISS:          0
cpu0_L2C PREFETCH  ACCESS:          0  HIT:          0  MISS:          0
cpu0_L2C WRITEBACK ACCESS:     171833  HIT:     171817  MISS:         16
LLC TOTAL     ACCESS:     201959  HIT:       6562  MISS:     195397
LLC LOAD      ACCESS:     200656  HIT:       5974  MISS:     194682
LLC RFO       ACCESS:          0  HIT:          0  MISS:          0
LLC PREFETCH  ACCESS:          0  HIT:          0  MISS:          0
LLC WRITEBACK ACCESS:       1253  HIT:        568  MISS:        685
Heartbeat CPU 0 instructions: 100000001 cycles: 63064900 heartbeat IPC: 0.99041 cumulative IPC: 1.2253 (Simulation time: 2 hr 7 min 31 sec) 

Region of Interest Statistics
cpu0_DTLB TOTAL     ACCESS:   20021348  HIT:   19414978  MISS:     606370
cpu0_DTLB LOAD      ACCESS:   18373102  HIT:   17769540  MISS:     603562
cpu0_DTLB RFO       ACCESS:    1648246  HIT:    1645438  MISS:       2808
cpu0_DTLB PREFETCH  ACCESS:          0  HIT:          0  MISS:          0
cpu0_DTLB WRITEBACK ACCESS:          0  HIT:          0  MISS:          0
cpu0_ITLB TOTAL     ACCESS:     930058  HIT:     930056  MISS:          2
cpu0_ITLB LOAD      ACCESS:     930058  HIT:     930056  MISS:          2
cpu0_ITLB RFO       ACCESS:          0  HIT:          0  MISS:          0
cpu0_ITLB PREFETCH  ACCESS:          0  HIT:          0  MISS:          0
cpu0_ITLB WRITEBACK ACCESS:          0  HIT:          0  MISS:          0
cpu0_L1I TOTAL     ACCESS:    4884601  HIT:    4884518  MISS:         83
cpu0_L1I LOAD      ACCESS:    4884601  HIT:    4884518  MISS:         83
cpu0_L1I RFO       ACCESS:          0  HIT:          0  MISS:          0
cpu0_L1I PREFETCH  ACCESS:          0  HIT:          0  MISS:          0
cpu0_L1I WRITEBACK ACCESS:          0  HIT:          0  MISS:          0
cpu0_STLB TOTAL     ACCESS:     606372  HIT:     529419  MISS:      76953
cpu0_STLB LOAD      ACCESS:     603564  HIT:     526611  MISS:      76953
cpu0_STLB RFO       ACCESS:       2808  HIT:       2808  MISS:          0
cpu0_STLB PREFETCH  ACCESS:          0  HIT:          0  MISS:          0
cpu0_STLB WRITEBACK ACCESS:          0  HIT:          0  MISS:          0
cpu0_L1D TOTAL     ACCESS:   24595431  HIT:   22977863  MISS:    1617568
cpu0_L1D LOAD      ACCESS:   22832680  HIT:   21219898  MISS:    1612782
cpu0_L1D RFO       ACCESS:    1686073  HIT:    1686073  MISS:          0
cpu0_L1D PREFETCH  ACCESS:          0  HIT:          0  MISS:          0
cpu0_L1D WRITEBACK ACCESS:          0  HIT:          0  MISS:          0
cpu0_L2C TOTAL     ACCESS:    1809643  HIT:    1582713  MISS:     226930
cpu0_L2C LOAD      ACCESS:    1612865  HIT:    1386010  MISS:     226855
cpu0_L2C RFO       ACCESS:          0  HIT:          0  MISS:          0
cpu0_L2C PREFETCH  ACCESS:          0  HIT:          0  MISS:          0
cpu0_L2C WRITEBACK ACCESS:     191992  HIT:     191976  MISS:         16
LLC TOTAL     ACCESS:     228213  HIT:       6795  MISS:     221418
LLC LOAD      ACCESS:     226852  HIT:       6186  MISS:     220666
LLC RFO       ACCESS:          0  HIT:          0  MISS:          0
LLC PREFETCH  ACCESS:          0  HIT:          0  MISS:          0
LLC WRITEBACK ACCESS:       1302  HIT:        582  MISS:        720
Heartbeat CPU 0 instructions: 102000004 cycles: 65088698 heartbeat IPC: 0.988242 cumulative IPC: 1.2141 (Simulation time: 2 hr 10 min 54 sec) 

Region of Interest Statistics
cpu0_DTLB TOTAL     ACCESS:   20825173  HIT:   20190019  MISS:     635154
cpu0_DTLB LOAD      ACCESS:   19111476  HIT:   18479501  MISS:     631975
cpu0_DTLB RFO       ACCESS:    1713697  HIT:    1710518  MISS:       3179
cpu0_DTLB PREFETCH  ACCESS:          0  HIT:          0  MISS:          0
cpu0_DTLB WRITEBACK ACCESS:          0  HIT:          0  MISS:          0
cpu0_ITLB TOTAL     ACCESS:     968526  HIT:     968524  MISS:          2
cpu0_ITLB LOAD      ACCESS:     968526  HIT:     968524  MISS:          2
cpu0_ITLB RFO       ACCESS:          0  HIT:          0  MISS:          0
cpu0_ITLB PREFETCH  ACCESS:          0  HIT:          0  MISS:          0
cpu0_ITLB WRITEBACK ACCESS:          0  HIT:          0  MISS:          0
cpu0_L1I TOTAL     ACCESS:    5081570  HIT:    5081487  MISS:         83
cpu0_L1I LOAD      ACCESS:    5081570  HIT:    5081487  MISS:         83
cpu0_L1I RFO       ACCESS:          0  HIT:          0  MISS:          0
cpu0_L1I PREFETCH  ACCESS:          0  HIT:          0  MISS:          0
cpu0_L1I WRITEBACK ACCESS:          0  HIT:          0  MISS:          0
cpu0_STLB TOTAL     ACCESS:     635156  HIT:     551928  MISS:      83228
cpu0_STLB LOAD      ACCESS:     631977  HIT:     548749  MISS:      83228
cpu0_STLB RFO       ACCESS:       3179  HIT:       3179  MISS:          0
cpu0_STLB PREFETCH  ACCESS:          0  HIT:          0  MISS:          0
cpu0_STLB WRITEBACK ACCESS:          0  HIT:          0  MISS:          0
cpu0_L1D TOTAL     ACCESS:   25543010  HIT:   23839044  MISS:    1703966
cpu0_L1D LOAD      ACCESS:   23708223  HIT:   22009524  MISS:    1698699
cpu0_L1D RFO       ACCESS:    1751837  HIT:    1751837  MISS:          0
cpu0_L1D PREFETCH  ACCESS:          0  HIT:          0  MISS:          0
cpu0_L1D WRITEBACK ACCESS:          0  HIT:          0  MISS:          0
cpu0_L2C TOTAL     ACCESS:    1916196  HIT:    1662964  MISS:     253232
cpu0_L2C LOAD      ACCESS:    1698782  HIT:    1445632  MISS:     253150
cpu0_L2C RFO       ACCESS:          0  HIT:          0  MISS:          0
cpu0_L2C PREFETCH  ACCESS:          0  HIT:          0  MISS:          0
cpu0_L2C WRITEBACK ACCESS:     212147  HIT:     212131  MISS:         16
LLC TOTAL     ACCESS:     254572  HIT:       7099  MISS:     247473
LLC LOAD      ACCESS:     253147  HIT:       6456  MISS:     246691
LLC RFO       ACCESS:          0  HIT:          0  MISS:          0
LLC PREFETCH  ACCESS:          0  HIT:          0  MISS:          0
LLC WRITEBACK ACCESS:       1359  HIT:        611  MISS:        748
Heartbeat CPU 0 instructions: 104000002 cycles: 67117857 heartbeat IPC: 0.985629 cumulative IPC: 1.20377 (Simulation time: 2 hr 14 min 21 sec) 

Region of Interest Statistics
cpu0_DTLB TOTAL     ACCESS:   21628938  HIT:   20964925  MISS:     664013
cpu0_DTLB LOAD      ACCESS:   19849805  HIT:   19189324  MISS:     660481
cpu0_DTLB RFO       ACCESS:    1779133  HIT:    1775601  MISS:       3532
cpu0_DTLB PREFETCH  ACCESS:          0  HIT:          0  MISS:          0
cpu0_DTLB WRITEBACK ACCESS:          0  HIT:          0  MISS:          0
cpu0_ITLB TOTAL     ACCESS:    1006991  HIT:    1006989  MISS:          2
cpu0_ITLB LOAD      ACCESS:    1006991  HIT:    1006989  MISS:          2
cpu0_ITLB RFO       ACCESS:          0  HIT:          0  MISS:          0
cpu0_ITLB PREFETCH  ACCESS:          0  HIT:          0  MISS:          0
cpu0_ITLB WRITEBACK ACCESS:          0  HIT:          0  MISS:          0
cpu0_L1I TOTAL     ACCESS:    5278532  HIT:    5278449  MISS:         83
cpu0_L1I LOAD      ACCESS:    5278532  HIT:    5278449  MISS:         83
cpu0_L1I RFO       ACCESS:          0  HIT:          0  MISS:          0
cpu0_L1I PREFETCH  ACCESS:          0  HIT:          0  MISS:          0
cpu0_L1I WRITEBACK ACCESS:          0  HIT:          0  MISS:          0
cpu0_STLB TOTAL     ACCESS:     664015  HIT:     574475  MISS:      89540
cpu0_STLB LOAD      ACCESS:     660483  HIT:     570943  MISS:      89540
cpu0_STLB RFO       ACCESS:       3532  HIT:       3532  MISS:          0
cpu0_STLB PREFETCH  ACCESS:          0  HIT:          0  MISS:          0
cpu0_STLB WRITEBACK ACCESS:          0  HIT:          0  MISS:          0
cpu0_L1D TOTAL     ACCESS:   26490602  HIT:   24700236  MISS:    1790366
cpu0_L1D LOAD      ACCESS:   24583740  HIT:   22799116  MISS:    1784624
cpu0_L1D RFO       ACCESS:    1817600  HIT:    1817600  MISS:          0
cpu0_L1D PREFETCH  ACCESS:          0  HIT:          0  MISS:          0
cpu0_L1D WRITEBACK ACCESS:          0  HIT:          0  MISS:          0
cpu0_L2C TOTAL     ACCESS:    2022756  HIT:    1743180  MISS:     279576
cpu0_L2C LOAD      ACCESS:    1784707  HIT:    1505216  MISS:     279491
cpu0_L2C RFO       ACCESS:          0  HIT:          0  MISS:          0
cpu0_L2C PREFETCH  ACCESS:          0  HIT:          0  MISS:          0
cpu0_L2C WRITEBACK ACCESS:     232307  HIT:     232291  MISS:         16
LLC TOTAL     ACCESS:     280975  HIT:       7407  MISS:     273568
LLC LOAD      ACCESS:     279488  HIT:       6737  MISS:     272751
LLC RFO       ACCESS:          0  HIT:          0  MISS:          0
LLC PREFETCH  ACCESS:          0  HIT:          0  MISS:          0
LLC WRITEBACK ACCESS:       1418  HIT:        635  MISS:        783
Heartbeat CPU 0 instructions: 106000004 cycles: 69243556 heartbeat IPC: 0.940868 cumulative IPC: 1.19187 (Simulation time: 2 hr 17 min 55 sec) 

Region of Interest Statistics
cpu0_DTLB TOTAL     ACCESS:   22423596  HIT:   21729577  MISS:     694019
cpu0_DTLB LOAD      ACCESS:   20581013  HIT:   19891151  MISS:     689862
cpu0_DTLB RFO       ACCESS:    1842583  HIT:    1838426  MISS:       4157
cpu0_DTLB PREFETCH  ACCESS:          0  HIT:          0  MISS:          0
cpu0_DTLB WRITEBACK ACCESS:          0  HIT:          0  MISS:          0
cpu0_ITLB TOTAL     ACCESS:    1043750  HIT:    1043748  MISS:          2
cpu0_ITLB LOAD      ACCESS:    1043750  HIT:    1043748  MISS:          2
cpu0_ITLB RFO       ACCESS:          0  HIT:          0  MISS:          0
cpu0_ITLB PREFETCH  ACCESS:          0  HIT:          0  MISS:          0
cpu0_ITLB WRITEBACK ACCESS:          0  HIT:          0  MISS:          0
cpu0_L1I TOTAL     ACCESS:    5474251  HIT:    5474168  MISS:         83
cpu0_L1I LOAD      ACCESS:    5474251  HIT:    5474168  MISS:         83
cpu0_L1I RFO       ACCESS:          0  HIT:          0  MISS:          0
cpu0_L1I PREFETCH  ACCESS:          0  HIT:          0  MISS:          0
cpu0_L1I WRITEBACK ACCESS:          0  HIT:          0  MISS:          0
cpu0_STLB TOTAL     ACCESS:     694021  HIT:     597873  MISS:      96148
cpu0_STLB LOAD      ACCESS:     689864  HIT:     593716  MISS:      96148
cpu0_STLB RFO       ACCESS:       4157  HIT:       4157  MISS:          0
cpu0_STLB PREFETCH  ACCESS:          0  HIT:          0  MISS:          0
cpu0_STLB WRITEBACK ACCESS:          0  HIT:          0  MISS:          0
cpu0_L1D TOTAL     ACCESS:   27443508  HIT:   25567050  MISS:    1876458
cpu0_L1D LOAD      ACCESS:   25464496  HIT:   23594252  MISS:    1870244
cpu0_L1D RFO       ACCESS:    1883146  HIT:    1883145  MISS:          1
cpu0_L1D PREFETCH  ACCESS:          0  HIT:          0  MISS:          0
cpu0_L1D WRITEBACK ACCESS:          0  HIT:          0  MISS:          0
cpu0_L2C TOTAL     ACCESS:    2128924  HIT:    1821891  MISS:     307033
cpu0_L2C LOAD      ACCESS:    1870327  HIT:    1563398  MISS:     306929
cpu0_L2C RFO       ACCESS:          1  HIT:          0  MISS:          1
cpu0_L2C PREFETCH  ACCESS:          0  HIT:          0  MISS:          0
cpu0_L2C WRITEBACK ACCESS:     252383  HIT:     252367  MISS:         16
[...]
cpu0_DTLB LOAD      ACCESS:  516654498  HIT:  510048381  MISS:    6606117
cpu0_DTLB RFO       ACCESS:   60462083  HIT:   59450894  MISS:    1011189
cpu0_DTLB PREFETCH  ACCESS:          0  HIT:          0  MISS:          0
cpu0_DTLB WRITEBACK ACCESS:          0  HIT:          0  MISS:          0
cpu0_ITLB TOTAL     ACCESS:   23953106  HIT:   23953087  MISS:         19
cpu0_ITLB LOAD      ACCESS:   23953106  HIT:   23953087  MISS:         19
cpu0_ITLB RFO       ACCESS:          0  HIT:          0  MISS:          0
cpu0_ITLB PREFETCH  ACCESS:          0  HIT:          0  MISS:          0
cpu0_ITLB WRITEBACK ACCESS:          0  HIT:          0  MISS:          0
cpu0_L1I TOTAL     ACCESS:  112354955  HIT:  112354281  MISS:        674
cpu0_L1I LOAD      ACCESS:  112354955  HIT:  112354281  MISS:        674
cpu0_L1I RFO       ACCESS:          0  HIT:          0  MISS:          0
cpu0_L1I PREFETCH  ACCESS:          0  HIT:          0  MISS:          0
cpu0_L1I WRITEBACK ACCESS:          0  HIT:          0  MISS:          0
cpu0_STLB TOTAL     ACCESS:    7617325  HIT:    6646842  MISS:     970483
cpu0_STLB LOAD      ACCESS:    6606136  HIT:    5636344  MISS:     969792
cpu0_STLB RFO       ACCESS:    1011189  HIT:    1010498  MISS:        691
cpu0_STLB PREFETCH  ACCESS:          0  HIT:          0  MISS:          0
cpu0_STLB WRITEBACK ACCESS:          0  HIT:          0  MISS:          0
cpu0_L1D TOTAL     ACCESS:  644991090  HIT:  619055202  MISS:   25935888
cpu0_L1D LOAD      ACCESS:  552357820  HIT:  526635082  MISS:   25722738
cpu0_L1D RFO       ACCESS:   91704151  HIT:   91555029  MISS:     149122
cpu0_L1D PREFETCH  ACCESS:          0  HIT:          0  MISS:          0
cpu0_L1D WRITEBACK ACCESS:          0  HIT:          0  MISS:          0
cpu0_L2C TOTAL     ACCESS:   34234998  HIT:   17324334  MISS:   16910664
cpu0_L2C LOAD      ACCESS:   25723412  HIT:    8936814  MISS:   16786598
cpu0_L2C RFO       ACCESS:     149122  HIT:      26646  MISS:     122476
cpu0_L2C PREFETCH  ACCESS:          0  HIT:          0  MISS:          0
cpu0_L2C WRITEBACK ACCESS:    8298436  HIT:    8298045  MISS:        391
LLC TOTAL     ACCESS:   23856026  HIT:    8692536  MISS:   15163490
LLC LOAD      ACCESS:   16786592  HIT:    1650464  MISS:   15136128
LLC RFO       ACCESS:     122476  HIT:      99494  MISS:      22982
LLC PREFETCH  ACCESS:          0  HIT:          0  MISS:          0
LLC WRITEBACK ACCESS:    6945759  HIT:    6942022  MISS:       3737
Heartbeat CPU 0 instructions: 1550000001 cycles: 2351285875 heartbeat IPC: 1.71484 cumulative IPC: 0.644046 (Simulation time: 24 hr 47 min 1 sec) 

Region of Interest Statistics
cpu0_DTLB TOTAL     ACCESS:  577453724  HIT:  569836355  MISS:    7617369
cpu0_DTLB LOAD      ACCESS:  516894855  HIT:  510288707  MISS:    6606148
cpu0_DTLB RFO       ACCESS:   60558869  HIT:   59547648  MISS:    1011221
cpu0_DTLB PREFETCH  ACCESS:          0  HIT:          0  MISS:          0
cpu0_DTLB WRITEBACK ACCESS:          0  HIT:          0  MISS:          0
cpu0_ITLB TOTAL     ACCESS:   24020597  HIT:   24020578  MISS:         19
cpu0_ITLB LOAD      ACCESS:   24020597  HIT:   24020578  MISS:         19
cpu0_ITLB RFO       ACCESS:          0  HIT:          0  MISS:          0
cpu0_ITLB PREFETCH  ACCESS:          0  HIT:          0  MISS:          0
cpu0_ITLB WRITEBACK ACCESS:          0  HIT:          0  MISS:          0
cpu0_L1I TOTAL     ACCESS:  112528564  HIT:  112527890  MISS:        674
cpu0_L1I LOAD      ACCESS:  112528564  HIT:  112527890  MISS:        674
cpu0_L1I RFO       ACCESS:          0  HIT:          0  MISS:          0
cpu0_L1I PREFETCH  ACCESS:          0  HIT:          0  MISS:          0
cpu0_L1I WRITEBACK ACCESS:          0  HIT:          0  MISS:          0
cpu0_STLB TOTAL     ACCESS:    7617388  HIT:    6646905  MISS:     970483
cpu0_STLB LOAD      ACCESS:    6606167  HIT:    5636375  MISS:     969792
cpu0_STLB RFO       ACCESS:    1011221  HIT:    1010530  MISS:        691
cpu0_STLB PREFETCH  ACCESS:          0  HIT:          0  MISS:          0
cpu0_STLB WRITEBACK ACCESS:          0  HIT:          0  MISS:          0
cpu0_L1D TOTAL     ACCESS:  645378725  HIT:  619438807  MISS:   25939918
cpu0_L1D LOAD      ACCESS:  552599985  HIT:  526875232  MISS:   25724753
cpu0_L1D RFO       ACCESS:   91849621  HIT:   91698484  MISS:     151137
cpu0_L1D PREFETCH  ACCESS:          0  HIT:          0  MISS:          0
cpu0_L1D WRITEBACK ACCESS:          0  HIT:          0  MISS:          0
cpu0_L2C TOTAL     ACCESS:   34241040  HIT:   17327586  MISS:   16913454
cpu0_L2C LOAD      ACCESS:   25725427  HIT:    8937279  MISS:   16788148
cpu0_L2C RFO       ACCESS:     151137  HIT:      27421  MISS:     123716
cpu0_L2C PREFETCH  ACCESS:          0  HIT:          0  MISS:          0
cpu0_L2C WRITEBACK ACCESS:    8300448  HIT:    8300057  MISS:        391
LLC TOTAL     ACCESS:   23860691  HIT:    8697201  MISS:   15163490
LLC LOAD      ACCESS:   16788142  HIT:    1652014  MISS:   15136128
LLC RFO       ACCESS:     123716  HIT:     100734  MISS:      22982
LLC PREFETCH  ACCESS:          0  HIT:          0  MISS:          0
LLC WRITEBACK ACCESS:    6947634  HIT:    6943897  MISS:       3737
Finished CPU 0 instructions: 1500000000 cycles: 2329027167 cumulative IPC: 0.644046 (Simulation time: 24 hr 47 min 1 sec) 

ChampSim completed all CPUs

Region of Interest Statistics

CPU 0 cumulative IPC: 0.644046 instructions: 1500000000 cycles: 2329027167
cpu0_DTLB TOTAL     ACCESS:  577453724  HIT:  569836355  MISS:    7617369
cpu0_DTLB LOAD      ACCESS:  516894855  HIT:  510288707  MISS:    6606148
cpu0_DTLB RFO       ACCESS:   60558869  HIT:   59547648  MISS:    1011221
cpu0_DTLB PREFETCH  ACCESS:          0  HIT:          0  MISS:          0
cpu0_DTLB WRITEBACK ACCESS:          0  HIT:          0  MISS:          0
cpu0_DTLB TRANSLATION ACCESS:          0  HIT:          0  MISS:          0
cpu0_DTLB PREFETCH  REQUESTED:          0  ISSUED:          0  USEFUL:          0  USELESS:          0
cpu0_DTLB AVERAGE MISS LATENCY: 15.9187 cycles
cpu0_ITLB TOTAL     ACCESS:   24020597  HIT:   24020578  MISS:         19
cpu0_ITLB LOAD      ACCESS:   24020597  HIT:   24020578  MISS:         19
cpu0_ITLB RFO       ACCESS:          0  HIT:          0  MISS:          0
cpu0_ITLB PREFETCH  ACCESS:          0  HIT:          0  MISS:          0
cpu0_ITLB WRITEBACK ACCESS:          0  HIT:          0  MISS:          0
cpu0_ITLB TRANSLATION ACCESS:          0  HIT:          0  MISS:          0
cpu0_ITLB PREFETCH  REQUESTED:          0  ISSUED:          0  USEFUL:          0  USELESS:          0
cpu0_ITLB AVERAGE MISS LATENCY: 266.895 cycles
cpu0_L1I TOTAL     ACCESS:  112528564  HIT:  112527890  MISS:        674
cpu0_L1I LOAD      ACCESS:  112528564  HIT:  112527890  MISS:        674
cpu0_L1I RFO       ACCESS:          0  HIT:          0  MISS:          0
cpu0_L1I PREFETCH  ACCESS:          0  HIT:          0  MISS:          0
cpu0_L1I WRITEBACK ACCESS:          0  HIT:          0  MISS:          0
cpu0_L1I TRANSLATION ACCESS:          0  HIT:          0  MISS:          0
cpu0_L1I PREFETCH  REQUESTED:          0  ISSUED:          0  USEFUL:          0  USELESS:          0
cpu0_L1I AVERAGE MISS LATENCY: 331.396 cycles
cpu0_STLB TOTAL     ACCESS:    7617388  HIT:    6646905  MISS:     970483
cpu0_STLB LOAD      ACCESS:    6606167  HIT:    5636375  MISS:     969792
cpu0_STLB RFO       ACCESS:    1011221  HIT:    1010530  MISS:        691
cpu0_STLB PREFETCH  ACCESS:          0  HIT:          0  MISS:          0
cpu0_STLB WRITEBACK ACCESS:          0  HIT:          0  MISS:          0
cpu0_STLB TRANSLATION ACCESS:          0  HIT:          0  MISS:          0
cpu0_STLB PREFETCH  REQUESTED:          0  ISSUED:          0  USEFUL:          0  USELESS:          0
cpu0_STLB AVERAGE MISS LATENCY: 54.2528 cycles
cpu0_L1D TOTAL     ACCESS:  645378726  HIT:  619438808  MISS:   25939918
cpu0_L1D LOAD      ACCESS:  552599985  HIT:  526875232  MISS:   25724753
cpu0_L1D RFO       ACCESS:   91849622  HIT:   91698485  MISS:     151137
cpu0_L1D PREFETCH  ACCESS:          0  HIT:          0  MISS:          0
cpu0_L1D WRITEBACK ACCESS:          0  HIT:          0  MISS:          0
cpu0_L1D TRANSLATION ACCESS:     929119  HIT:     865091  MISS:      64028
cpu0_L1D PREFETCH  REQUESTED:          0  ISSUED:          0  USEFUL:          0  USELESS:          0
cpu0_L1D AVERAGE MISS LATENCY: 272.378 cycles
cpu0_L2C TOTAL     ACCESS:   34241040  HIT:   17327586  MISS:   16913454
cpu0_L2C LOAD      ACCESS:   25725427  HIT:    8937279  MISS:   16788148
cpu0_L2C RFO       ACCESS:     151137  HIT:      27421  MISS:     123716
cpu0_L2C PREFETCH  ACCESS:          0  HIT:          0  MISS:          0
cpu0_L2C WRITEBACK ACCESS:    8300448  HIT:    8300057  MISS:        391
cpu0_L2C TRANSLATION ACCESS:      64028  HIT:      62829  MISS:       1199
cpu0_L2C PREFETCH  REQUESTED:          0  ISSUED:          0  USEFUL:          0  USELESS:          0
cpu0_L2C AVERAGE MISS LATENCY: 400.846 cycles
LLC TOTAL     ACCESS:   23860691  HIT:    8697201  MISS:   15163490
LLC LOAD      ACCESS:   16788142  HIT:    1652014  MISS:   15136128
LLC RFO       ACCESS:     123716  HIT:     100734  MISS:      22982
LLC PREFETCH  ACCESS:          0  HIT:          0  MISS:          0
LLC WRITEBACK ACCESS:    6947634  HIT:    6943897  MISS:       3737
LLC TRANSLATION ACCESS:       1199  HIT:        556  MISS:        643
LLC PREFETCH  REQUESTED:          0  ISSUED:          0  USEFUL:          0  USELESS:          0
LLC AVERAGE MISS LATENCY: 423.683 cycles
~~~~~~~~~~Reuse Distance Profiler output~~~~~~~~~~
0	0	0
1	0	0
2	0	0
3	0	0
4	0	0
5	0	0
6	0	0
7	0	0
8	0	0
9	0	0
10	0	0
11	0	0
12	0	0
13	0	0
14	0	0
15	0	0
16	0	0
17	0	0
18	0	0
19	0	0
20	0	0
21	0	0
22	0	0
23	0	0
24	0	0
25	0	0
26	0	0
27	0	0
28	0	0
29	0	0
30	0	0
31	0	0
32	0	0
33	0	0
34	0	0
35	0	0
36	0	0
37	0	0
38	0	0
39	0	0
40	0	0
41	0	0
42	0	0
43	0	0
44	0	0
45	0	0
46	0	0
47	0	0
48	0	0
49	0	0
50	0	0
51	0	0
52	0	0
53	0	0
54	0	0
55	0	0
56	0	0
57	0	0
58	0	0
59	0	0
60	0	0
61	0	0
62	0	0
63	0	0
64	0	0
66	0	0
68	0	0
70	0	0
72	0	0
74	0	0
76	0	0
78	0	0
80	0	0
82	0	0
84	0	0
86	0	0
88	0	0
90	0	0
92	0	0
94	0	0
96	0	0
98	0	0
100	0	0
102	0	0
104	0	0
106	0	0
108	0	0
110	0	0
112	0	0
114	0	0
116	0	0
118	0	0
120	0	0
122	0	0
124	0	0
126	0	0
128	0	0
132	0	0
136	0	0
140	0	0
144	0	0
148	0	0
152	0	0
156	0	0
160	0	0
164	0	0
168	0	0
172	0	0
176	0	0
180	0	0
184	0	0
188	0	0
192	0	0
196	0	0
200	0	0
204	0	0
208	0	0
212	0	0
216	0	0
220	0	0
224	0	0
228	0	0
232	0	0
236	0	0
240	0	0
244	0	0
248	0	0
252	0	0
256	0	0
264	0	0
272	0	0
280	0	0
288	0	0
296	0	0
304	0	0
312	0	0
320	0	0
328	0	0
336	0	0
344	0	0
352	0	0
360	0	0
368	0	0
376	0	0
384	0	0
392	0	0
400	0	0
408	0	0
416	0	0
424	0	0
432	0	0
440	0	0
448	0	0
456	0	0
464	0	0
472	0	0
480	0	0
488	0	0
496	0	0
504	0	0
512	0	0
528	0	0
544	0	0
560	0	0
576	0	0
592	0	0
608	0	0
624	0	0
640	0	0
656	0	0
672	0	0
688	0	0
704	0	0
720	0	0
736	0	0
752	0	0
768	0	0
784	0	0
800	0	0
816	0	0
832	0	0
848	0	0
864	0	0
880	0	0
896	0	0
912	0	0
928	0	0
944	0	0
960	0	0
976	0	0
992	0	0
1008	0	0
1024	0	0
1056	0	0
1088	0	0
1120	0	0
1152	0	0
1184	0	0
1216	0	0
1248	0	0
1280	0	0
1312	0	0
1344	0	0
1376	0	0
1408	0	0
1440	0	0
1472	0	0
1504	0	0
1536	0	0
1568	0	0
1600	0	0
1632	0	0
1664	0	0
1696	0	0
1728	0	0
1760	0	0
1792	0	0
1824	0	0
1856	0	0
1888	0	0
1920	0	0
1952	0	0
1984	0	0
2016	0	0
2048	0	0
2112	0	0
2176	0	0
2240	0	0
2304	0	0
2368	0	0
2432	0	0
2496	0	0
2560	0	0
2624	0	0
2688	0	0
2752	0	0
2816	0	0
2880	0	0
2944	0	0
3008	0	0
3072	0	0
3136	0	0
3200	0	0
3264	0	0
3328	0	0
3392	0	0
3456	0	0
3520	0	0
3584	0	0
3648	0	0
3712	0	0
3776	0	0
3840	0	0
3904	0	0
3968	0	0
4032	0	0
4096	0	0
4224	0	0
4352	0	0
4480	0	0
4608	0	0
4736	0	0
4864	0	0
4992	0	0
5120	0	0
5248	0	0
5376	0	0
5504	0	0
5632	0	0
5760	0	0
5888	0	0
6016	0	0
6144	0	0
6272	0	0
6400	0	0
6528	0	0
6656	0	0
6784	0	0
6912	0	0
7040	0	0
7168	0	0
7296	0	0
7424	0	0
7552	0	0
7680	0	0
7808	0	0
7936	0	0
8064	0	0
8192	0	0
8448	0	0
8704	0	0
8960	0	0
9216	0	0
9472	0	0
9728	0	0
9984	0	0
10240	0	0
10496	0	0
10752	0	0
11008	0	0
11264	0	0
11520	0	0
11776	0	0
12032	0	0
12288	0	0
12544	0	0
12800	0	0
13056	0	0
13312	0	0
13568	0	0
13824	0	0
14080	0	0
14336	0	0
14592	0	0
14848	0	0
15104	0	0
15360	0	0
15616	0	0
15872	0	0
16128	0	0
16384	0	0
16896	0	0
17408	0	0
17920	0	0
18432	0	0
18944	0	0
19456	0	0
19968	0	0
20480	0	0
20992	0	0
21504	0	0
22016	0	0
22528	0	0
23040	0	0
23552	0	0
24064	0	0
24576	0	0
25088	0	0
25600	0	0
26112	0	0
26624	0	0
27136	0	0
27648	0	0
28160	0	0
28672	0	0
29184	0	0
29696	0	0
30208	0	0
30720	0	0
31232	0	0
31744	0	0
32256	0	0
32768	0	0
33792	0	0
34816	0	0
35840	0	0
36864	0	0
37888	0	0
38912	0	0
39936	0	0
40960	0	0
41984	0	0
43008	0	0
44032	0	0
45056	0	0
46080	0	0
47104	0	0
48128	0	0
49152	0	0
50176	0	0
51200	0	0
52224	0	0
53248	0	0
54272	0	0
55296	0	0
56320	0	0
57344	0	0
58368	0	0
59392	0	0
60416	0	0
61440	0	0
62464	0	0
63488	0	0
64512	0	0
65536	0	0
67584	0	0
69632	0	0
71680	0	0
73728	0	0
75776	0	0
77824	0	0
79872	0	0
81920	0	0
83968	0	0
86016	0	0
88064	0	0
90112	0	0
92160	0	0
94208	0	0
96256	0	0
98304	0	0
100352	0	0
102400	0	0
104448	0	0
106496	0	0
108544	0	0
110592	0	0
112640	0	0
114688	0	0
116736	0	0
118784	0	0
120832	0	0
122880	0	0
124928	0	0
126976	0	0
129024	0	0
131072	0	0
135168	0	0
139264	0	0
143360	0	0
147456	0	0
151552	0	0
155648	0	0
159744	0	0
163840	0	0
167936	0	0
172032	0	0
176128	0	0
180224	0	0
184320	0	0
188416	0	0
192512	0	0
196608	0	0
200704	0	0
204800	0	0
208896	0	0
212992	0	0
217088	0	0
221184	0	0
225280	0	0
229376	0	0
233472	0	0
237568	0	0
241664	0	0
245760	0	0
249856	0	0
253952	0	0
258048	0	0
262144	0	0
270336	0	0
278528	0	0
286720	0	0
294912	0	0
303104	0	0
311296	0	0
319488	0	0
327680	0	0
335872	0	0
344064	0	0
352256	0	0
360448	0	0
368640	0	0
376832	0	0
385024	0	0
393216	0	0
401408	0	0
409600	0	0
417792	0	0
425984	0	0
434176	0	0
442368	0	0
450560	0	0
458752	0	0
466944	0	0
475136	0	0
483328	0	0
491520	0	0
499712	0	0
507904	0	0
516096	0	0
524288	0	0
540672	0	0
557056	0	0
573440	0	0
589824	0	0
606208	0	0
622592	0	0
638976	0	0
655360	0	0
671744	0	0
688128	0	0
704512	0	0
720896	0	0
737280	0	0
753664	0	0
770048	0	0
786432	0	0
802816	0	0
819200	0	0
835584	0	0
851968	0	0
868352	0	0
884736	0	0
901120	0	0
917504	0	0
933888	0	0
950272	0	0
966656	0	0
983040	0	0
999424	0	0
1015808	0	0
1032192	0	0
1048576	0	0
1081344	0	0
1114112	0	0
1146880	0	0
1179648	0	0
1212416	0	0
1245184	0	0
1277952	0	0
1310720	0	0
1343488	0	0
1376256	0	0
1409024	0	0
1441792	0	0
1474560	0	0
1507328	0	0
1540096	0	0
1572864	0	0
1605632	0	0
1638400	0	0
1671168	0	0
1703936	0	0
1736704	0	0
1769472	0	0
1802240	0	0
1835008	0	0
1867776	0	0
1900544	0	0
1933312	0	0
1966080	0	0
1998848	0	0
2031616	0	0
2064384	0	0
2097152	0	0
2162688	0	0
2228224	0	0
2293760	0	0
2359296	0	0
2424832	0	0
2490368	0	0
2555904	0	0
2621440	0	0
2686976	0	0
2752512	0	0
2818048	0	0
2883584	0	0
2949120	0	0
3014656	0	0
3080192	0	0
3145728	0	0
3211264	0	0
3276800	0	0
3342336	0	0
3407872	0	0
3473408	0	0
3538944	0	0
3604480	0	0
3670016	0	0
3735552	0	0
3801088	0	0
3866624	0	0
3932160	0	0
3997696	0	0
4063232	0	0
4128768	0	0
4194304	0	0
4325376	0	0
4456448	0	0
4587520	0	0
4718592	0	0
4849664	0	0
4980736	0	0
5111808	0	0
5242880	0	0
5373952	0	0
5505024	0	0
5636096	0	0
5767168	0	0
5898240	0	0
6029312	0	0
6160384	0	0
6291456	0	0
6422528	0	0
6553600	0	0
6684672	0	0
6815744	0	0
6946816	0	0
7077888	0	0
7208960	0	0
7340032	0	0
7471104	0	0
7602176	0	0
7733248	0	0
7864320	0	0
7995392	0	0
8126464	0	0
8257536	0	0
8388608	0	0
8650752	0	0
8912896	0	0
9175040	0	0
9437184	0	0
9699328	0	0
9961472	0	0
10223616	0	0
10485760	0	0
10747904	0	0
11010048	0	0
11272192	0	0
11534336	0	0
11796480	0	0
12058624	0	0
12320768	0	0
12582912	0	0
12845056	0	0
13107200	0	0
13369344	0	0
13631488	0	0
13893632	0	0
14155776	0	0
14417920	0	0
14680064	0	0
14942208	0	0
15204352	0	0
15466496	0	0
15728640	0	0
15990784	0	0
16252928	0	0
16515072	0	0
16777216	0	0
17301504	0	0
17825792	0	0
18350080	0	0
18874368	0	0
19398656	0	0
19922944	0	0
20447232	0	0
20971520	0	0
21495808	0	0
22020096	0	0
22544384	0	0
23068672	0	0
23592960	0	0
24117248	0	0
24641536	0	0
25165824	0	0
25690112	0	0
26214400	0	0
26738688	0	0
27262976	0	0
27787264	0	0
28311552	0	0
28835840	0	0
29360128	0	0
29884416	0	0
30408704	0	0
30932992	0	0
31457280	0	0
31981568	0	0
32505856	0	0
33030144	0	0
33554432	0	0
34603008	0	0
35651584	0	0
36700160	0	0
37748736	0	0
38797312	0	0
39845888	0	0
40894464	0	0
41943040	0	0
42991616	0	0
44040192	0	0
45088768	0	0
46137344	0	0
47185920	0	0
48234496	0	0
49283072	0	0
50331648	0	0
51380224	0	0
52428800	0	0
53477376	0	0
54525952	0	0
55574528	0	0
56623104	0	0
57671680	0	0
58720256	0	0
59768832	0	0
60817408	0	0
61865984	0	0
62914560	0	0
63963136	0	0
65011712	0	0
66060288	0	0
67108864	0	0
69206016	0	0
71303168	0	0
73400320	0	0
75497472	0	0
77594624	0	0
79691776	0	0
81788928	0	0
83886080	0	0
85983232	0	0
88080384	0	0
90177536	0	0
92274688	0	0
94371840	0	0
96468992	0	0
98566144	0	0
100663296	0	0
102760448	0	0
104857600	0	0
106954752	0	0
109051904	0	0
111149056	0	0
113246208	0	0
115343360	0	0
117440512	0	0
119537664	0	0
121634816	0	0
123731968	0	0
125829120	0	0
127926272	0	0
130023424	0	0
132120576	0	0
134217728	0	0
138412032	0	0
142606336	0	0
146800640	0	0
150994944	0	0
155189248	0	0
159383552	0	0
163577856	0	0
167772160	0	0
171966464	0	0
176160768	0	0
180355072	0	0
184549376	0	0
188743680	0	0
192937984	0	0
197132288	0	0
201326592	0	0
205520896	0	0
209715200	0	0
213909504	0	0
218103808	0	0
222298112	0	0
226492416	0	0
230686720	0	0
234881024	0	0
239075328	0	0
243269632	0	0
247463936	0	0
251658240	0	0
255852544	0	0
260046848	0	0
264241152	0	0
268435456	0	0
276824064	0	0
285212672	0	0
293601280	0	0
301989888	0	0
310378496	0	0
318767104	0	0
327155712	0	0
335544320	0	0
343932928	0	0
352321536	0	0
360710144	0	0
369098752	0	0
377487360	0	0
385875968	0	0
394264576	0	0
402653184	0	0
411041792	0	0
419430400	0	0
427819008	0	0
436207616	0	0
444596224	0	0
452984832	0	0
461373440	0	0
469762048	0	0
478150656	0	0
486539264	0	0
494927872	0	0
503316480	0	0
511705088	0	0
520093696	0	0
528482304	0	0
536870912	0	0
553648128	0	0
570425344	0	0
587202560	0	0
603979776	0	0
620756992	0	0
637534208	0	0
654311424	0	0
671088640	0	0
687865856	0	0
704643072	0	0
721420288	0	0
738197504	0	0
754974720	0	0
771751936	0	0
788529152	0	0
805306368	0	0
822083584	0	0
838860800	0	0
855638016	0	0
872415232	0	0
889192448	0	0
905969664	0	0
922746880	0	0
939524096	0	0
956301312	0	0
973078528	0	0
989855744	0	0
1006632960	0	0
1023410176	0	0
1040187392	0	0
1056964608	0	0
1073741824	0	0
1107296256	0	0
1140850688	0	0
1174405120	0	0
1207959552	0	0
1241513984	0	0
1275068416	0	0
1308622848	0	0
1342177280	0	0
1375731712	0	0
1409286144	0	0
1442840576	0	0
1476395008	0	0
1509949440	0	0
1543503872	0	0
1577058304	0	0
1610612736	0	0
1644167168	0	0
1677721600	0	0
1711276032	0	0
1744830464	0	0
1778384896	0	0
1811939328	0	0
1845493760	0	0
1879048192	0	0
1912602624	0	0
1946157056	0	0
1979711488	0	0
2013265920	0	0
2046820352	0	0
2080374784	0	0
2113929216	0	0
2147483648	0	0
2214592512	0	0
2281701376	0	0
2348810240	0	0
2415919104	0	0
2483027968	0	0
2550136832	0	0
2617245696	0	0
2684354560	0	0
2751463424	0	0
2818572288	0	0
2885681152	0	0
2952790016	0	0
3019898880	0	0
3087007744	0	0
3154116608	0	0
3221225472	0	0
3288334336	0	0
3355443200	0	0
3422552064	0	0
3489660928	0	0
3556769792	0	0
3623878656	0	0
3690987520	0	0
3758096384	0	0
3825205248	0	0
3892314112	0	0
3959422976	0	0
4026531840	0	0
4093640704	0	0
4160749568	0	0
4227858432	0	0
~~~~~~~~~~Reuse Distance Profiler output end~~~~~~~~~~

Sampler size:0

DRAM Statistics
 CHANNEL 0
 RQ ROW_BUFFER_HIT:      51287  ROW_BUFFER_MISS:   15108379
 DBUS AVG_CONGESTED_CYCLE:    3.98512
 WQ ROW_BUFFER_HIT:     445503  ROW_BUFFER_MISS:    6369877  FULL:          0


CPU 0 Branch Prediction Accuracy: 98.4286% MPKI: 0.237581 Average ROB Occupancy at Mispredict: 342.27
Branch type MPKI
BRANCH_DIRECT_JUMP: 1.13333e-05
BRANCH_INDIRECT: 1.33333e-06
BRANCH_CONDITIONAL: 0.237466
BRANCH_DIRECT_CALL: 5.46667e-05
BRANCH_INDIRECT_CALL: 0
BRANCH_RETURN: 4.8e-05

