
*** ChampSim Multicore Out-of-Order Simulator ***

Warmup Instructions: 50000000
Simulation Instructions: 1500000000
Number of CPUs: 1
Off-chip DRAM Size: 4 GiB Channels: 1 Width: 64-bit Data Rate: 3200 MT/s

VirtualMemory physical capacity: 8588881920 num_ppages: 2096895
VirtualMemory page size: 4096 log2_page_size: 12

CPU 0 runs /s/traces/champsim_traces/481.wrf-1281B.champsimtrace.xz
CPU 0 Bimodal branch predictor
Basic BTB sets: 1024 ways: 8 indirect buffer size: 4096 RAS size: 64
Initializing LRU.
Initializing LRU.
Initializing LRU.
Initializing LRU.
Initializing rdLRU.
Initializing LRU.
Initializing LRU.
Heartbeat CPU 0 instructions: 2000002 cycles: 876780 heartbeat IPC: 2.28108 cumulative IPC: 2.28108 (Simulation time: 0 hr 1 min 52 sec) 
Heartbeat CPU 0 instructions: 4000003 cycles: 1753460 heartbeat IPC: 2.28134 cumulative IPC: 2.28121 (Simulation time: 0 hr 3 min 49 sec) 
Heartbeat CPU 0 instructions: 6000002 cycles: 2630108 heartbeat IPC: 2.28142 cumulative IPC: 2.28128 (Simulation time: 0 hr 5 min 49 sec) 
Heartbeat CPU 0 instructions: 8000000 cycles: 3506789 heartbeat IPC: 2.28133 cumulative IPC: 2.28129 (Simulation time: 0 hr 7 min 47 sec) 
Heartbeat CPU 0 instructions: 10000001 cycles: 4303127 heartbeat IPC: 2.5115 cumulative IPC: 2.32389 (Simulation time: 0 hr 9 min 25 sec) 
Heartbeat CPU 0 instructions: 12000000 cycles: 4824316 heartbeat IPC: 3.83738 cumulative IPC: 2.4874 (Simulation time: 0 hr 10 min 28 sec) 
Heartbeat CPU 0 instructions: 14000002 cycles: 5331710 heartbeat IPC: 3.94171 cumulative IPC: 2.6258 (Simulation time: 0 hr 11 min 33 sec) 
Heartbeat CPU 0 instructions: 16000001 cycles: 5839098 heartbeat IPC: 3.94175 cumulative IPC: 2.74015 (Simulation time: 0 hr 12 min 41 sec) 
Heartbeat CPU 0 instructions: 18000001 cycles: 6422591 heartbeat IPC: 3.42763 cumulative IPC: 2.80261 (Simulation time: 0 hr 14 min 0 sec) 
Heartbeat CPU 0 instructions: 20000000 cycles: 7016075 heartbeat IPC: 3.36993 cumulative IPC: 2.8506 (Simulation time: 0 hr 15 min 16 sec) 
Heartbeat CPU 0 instructions: 22000004 cycles: 7609566 heartbeat IPC: 3.3699 cumulative IPC: 2.8911 (Simulation time: 0 hr 16 min 35 sec) 
Heartbeat CPU 0 instructions: 24000002 cycles: 8203061 heartbeat IPC: 3.36986 cumulative IPC: 2.92574 (Simulation time: 0 hr 17 min 56 sec) 
Heartbeat CPU 0 instructions: 26000003 cycles: 8796572 heartbeat IPC: 3.36978 cumulative IPC: 2.9557 (Simulation time: 0 hr 19 min 16 sec) 
Heartbeat CPU 0 instructions: 28000002 cycles: 9390094 heartbeat IPC: 3.36971 cumulative IPC: 2.98187 (Simulation time: 0 hr 20 min 36 sec) 
Heartbeat CPU 0 instructions: 30000000 cycles: 9983603 heartbeat IPC: 3.36979 cumulative IPC: 3.00493 (Simulation time: 0 hr 21 min 57 sec) 
Heartbeat CPU 0 instructions: 32000002 cycles: 10561092 heartbeat IPC: 3.46327 cumulative IPC: 3.02999 (Simulation time: 0 hr 23 min 12 sec) 
Heartbeat CPU 0 instructions: 34000003 cycles: 11100312 heartbeat IPC: 3.70906 cumulative IPC: 3.06298 (Simulation time: 0 hr 24 min 9 sec) 
Heartbeat CPU 0 instructions: 36000002 cycles: 11639530 heartbeat IPC: 3.70907 cumulative IPC: 3.09291 (Simulation time: 0 hr 25 min 14 sec) 
Heartbeat CPU 0 instructions: 38000000 cycles: 12178751 heartbeat IPC: 3.70905 cumulative IPC: 3.12019 (Simulation time: 0 hr 26 min 20 sec) 
Heartbeat CPU 0 instructions: 40000003 cycles: 12821735 heartbeat IPC: 3.1105 cumulative IPC: 3.1197 (Simulation time: 0 hr 27 min 40 sec) 
Heartbeat CPU 0 instructions: 42000001 cycles: 13467815 heartbeat IPC: 3.09559 cumulative IPC: 3.11855 (Simulation time: 0 hr 28 min 54 sec) 
Heartbeat CPU 0 instructions: 44000004 cycles: 14113898 heartbeat IPC: 3.09558 cumulative IPC: 3.11749 (Simulation time: 0 hr 30 min 15 sec) 
Heartbeat CPU 0 instructions: 46000000 cycles: 14759968 heartbeat IPC: 3.09563 cumulative IPC: 3.11654 (Simulation time: 0 hr 31 min 33 sec) 
Heartbeat CPU 0 instructions: 48000001 cycles: 15406047 heartbeat IPC: 3.0956 cumulative IPC: 3.11566 (Simulation time: 0 hr 32 min 49 sec) 
Heartbeat CPU 0 instructions: 50000003 cycles: 16033833 heartbeat IPC: 3.1858 cumulative IPC: 3.11841 (Simulation time: 0 hr 33 min 58 sec) 

Warmup complete CPU 0 instructions: 50000003 cycles: 16033833 (Simulation time: 0 hr 33 min 58 sec) 

Heartbeat CPU 0 instructions: 52000003 cycles: 18244823 heartbeat IPC: 0.904572 cumulative IPC: 0.904572 (Simulation time: 0 hr 36 min 36 sec) 

Region of Interest Statistics
cpu0_DTLB TOTAL     ACCESS:     261906  HIT:     261327  MISS:        579
cpu0_DTLB LOAD      ACCESS:     191295  HIT:     191005  MISS:        290
cpu0_DTLB RFO       ACCESS:      70611  HIT:      70322  MISS:        289
cpu0_DTLB PREFETCH  ACCESS:          0  HIT:          0  MISS:          0
cpu0_DTLB WRITEBACK ACCESS:          0  HIT:          0  MISS:          0
cpu0_ITLB TOTAL     ACCESS:     102216  HIT:     102216  MISS:          0
cpu0_ITLB LOAD      ACCESS:     102216  HIT:     102216  MISS:          0
cpu0_ITLB RFO       ACCESS:          0  HIT:          0  MISS:          0
cpu0_ITLB PREFETCH  ACCESS:          0  HIT:          0  MISS:          0
cpu0_ITLB WRITEBACK ACCESS:          0  HIT:          0  MISS:          0
cpu0_STLB TOTAL     ACCESS:        579  HIT:          0  MISS:        579
cpu0_STLB LOAD      ACCESS:        290  HIT:          0  MISS:        290
cpu0_STLB RFO       ACCESS:        289  HIT:          0  MISS:        289
cpu0_STLB PREFETCH  ACCESS:          0  HIT:          0  MISS:          0
cpu0_STLB WRITEBACK ACCESS:          0  HIT:          0  MISS:          0
cpu0_L1D TOTAL     ACCESS:      55682  HIT:      18683  MISS:      36999
cpu0_L1D LOAD      ACCESS:      31132  HIT:      12631  MISS:      18501
cpu0_L1D RFO       ACCESS:      23971  HIT:       5473  MISS:      18498
cpu0_L1D PREFETCH  ACCESS:          0  HIT:          0  MISS:          0
cpu0_L1D WRITEBACK ACCESS:          0  HIT:          0  MISS:          0
cpu0_L2C TOTAL     ACCESS:      55497  HIT:      18498  MISS:      36999
cpu0_L2C LOAD      ACCESS:      18501  HIT:          0  MISS:      18501
cpu0_L2C RFO       ACCESS:      18498  HIT:          0  MISS:      18498
cpu0_L2C PREFETCH  ACCESS:          0  HIT:          0  MISS:          0
cpu0_L2C WRITEBACK ACCESS:      18498  HIT:      18498  MISS:          0
LLC TOTAL     ACCESS:      56148  HIT:      19149  MISS:      36999
LLC LOAD      ACCESS:      18501  HIT:          0  MISS:      18501
LLC RFO       ACCESS:      18498  HIT:          0  MISS:      18498
LLC PREFETCH  ACCESS:          0  HIT:          0  MISS:          0
LLC WRITEBACK ACCESS:      19149  HIT:      19149  MISS:          0
Heartbeat CPU 0 instructions: 54000002 cycles: 20694239 heartbeat IPC: 0.816521 cumulative IPC: 0.858294 (Simulation time: 0 hr 39 min 25 sec) 

Region of Interest Statistics
cpu0_DTLB TOTAL     ACCESS:     639898  HIT:     638836  MISS:       1062
cpu0_DTLB LOAD      ACCESS:     496529  HIT:     495940  MISS:        589
cpu0_DTLB RFO       ACCESS:     143369  HIT:     142896  MISS:        473
cpu0_DTLB PREFETCH  ACCESS:          0  HIT:          0  MISS:          0
cpu0_DTLB WRITEBACK ACCESS:          0  HIT:          0  MISS:          0
cpu0_ITLB TOTAL     ACCESS:     154055  HIT:     154053  MISS:          2
cpu0_ITLB LOAD      ACCESS:     154055  HIT:     154053  MISS:          2
cpu0_ITLB RFO       ACCESS:          0  HIT:          0  MISS:          0
cpu0_ITLB PREFETCH  ACCESS:          0  HIT:          0  MISS:          0
cpu0_ITLB WRITEBACK ACCESS:          0  HIT:          0  MISS:          0
cpu0_L1I TOTAL     ACCESS:        201  HIT:        161  MISS:         40
cpu0_L1I LOAD      ACCESS:        201  HIT:        161  MISS:         40
cpu0_L1I RFO       ACCESS:          0  HIT:          0  MISS:          0
cpu0_L1I PREFETCH  ACCESS:          0  HIT:          0  MISS:          0
cpu0_L1I WRITEBACK ACCESS:          0  HIT:          0  MISS:          0
cpu0_STLB TOTAL     ACCESS:       1064  HIT:          0  MISS:       1064
cpu0_STLB LOAD      ACCESS:        591  HIT:          0  MISS:        591
cpu0_STLB RFO       ACCESS:        473  HIT:          0  MISS:        473
cpu0_STLB PREFETCH  ACCESS:          0  HIT:          0  MISS:          0
cpu0_STLB WRITEBACK ACCESS:          0  HIT:          0  MISS:          0
cpu0_L1D TOTAL     ACCESS:     303392  HIT:     236925  MISS:      66467
cpu0_L1D LOAD      ACCESS:     213899  HIT:     177429  MISS:      36470
cpu0_L1D RFO       ACCESS:      88432  HIT:      58445  MISS:      29987
cpu0_L1D PREFETCH  ACCESS:          0  HIT:          0  MISS:          0
cpu0_L1D WRITEBACK ACCESS:          0  HIT:          0  MISS:          0
cpu0_L2C TOTAL     ACCESS:      96674  HIT:      30188  MISS:      66486
cpu0_L2C LOAD      ACCESS:      36510  HIT:         24  MISS:      36486
cpu0_L2C RFO       ACCESS:      29987  HIT:          0  MISS:      29987
cpu0_L2C PREFETCH  ACCESS:          0  HIT:          0  MISS:          0
cpu0_L2C WRITEBACK ACCESS:      30167  HIT:      30164  MISS:          3
LLC TOTAL     ACCESS:      98697  HIT:      32212  MISS:      66485
LLC LOAD      ACCESS:      36486  HIT:          0  MISS:      36486
LLC RFO       ACCESS:      29987  HIT:          0  MISS:      29987
LLC PREFETCH  ACCESS:          0  HIT:          0  MISS:          0
LLC WRITEBACK ACCESS:      32214  HIT:      32211  MISS:          3
Heartbeat CPU 0 instructions: 56000001 cycles: 23165941 heartbeat IPC: 0.809159 cumulative IPC: 0.841266 (Simulation time: 0 hr 42 min 24 sec) 

Region of Interest Statistics
cpu0_DTLB TOTAL     ACCESS:    1094488  HIT:    1093034  MISS:       1454
cpu0_DTLB LOAD      ACCESS:     876932  HIT:     876062  MISS:        870
cpu0_DTLB RFO       ACCESS:     217556  HIT:     216972  MISS:        584
cpu0_DTLB PREFETCH  ACCESS:          0  HIT:          0  MISS:          0
cpu0_DTLB WRITEBACK ACCESS:          0  HIT:          0  MISS:          0
cpu0_ITLB TOTAL     ACCESS:     170945  HIT:     170943  MISS:          2
cpu0_ITLB LOAD      ACCESS:     170945  HIT:     170943  MISS:          2
cpu0_ITLB RFO       ACCESS:          0  HIT:          0  MISS:          0
cpu0_ITLB PREFETCH  ACCESS:          0  HIT:          0  MISS:          0
cpu0_ITLB WRITEBACK ACCESS:          0  HIT:          0  MISS:          0
cpu0_L1I TOTAL     ACCESS:        486  HIT:        446  MISS:         40
cpu0_L1I LOAD      ACCESS:        486  HIT:        446  MISS:         40
cpu0_L1I RFO       ACCESS:          0  HIT:          0  MISS:          0
cpu0_L1I PREFETCH  ACCESS:          0  HIT:          0  MISS:          0
cpu0_L1I WRITEBACK ACCESS:          0  HIT:          0  MISS:          0
cpu0_STLB TOTAL     ACCESS:       1456  HIT:          0  MISS:       1456
cpu0_STLB LOAD      ACCESS:        872  HIT:          0  MISS:        872
cpu0_STLB RFO       ACCESS:        584  HIT:          0  MISS:        584
cpu0_STLB PREFETCH  ACCESS:          0  HIT:          0  MISS:          0
cpu0_STLB WRITEBACK ACCESS:          0  HIT:          0  MISS:          0
cpu0_L1D TOTAL     ACCESS:     676717  HIT:     585801  MISS:      90916
cpu0_L1D LOAD      ACCESS:     495989  HIT:     441936  MISS:      54053
cpu0_L1D RFO       ACCESS:     179275  HIT:     142424  MISS:      36851
cpu0_L1D PREFETCH  ACCESS:          0  HIT:          0  MISS:          0
cpu0_L1D WRITEBACK ACCESS:          0  HIT:          0  MISS:          0
cpu0_L2C TOTAL     ACCESS:     127988  HIT:      37098  MISS:      90890
cpu0_L2C LOAD      ACCESS:      54093  HIT:         69  MISS:      54024
cpu0_L2C RFO       ACCESS:      36851  HIT:          0  MISS:      36851
cpu0_L2C PREFETCH  ACCESS:          0  HIT:          0  MISS:          0
cpu0_L2C WRITEBACK ACCESS:      37032  HIT:      37029  MISS:          3
LLC TOTAL     ACCESS:     129873  HIT:      38984  MISS:      90889
LLC LOAD      ACCESS:      54024  HIT:          0  MISS:      54024
LLC RFO       ACCESS:      36851  HIT:          0  MISS:      36851
LLC PREFETCH  ACCESS:          0  HIT:          0  MISS:          0
LLC WRITEBACK ACCESS:      38986  HIT:      38983  MISS:          3
Heartbeat CPU 0 instructions: 58000001 cycles: 25604702 heartbeat IPC: 0.820089 cumulative IPC: 0.83587 (Simulation time: 0 hr 45 min 15 sec) 

Region of Interest Statistics
cpu0_DTLB TOTAL     ACCESS:    1549130  HIT:    1547282  MISS:       1848
cpu0_DTLB LOAD      ACCESS:    1257389  HIT:    1256236  MISS:       1153
cpu0_DTLB RFO       ACCESS:     291741  HIT:     291046  MISS:        695
cpu0_DTLB PREFETCH  ACCESS:          0  HIT:          0  MISS:          0
cpu0_DTLB WRITEBACK ACCESS:          0  HIT:          0  MISS:          0
cpu0_ITLB TOTAL     ACCESS:     187770  HIT:     187768  MISS:          2
cpu0_ITLB LOAD      ACCESS:     187770  HIT:     187768  MISS:          2
cpu0_ITLB RFO       ACCESS:          0  HIT:          0  MISS:          0
cpu0_ITLB PREFETCH  ACCESS:          0  HIT:          0  MISS:          0
cpu0_ITLB WRITEBACK ACCESS:          0  HIT:          0  MISS:          0
cpu0_L1I TOTAL     ACCESS:        771  HIT:        731  MISS:         40
cpu0_L1I LOAD      ACCESS:        771  HIT:        731  MISS:         40
cpu0_L1I RFO       ACCESS:          0  HIT:          0  MISS:          0
cpu0_L1I PREFETCH  ACCESS:          0  HIT:          0  MISS:          0
cpu0_L1I WRITEBACK ACCESS:          0  HIT:          0  MISS:          0
cpu0_STLB TOTAL     ACCESS:       1850  HIT:          0  MISS:       1850
cpu0_STLB LOAD      ACCESS:       1155  HIT:          0  MISS:       1155
cpu0_STLB RFO       ACCESS:        695  HIT:          0  MISS:        695
cpu0_STLB PREFETCH  ACCESS:          0  HIT:          0  MISS:          0
cpu0_STLB WRITEBACK ACCESS:          0  HIT:          0  MISS:          0
cpu0_L1D TOTAL     ACCESS:    1049990  HIT:     934626  MISS:     115364
cpu0_L1D LOAD      ACCESS:     777957  HIT:     706322  MISS:      71635
cpu0_L1D RFO       ACCESS:     270186  HIT:     226471  MISS:      43715
cpu0_L1D PREFETCH  ACCESS:          0  HIT:          0  MISS:          0
cpu0_L1D WRITEBACK ACCESS:          0  HIT:          0  MISS:          0
cpu0_L2C TOTAL     ACCESS:     159301  HIT:      44007  MISS:     115294
cpu0_L2C LOAD      ACCESS:      71675  HIT:        113  MISS:      71562
cpu0_L2C RFO       ACCESS:      43715  HIT:          0  MISS:      43715
cpu0_L2C PREFETCH  ACCESS:          0  HIT:          0  MISS:          0
cpu0_L2C WRITEBACK ACCESS:      43897  HIT:      43894  MISS:          3
LLC TOTAL     ACCESS:     161179  HIT:      45886  MISS:     115293
LLC LOAD      ACCESS:      71562  HIT:          0  MISS:      71562
LLC RFO       ACCESS:      43715  HIT:          0  MISS:      43715
LLC PREFETCH  ACCESS:          0  HIT:          0  MISS:          0
LLC WRITEBACK ACCESS:      45888  HIT:      45885  MISS:          3
Heartbeat CPU 0 instructions: 60000004 cycles: 28084720 heartbeat IPC: 0.806447 cumulative IPC: 0.829814 (Simulation time: 0 hr 48 min 12 sec) 

Region of Interest Statistics
cpu0_DTLB TOTAL     ACCESS:    2003867  HIT:    2001629  MISS:       2238
cpu0_DTLB LOAD      ACCESS:    1637958  HIT:    1636526  MISS:       1432
cpu0_DTLB RFO       ACCESS:     365909  HIT:     365103  MISS:        806
cpu0_DTLB PREFETCH  ACCESS:          0  HIT:          0  MISS:          0
cpu0_DTLB WRITEBACK ACCESS:          0  HIT:          0  MISS:          0
cpu0_ITLB TOTAL     ACCESS:     204657  HIT:     204655  MISS:          2
cpu0_ITLB LOAD      ACCESS:     204657  HIT:     204655  MISS:          2
cpu0_ITLB RFO       ACCESS:          0  HIT:          0  MISS:          0
cpu0_ITLB PREFETCH  ACCESS:          0  HIT:          0  MISS:          0
cpu0_ITLB WRITEBACK ACCESS:          0  HIT:          0  MISS:          0
cpu0_L1I TOTAL     ACCESS:       1037  HIT:        997  MISS:         40
cpu0_L1I LOAD      ACCESS:       1037  HIT:        997  MISS:         40
cpu0_L1I RFO       ACCESS:          0  HIT:          0  MISS:          0
cpu0_L1I PREFETCH  ACCESS:          0  HIT:          0  MISS:          0
cpu0_L1I WRITEBACK ACCESS:          0  HIT:          0  MISS:          0
cpu0_STLB TOTAL     ACCESS:       2240  HIT:          0  MISS:       2240
cpu0_STLB LOAD      ACCESS:       1434  HIT:          0  MISS:       1434
cpu0_STLB RFO       ACCESS:        806  HIT:          0  MISS:        806
cpu0_STLB PREFETCH  ACCESS:          0  HIT:          0  MISS:          0
cpu0_STLB WRITEBACK ACCESS:          0  HIT:          0  MISS:          0
cpu0_L1D TOTAL     ACCESS:    1424213  HIT:    1284426  MISS:     139787
cpu0_L1D LOAD      ACCESS:    1060389  HIT:     971197  MISS:      89192
cpu0_L1D RFO       ACCESS:     361587  HIT:     311008  MISS:      50579
cpu0_L1D PREFETCH  ACCESS:          0  HIT:          0  MISS:          0
cpu0_L1D WRITEBACK ACCESS:          0  HIT:          0  MISS:          0
cpu0_L2C TOTAL     ACCESS:     190588  HIT:      50914  MISS:     139674
cpu0_L2C LOAD      ACCESS:      89232  HIT:        156  MISS:      89076
cpu0_L2C RFO       ACCESS:      50579  HIT:          0  MISS:      50579
cpu0_L2C PREFETCH  ACCESS:          0  HIT:          0  MISS:          0
cpu0_L2C WRITEBACK ACCESS:      50761  HIT:      50758  MISS:          3
LLC TOTAL     ACCESS:     192375  HIT:      52702  MISS:     139673
LLC LOAD      ACCESS:      89076  HIT:          0  MISS:      89076
LLC RFO       ACCESS:      50579  HIT:          0  MISS:      50579
LLC PREFETCH  ACCESS:          0  HIT:          0  MISS:          0
LLC WRITEBACK ACCESS:      52704  HIT:      52701  MISS:          3
Heartbeat CPU 0 instructions: 62000003 cycles: 30526569 heartbeat IPC: 0.819051 cumulative IPC: 0.828001 (Simulation time: 0 hr 51 min 1 sec) 

Region of Interest Statistics
cpu0_DTLB TOTAL     ACCESS:    2458467  HIT:    2455836  MISS:       2631
cpu0_DTLB LOAD      ACCESS:    2018373  HIT:    2016659  MISS:       1714
cpu0_DTLB RFO       ACCESS:     440094  HIT:     439177  MISS:        917
cpu0_DTLB PREFETCH  ACCESS:          0  HIT:          0  MISS:          0
cpu0_DTLB WRITEBACK ACCESS:          0  HIT:          0  MISS:          0
cpu0_ITLB TOTAL     ACCESS:     221530  HIT:     221528  MISS:          2
cpu0_ITLB LOAD      ACCESS:     221530  HIT:     221528  MISS:          2
cpu0_ITLB RFO       ACCESS:          0  HIT:          0  MISS:          0
cpu0_ITLB PREFETCH  ACCESS:          0  HIT:          0  MISS:          0
cpu0_ITLB WRITEBACK ACCESS:          0  HIT:          0  MISS:          0
cpu0_L1I TOTAL     ACCESS:       1322  HIT:       1282  MISS:         40
cpu0_L1I LOAD      ACCESS:       1322  HIT:       1282  MISS:         40
cpu0_L1I RFO       ACCESS:          0  HIT:          0  MISS:          0
cpu0_L1I PREFETCH  ACCESS:          0  HIT:          0  MISS:          0
cpu0_L1I WRITEBACK ACCESS:          0  HIT:          0  MISS:          0
cpu0_STLB TOTAL     ACCESS:       2633  HIT:          0  MISS:       2633
cpu0_STLB LOAD      ACCESS:       1716  HIT:          0  MISS:       1716
cpu0_STLB RFO       ACCESS:        917  HIT:          0  MISS:        917
cpu0_STLB PREFETCH  ACCESS:          0  HIT:          0  MISS:          0
cpu0_STLB WRITEBACK ACCESS:          0  HIT:          0  MISS:          0
cpu0_L1D TOTAL     ACCESS:    1797401  HIT:    1633163  MISS:     164238
cpu0_L1D LOAD      ACCESS:    1342288  HIT:    1235511  MISS:     106777
cpu0_L1D RFO       ACCESS:     452483  HIT:     395040  MISS:      57443
cpu0_L1D PREFETCH  ACCESS:          0  HIT:          0  MISS:          0
cpu0_L1D WRITEBACK ACCESS:          0  HIT:          0  MISS:          0
cpu0_L2C TOTAL     ACCESS:     221899  HIT:      57819  MISS:     164080
cpu0_L2C LOAD      ACCESS:     106817  HIT:        201  MISS:     106616
cpu0_L2C RFO       ACCESS:      57443  HIT:          0  MISS:      57443
cpu0_L2C PREFETCH  ACCESS:          0  HIT:          0  MISS:          0
cpu0_L2C WRITEBACK ACCESS:      57621  HIT:      57618  MISS:          3
LLC TOTAL     ACCESS:     223605  HIT:      59527  MISS:     164078
LLC LOAD      ACCESS:     106616  HIT:          0  MISS:     106616
LLC RFO       ACCESS:      57443  HIT:          0  MISS:      57443
LLC PREFETCH  ACCESS:          0  HIT:          0  MISS:          0
LLC WRITEBACK ACCESS:      59528  HIT:      59525  MISS:          3
Heartbeat CPU 0 instructions: 64000002 cycles: 32981778 heartbeat IPC: 0.814594 cumulative IPC: 0.826059 (Simulation time: 0 hr 53 min 52 sec) 

Region of Interest Statistics
cpu0_DTLB TOTAL     ACCESS:    2913070  HIT:    2910047  MISS:       3023
cpu0_DTLB LOAD      ACCESS:    2398810  HIT:    2396815  MISS:       1995
cpu0_DTLB RFO       ACCESS:     514260  HIT:     513232  MISS:       1028
cpu0_DTLB PREFETCH  ACCESS:          0  HIT:          0  MISS:          0
cpu0_DTLB WRITEBACK ACCESS:          0  HIT:          0  MISS:          0
cpu0_ITLB TOTAL     ACCESS:     238399  HIT:     238397  MISS:          2
cpu0_ITLB LOAD      ACCESS:     238399  HIT:     238397  MISS:          2
cpu0_ITLB RFO       ACCESS:          0  HIT:          0  MISS:          0
cpu0_ITLB PREFETCH  ACCESS:          0  HIT:          0  MISS:          0
cpu0_ITLB WRITEBACK ACCESS:          0  HIT:          0  MISS:          0
cpu0_L1I TOTAL     ACCESS:       1607  HIT:       1567  MISS:         40
cpu0_L1I LOAD      ACCESS:       1607  HIT:       1567  MISS:         40
cpu0_L1I RFO       ACCESS:          0  HIT:          0  MISS:          0
cpu0_L1I PREFETCH  ACCESS:          0  HIT:          0  MISS:          0
cpu0_L1I WRITEBACK ACCESS:          0  HIT:          0  MISS:          0
cpu0_STLB TOTAL     ACCESS:       3025  HIT:          0  MISS:       3025
cpu0_STLB LOAD      ACCESS:       1997  HIT:          0  MISS:       1997
cpu0_STLB RFO       ACCESS:       1028  HIT:          0  MISS:       1028
cpu0_STLB PREFETCH  ACCESS:          0  HIT:          0  MISS:          0
cpu0_STLB WRITEBACK ACCESS:          0  HIT:          0  MISS:          0
cpu0_L1D TOTAL     ACCESS:    2170929  HIT:    1982243  MISS:     188686
cpu0_L1D LOAD      ACCESS:    1624434  HIT:    1500075  MISS:     124359
cpu0_L1D RFO       ACCESS:     543473  HIT:     479166  MISS:      64307
cpu0_L1D PREFETCH  ACCESS:          0  HIT:          0  MISS:          0
cpu0_L1D WRITEBACK ACCESS:          0  HIT:          0  MISS:          0
cpu0_L2C TOTAL     ACCESS:     253215  HIT:      64731  MISS:     188484
cpu0_L2C LOAD      ACCESS:     124399  HIT:        245  MISS:     124154
cpu0_L2C RFO       ACCESS:      64307  HIT:          0  MISS:      64307
cpu0_L2C PREFETCH  ACCESS:          0  HIT:          0  MISS:          0
cpu0_L2C WRITEBACK ACCESS:      64489  HIT:      64486  MISS:          3
LLC TOTAL     ACCESS:     254655  HIT:      66174  MISS:     188481
LLC LOAD      ACCESS:     124154  HIT:          0  MISS:     124154
LLC RFO       ACCESS:      64307  HIT:          0  MISS:      64307
LLC PREFETCH  ACCESS:          0  HIT:          0  MISS:          0
LLC WRITEBACK ACCESS:      66174  HIT:      66171  MISS:          3
Heartbeat CPU 0 instructions: 66000001 cycles: 35426650 heartbeat IPC: 0.818038 cumulative IPC: 0.825048 (Simulation time: 0 hr 56 min 47 sec) 

Region of Interest Statistics
cpu0_DTLB TOTAL     ACCESS:    3367579  HIT:    3364163  MISS:       3416
cpu0_DTLB LOAD      ACCESS:    2779136  HIT:    2776859  MISS:       2277
cpu0_DTLB RFO       ACCESS:     588443  HIT:     587304  MISS:       1139
cpu0_DTLB PREFETCH  ACCESS:          0  HIT:          0  MISS:          0
cpu0_DTLB WRITEBACK ACCESS:          0  HIT:          0  MISS:          0
cpu0_ITLB TOTAL     ACCESS:     255288  HIT:     255286  MISS:          2
cpu0_ITLB LOAD      ACCESS:     255288  HIT:     255286  MISS:          2
cpu0_ITLB RFO       ACCESS:          0  HIT:          0  MISS:          0
cpu0_ITLB PREFETCH  ACCESS:          0  HIT:          0  MISS:          0
cpu0_ITLB WRITEBACK ACCESS:          0  HIT:          0  MISS:          0
cpu0_L1I TOTAL     ACCESS:       1892  HIT:       1852  MISS:         40
cpu0_L1I LOAD      ACCESS:       1892  HIT:       1852  MISS:         40
cpu0_L1I RFO       ACCESS:          0  HIT:          0  MISS:          0
cpu0_L1I PREFETCH  ACCESS:          0  HIT:          0  MISS:          0
cpu0_L1I WRITEBACK ACCESS:          0  HIT:          0  MISS:          0
cpu0_STLB TOTAL     ACCESS:       3418  HIT:          0  MISS:       3418
cpu0_STLB LOAD      ACCESS:       2279  HIT:          0  MISS:       2279
cpu0_STLB RFO       ACCESS:       1139  HIT:          0  MISS:       1139
cpu0_STLB PREFETCH  ACCESS:          0  HIT:          0  MISS:          0
cpu0_STLB WRITEBACK ACCESS:          0  HIT:          0  MISS:          0
cpu0_L1D TOTAL     ACCESS:    2544179  HIT:    2331044  MISS:     213135
cpu0_L1D LOAD      ACCESS:    1906298  HIT:    1764356  MISS:     141942
cpu0_L1D RFO       ACCESS:     634466  HIT:     563295  MISS:      71171
cpu0_L1D PREFETCH  ACCESS:          0  HIT:          0  MISS:          0
cpu0_L1D WRITEBACK ACCESS:          0  HIT:          0  MISS:          0
cpu0_L2C TOTAL     ACCESS:     284533  HIT:      71646  MISS:     212887
cpu0_L2C LOAD      ACCESS:     141982  HIT:        290  MISS:     141692
cpu0_L2C RFO       ACCESS:      71171  HIT:          0  MISS:      71171
cpu0_L2C PREFETCH  ACCESS:          0  HIT:          0  MISS:          0
cpu0_L2C WRITEBACK ACCESS:      71358  HIT:      71355  MISS:          3
LLC TOTAL     ACCESS:     286216  HIT:      73332  MISS:     212884
LLC LOAD      ACCESS:     141692  HIT:          0  MISS:     141692
LLC RFO       ACCESS:      71171  HIT:          0  MISS:      71171
LLC PREFETCH  ACCESS:          0  HIT:          0  MISS:          0
LLC WRITEBACK ACCESS:      73332  HIT:      73329  MISS:          3
Heartbeat CPU 0 instructions: 68000004 cycles: 37893792 heartbeat IPC: 0.810656 cumulative IPC: 0.823423 (Simulation time: 0 hr 59 min 48 sec) 

Region of Interest Statistics
cpu0_DTLB TOTAL     ACCESS:    3822216  HIT:    3818408  MISS:       3808
cpu0_DTLB LOAD      ACCESS:    3159581  HIT:    3157023  MISS:       2558
cpu0_DTLB RFO       ACCESS:     662635  HIT:     661385  MISS:       1250
cpu0_DTLB PREFETCH  ACCESS:          0  HIT:          0  MISS:          0
cpu0_DTLB WRITEBACK ACCESS:          0  HIT:          0  MISS:          0
cpu0_ITLB TOTAL     ACCESS:     272186  HIT:     272184  MISS:          2
cpu0_ITLB LOAD      ACCESS:     272186  HIT:     272184  MISS:          2
cpu0_ITLB RFO       ACCESS:          0  HIT:          0  MISS:          0
cpu0_ITLB PREFETCH  ACCESS:          0  HIT:          0  MISS:          0
cpu0_ITLB WRITEBACK ACCESS:          0  HIT:          0  MISS:          0
cpu0_L1I TOTAL     ACCESS:       2158  HIT:       2118  MISS:         40
cpu0_L1I LOAD      ACCESS:       2158  HIT:       2118  MISS:         40
cpu0_L1I RFO       ACCESS:          0  HIT:          0  MISS:          0
cpu0_L1I PREFETCH  ACCESS:          0  HIT:          0  MISS:          0
cpu0_L1I WRITEBACK ACCESS:          0  HIT:          0  MISS:          0
cpu0_STLB TOTAL     ACCESS:       3810  HIT:          0  MISS:       3810
cpu0_STLB LOAD      ACCESS:       2560  HIT:          0  MISS:       2560
cpu0_STLB RFO       ACCESS:       1250  HIT:          0  MISS:       1250
cpu0_STLB PREFETCH  ACCESS:          0  HIT:          0  MISS:          0
cpu0_STLB WRITEBACK ACCESS:          0  HIT:          0  MISS:          0
cpu0_L1D TOTAL     ACCESS:    2918018  HIT:    2680460  MISS:     237558
cpu0_L1D LOAD      ACCESS:    2188566  HIT:    2029067  MISS:     159499
cpu0_L1D RFO       ACCESS:     725645  HIT:     647610  MISS:      78035
cpu0_L1D PREFETCH  ACCESS:          0  HIT:          0  MISS:          0
cpu0_L1D WRITEBACK ACCESS:          0  HIT:          0  MISS:          0
cpu0_L2C TOTAL     ACCESS:     315819  HIT:      78553  MISS:     237266
cpu0_L2C LOAD      ACCESS:     159539  HIT:        333  MISS:     159206
cpu0_L2C RFO       ACCESS:      78035  HIT:          0  MISS:      78035
cpu0_L2C PREFETCH  ACCESS:          0  HIT:          0  MISS:          0
cpu0_L2C WRITEBACK ACCESS:      78221  HIT:      78218  MISS:          3
LLC TOTAL     ACCESS:     317065  HIT:      79802  MISS:     237263
LLC LOAD      ACCESS:     159206  HIT:          0  MISS:     159206
LLC RFO       ACCESS:      78035  HIT:          0  MISS:      78035
LLC PREFETCH  ACCESS:          0  HIT:          0  MISS:          0
LLC WRITEBACK ACCESS:      79802  HIT:      79799  MISS:          3
Heartbeat CPU 0 instructions: 70000003 cycles: 40258759 heartbeat IPC: 0.845677 cumulative IPC: 0.825596 (Simulation time: 1 hr 2 min 35 sec) 

Region of Interest Statistics
cpu0_DTLB TOTAL     ACCESS:    4246175  HIT:    4241939  MISS:       4236
cpu0_DTLB LOAD      ACCESS:    3510155  HIT:    3507312  MISS:       2843
cpu0_DTLB RFO       ACCESS:     736020  HIT:     734627  MISS:       1393
cpu0_DTLB PREFETCH  ACCESS:          0  HIT:          0  MISS:          0
cpu0_DTLB WRITEBACK ACCESS:          0  HIT:          0  MISS:          0
cpu0_ITLB TOTAL     ACCESS:     306065  HIT:     306063  MISS:          2
cpu0_ITLB LOAD      ACCESS:     306065  HIT:     306063  MISS:          2
cpu0_ITLB RFO       ACCESS:          0  HIT:          0  MISS:          0
cpu0_ITLB PREFETCH  ACCESS:          0  HIT:          0  MISS:          0
cpu0_ITLB WRITEBACK ACCESS:          0  HIT:          0  MISS:          0
cpu0_L1I TOTAL     ACCESS:       2397  HIT:       2351  MISS:         46
cpu0_L1I LOAD      ACCESS:       2397  HIT:       2351  MISS:         46
cpu0_L1I RFO       ACCESS:          0  HIT:          0  MISS:          0
cpu0_L1I PREFETCH  ACCESS:          0  HIT:          0  MISS:          0
cpu0_L1I WRITEBACK ACCESS:          0  HIT:          0  MISS:          0
cpu0_STLB TOTAL     ACCESS:       4238  HIT:          0  MISS:       4238
cpu0_STLB LOAD      ACCESS:       2845  HIT:          0  MISS:       2845
cpu0_STLB RFO       ACCESS:       1393  HIT:          0  MISS:       1393
cpu0_STLB PREFETCH  ACCESS:          0  HIT:          0  MISS:          0
cpu0_STLB WRITEBACK ACCESS:          0  HIT:          0  MISS:          0
cpu0_L1D TOTAL     ACCESS:    3237947  HIT:    2973857  MISS:     264090
cpu0_L1D LOAD      ACCESS:    2429154  HIT:    2251928  MISS:     177226
cpu0_L1D RFO       ACCESS:     804558  HIT:     717720  MISS:      86838
cpu0_L1D PREFETCH  ACCESS:          0  HIT:          0  MISS:          0
cpu0_L1D WRITEBACK ACCESS:          0  HIT:          0  MISS:          0
cpu0_L2C TOTAL     ACCESS:     350975  HIT:      87205  MISS:     263770
cpu0_L2C LOAD      ACCESS:     177272  HIT:        370  MISS:     176902
cpu0_L2C RFO       ACCESS:      86838  HIT:          0  MISS:      86838
cpu0_L2C PREFETCH  ACCESS:          0  HIT:          0  MISS:          0
cpu0_L2C WRITEBACK ACCESS:      86839  HIT:      86833  MISS:          6
LLC TOTAL     ACCESS:     351583  HIT:      87820  MISS:     263763
LLC LOAD      ACCESS:     176902  HIT:          0  MISS:     176902
LLC RFO       ACCESS:      86838  HIT:          0  MISS:      86838
LLC PREFETCH  ACCESS:          0  HIT:          0  MISS:          0
LLC WRITEBACK ACCESS:      87819  HIT:      87816  MISS:          3
Heartbeat CPU 0 instructions: 72000002 cycles: 42250129 heartbeat IPC: 1.00433 cumulative IPC: 0.839173 (Simulation time: 1 hr 4 min 56 sec) 

Region of Interest Statistics
cpu0_DTLB TOTAL     ACCESS:    4517717  HIT:    4512881  MISS:       4836
cpu0_DTLB LOAD      ACCESS:    3712005  HIT:    3708862  MISS:       3143
cpu0_DTLB RFO       ACCESS:     805712  HIT:     804019  MISS:       1693
cpu0_DTLB PREFETCH  ACCESS:          0  HIT:          0  MISS:          0
cpu0_DTLB WRITEBACK ACCESS:          0  HIT:          0  MISS:          0
cpu0_ITLB TOTAL     ACCESS:     428936  HIT:     428934  MISS:          2
cpu0_ITLB LOAD      ACCESS:     428936  HIT:     428934  MISS:          2
cpu0_ITLB RFO       ACCESS:          0  HIT:          0  MISS:          0
cpu0_ITLB PREFETCH  ACCESS:          0  HIT:          0  MISS:          0
cpu0_ITLB WRITEBACK ACCESS:          0  HIT:          0  MISS:          0
cpu0_L1I TOTAL     ACCESS:       2397  HIT:       2351  MISS:         46
cpu0_L1I LOAD      ACCESS:       2397  HIT:       2351  MISS:         46
cpu0_L1I RFO       ACCESS:          0  HIT:          0  MISS:          0
cpu0_L1I PREFETCH  ACCESS:          0  HIT:          0  MISS:          0
cpu0_L1I WRITEBACK ACCESS:          0  HIT:          0  MISS:          0
cpu0_STLB TOTAL     ACCESS:       4838  HIT:         23  MISS:       4815
cpu0_STLB LOAD      ACCESS:       3145  HIT:         23  MISS:       3122
cpu0_STLB RFO       ACCESS:       1693  HIT:          0  MISS:       1693
cpu0_STLB PREFETCH  ACCESS:          0  HIT:          0  MISS:          0
cpu0_STLB WRITEBACK ACCESS:          0  HIT:          0  MISS:          0
cpu0_L1D TOTAL     ACCESS:    3288291  HIT:    2987101  MISS:     301190
cpu0_L1D LOAD      ACCESS:    2460371  HIT:    2264596  MISS:     195775
cpu0_L1D RFO       ACCESS:     823108  HIT:     717720  MISS:     105388
cpu0_L1D PREFETCH  ACCESS:          0  HIT:          0  MISS:          0
cpu0_L1D WRITEBACK ACCESS:          0  HIT:          0  MISS:          0
cpu0_L2C TOTAL     ACCESS:     406623  HIT:     105753  MISS:     300870
cpu0_L2C LOAD      ACCESS:     195821  HIT:        370  MISS:     195451
cpu0_L2C RFO       ACCESS:     105388  HIT:          0  MISS:     105388
cpu0_L2C PREFETCH  ACCESS:          0  HIT:          0  MISS:          0
cpu0_L2C WRITEBACK ACCESS:     105387  HIT:     105381  MISS:          6
LLC TOTAL     ACCESS:     406530  HIT:     105663  MISS:     300867
LLC LOAD      ACCESS:     195451  HIT:          0  MISS:     195451
LLC RFO       ACCESS:     105388  HIT:          0  MISS:     105388
LLC PREFETCH  ACCESS:          0  HIT:          0  MISS:          0
LLC WRITEBACK ACCESS:     105666  HIT:     105659  MISS:          7
Heartbeat CPU 0 instructions: 74000002 cycles: 43795977 heartbeat IPC: 1.29379 cumulative IPC: 0.864487 (Simulation time: 1 hr 6 min 51 sec) 

Region of Interest Statistics
cpu0_DTLB TOTAL     ACCESS:    4872707  HIT:    4867467  MISS:       5240
cpu0_DTLB LOAD      ACCESS:    3986737  HIT:    3983397  MISS:       3340
cpu0_DTLB RFO       ACCESS:     885970  HIT:     884070  MISS:       1900
cpu0_DTLB PREFETCH  ACCESS:          0  HIT:          0  MISS:          0
cpu0_DTLB WRITEBACK ACCESS:          0  HIT:          0  MISS:          0
cpu0_ITLB TOTAL     ACCESS:     499263  HIT:     499256  MISS:          7
cpu0_ITLB LOAD      ACCESS:     499263  HIT:     499256  MISS:          7
cpu0_ITLB RFO       ACCESS:          0  HIT:          0  MISS:          0
cpu0_ITLB PREFETCH  ACCESS:          0  HIT:          0  MISS:          0
cpu0_ITLB WRITEBACK ACCESS:          0  HIT:          0  MISS:          0
cpu0_L1I TOTAL     ACCESS:       2815  HIT:       2688  MISS:        127
cpu0_L1I LOAD      ACCESS:       2815  HIT:       2688  MISS:        127
cpu0_L1I RFO       ACCESS:          0  HIT:          0  MISS:          0
cpu0_L1I PREFETCH  ACCESS:          0  HIT:          0  MISS:          0
cpu0_L1I WRITEBACK ACCESS:          0  HIT:          0  MISS:          0
cpu0_STLB TOTAL     ACCESS:       5247  HIT:        144  MISS:       5103
cpu0_STLB LOAD      ACCESS:       3347  HIT:        144  MISS:       3203
cpu0_STLB RFO       ACCESS:       1900  HIT:          0  MISS:       1900
cpu0_STLB PREFETCH  ACCESS:          0  HIT:          0  MISS:          0
cpu0_STLB WRITEBACK ACCESS:          0  HIT:          0  MISS:          0
cpu0_L1D TOTAL     ACCESS:    3484078  HIT:    3155624  MISS:     328454
cpu0_L1D LOAD      ACCESS:    2630507  HIT:    2420025  MISS:     210482
cpu0_L1D RFO       ACCESS:     848473  HIT:     730545  MISS:     117928
cpu0_L1D PREFETCH  ACCESS:          0  HIT:          0  MISS:          0
cpu0_L1D WRITEBACK ACCESS:          0  HIT:          0  MISS:          0
cpu0_L2C TOTAL     ACCESS:     446591  HIT:     122027  MISS:     324564
cpu0_L2C LOAD      ACCESS:     210609  HIT:       4015  MISS:     206594
cpu0_L2C RFO       ACCESS:     117928  HIT:          0  MISS:     117928
cpu0_L2C PREFETCH  ACCESS:          0  HIT:          0  MISS:          0
cpu0_L2C WRITEBACK ACCESS:     118010  HIT:     118002  MISS:          8
LLC TOTAL     ACCESS:     442213  HIT:     117654  MISS:     324559
LLC LOAD      ACCESS:     206594  HIT:          0  MISS:     206594
LLC RFO       ACCESS:     117928  HIT:          0  MISS:     117928
LLC PREFETCH  ACCESS:          0  HIT:          0  MISS:          0
LLC WRITEBACK ACCESS:     117657  HIT:     117650  MISS:          7
Heartbeat CPU 0 instructions: 76000001 cycles: 44934726 heartbeat IPC: 1.75631 cumulative IPC: 0.899626 (Simulation time: 1 hr 8 min 28 sec) 

Region of Interest Statistics
cpu0_DTLB TOTAL     ACCESS:    5286271  HIT:    5280802  MISS:       5469
cpu0_DTLB LOAD      ACCESS:    4312266  HIT:    4308833  MISS:       3433
cpu0_DTLB RFO       ACCESS:     974005  HIT:     971969  MISS:       2036
cpu0_DTLB PREFETCH  ACCESS:          0  HIT:          0  MISS:          0
cpu0_DTLB WRITEBACK ACCESS:          0  HIT:          0  MISS:          0
cpu0_ITLB TOTAL     ACCESS:     534142  HIT:     534135  MISS:          7
cpu0_ITLB LOAD      ACCESS:     534142  HIT:     534135  MISS:          7
cpu0_ITLB RFO       ACCESS:          0  HIT:          0  MISS:          0
cpu0_ITLB PREFETCH  ACCESS:          0  HIT:          0  MISS:          0
cpu0_ITLB WRITEBACK ACCESS:          0  HIT:          0  MISS:          0
cpu0_L1I TOTAL     ACCESS:       3382  HIT:       3255  MISS:        127
cpu0_L1I LOAD      ACCESS:       3382  HIT:       3255  MISS:        127
cpu0_L1I RFO       ACCESS:          0  HIT:          0  MISS:          0
cpu0_L1I PREFETCH  ACCESS:          0  HIT:          0  MISS:          0
cpu0_L1I WRITEBACK ACCESS:          0  HIT:          0  MISS:          0
cpu0_STLB TOTAL     ACCESS:       5476  HIT:        144  MISS:       5332
cpu0_STLB LOAD      ACCESS:       3440  HIT:        144  MISS:       3296
cpu0_STLB RFO       ACCESS:       2036  HIT:          0  MISS:       2036
cpu0_STLB PREFETCH  ACCESS:          0  HIT:          0  MISS:          0
cpu0_STLB WRITEBACK ACCESS:          0  HIT:          0  MISS:          0
cpu0_L1D TOTAL     ACCESS:    3777573  HIT:    3428715  MISS:     348858
cpu0_L1D LOAD      ACCESS:    2895941  HIT:    2673596  MISS:     222345
cpu0_L1D RFO       ACCESS:     876305  HIT:     749850  MISS:     126455
cpu0_L1D PREFETCH  ACCESS:          0  HIT:          0  MISS:          0
cpu0_L1D WRITEBACK ACCESS:          0  HIT:          0  MISS:          0
cpu0_L2C TOTAL     ACCESS:     475425  HIT:     136704  MISS:     338721
cpu0_L2C LOAD      ACCESS:     222472  HIT:      10249  MISS:     212223
cpu0_L2C RFO       ACCESS:     126455  HIT:          1  MISS:     126454
cpu0_L2C PREFETCH  ACCESS:          0  HIT:          0  MISS:          0
cpu0_L2C WRITEBACK ACCESS:     126440  HIT:     126431  MISS:          9
LLC TOTAL     ACCESS:     464668  HIT:     125952  MISS:     338716
LLC LOAD      ACCESS:     212223  HIT:          2  MISS:     212221
LLC RFO       ACCESS:     126455  HIT:          0  MISS:     126455
LLC PREFETCH  ACCESS:          0  HIT:          0  MISS:          0
LLC WRITEBACK ACCESS:     125955  HIT:     125946  MISS:          9
Heartbeat CPU 0 instructions: 78000003 cycles: 46081609 heartbeat IPC: 1.74386 cumulative IPC: 0.931849 (Simulation time: 1 hr 10 min 3 sec) 

Region of Interest Statistics
cpu0_DTLB TOTAL     ACCESS:    5699884  HIT:    5694186  MISS:       5698
cpu0_DTLB LOAD      ACCESS:    4637829  HIT:    4634303  MISS:       3526
cpu0_DTLB RFO       ACCESS:    1062055  HIT:    1059883  MISS:       2172
cpu0_DTLB PREFETCH  ACCESS:          0  HIT:          0  MISS:          0
cpu0_DTLB WRITEBACK ACCESS:          0  HIT:          0  MISS:          0
cpu0_ITLB TOTAL     ACCESS:     569007  HIT:     569000  MISS:          7
cpu0_ITLB LOAD      ACCESS:     569007  HIT:     569000  MISS:          7
cpu0_ITLB RFO       ACCESS:          0  HIT:          0  MISS:          0
cpu0_ITLB PREFETCH  ACCESS:          0  HIT:          0  MISS:          0
cpu0_ITLB WRITEBACK ACCESS:          0  HIT:          0  MISS:          0
cpu0_L1I TOTAL     ACCESS:       3934  HIT:       3807  MISS:        127
cpu0_L1I LOAD      ACCESS:       3934  HIT:       3807  MISS:        127
cpu0_L1I RFO       ACCESS:          0  HIT:          0  MISS:          0
cpu0_L1I PREFETCH  ACCESS:          0  HIT:          0  MISS:          0
cpu0_L1I WRITEBACK ACCESS:          0  HIT:          0  MISS:          0
cpu0_STLB TOTAL     ACCESS:       5705  HIT:        146  MISS:       5559
cpu0_STLB LOAD      ACCESS:       3533  HIT:        146  MISS:       3387
cpu0_STLB RFO       ACCESS:       2172  HIT:          0  MISS:       2172
cpu0_STLB PREFETCH  ACCESS:          0  HIT:          0  MISS:          0
cpu0_STLB WRITEBACK ACCESS:          0  HIT:          0  MISS:          0
cpu0_L1D TOTAL     ACCESS:    4070556  HIT:    3701322  MISS:     369234
cpu0_L1D LOAD      ACCESS:    3161219  HIT:    2927036  MISS:     234183
cpu0_L1D RFO       ACCESS:     903783  HIT:     768803  MISS:     134980
cpu0_L1D PREFETCH  ACCESS:          0  HIT:          0  MISS:          0
cpu0_L1D WRITEBACK ACCESS:          0  HIT:          0  MISS:          0
cpu0_L2C TOTAL     ACCESS:     504220  HIT:     151375  MISS:     352845
cpu0_L2C LOAD      ACCESS:     234310  HIT:      16487  MISS:     217823
cpu0_L2C RFO       ACCESS:     134980  HIT:          2  MISS:     134978
cpu0_L2C PREFETCH  ACCESS:          0  HIT:          0  MISS:          0
cpu0_L2C WRITEBACK ACCESS:     134859  HIT:     134850  MISS:          9
LLC TOTAL     ACCESS:     487176  HIT:     134337  MISS:     352839
LLC LOAD      ACCESS:     217823  HIT:          2  MISS:     217821
LLC RFO       ACCESS:     134978  HIT:          0  MISS:     134978
LLC PREFETCH  ACCESS:          0  HIT:          0  MISS:          0
LLC WRITEBACK ACCESS:     134340  HIT:     134331  MISS:          9
Heartbeat CPU 0 instructions: 80000000 cycles: 47237736 heartbeat IPC: 1.72991 cumulative IPC: 0.961418 (Simulation time: 1 hr 11 min 40 sec) 

Region of Interest Statistics
cpu0_DTLB TOTAL     ACCESS:    6113461  HIT:    6107534  MISS:       5927
cpu0_DTLB LOAD      ACCESS:    4963692  HIT:    4960073  MISS:       3619
cpu0_DTLB RFO       ACCESS:    1149769  HIT:    1147461  MISS:       2308
cpu0_DTLB PREFETCH  ACCESS:          0  HIT:          0  MISS:          0
cpu0_DTLB WRITEBACK ACCESS:          0  HIT:          0  MISS:          0
cpu0_ITLB TOTAL     ACCESS:     604283  HIT:     604276  MISS:          7
cpu0_ITLB LOAD      ACCESS:     604283  HIT:     604276  MISS:          7
cpu0_ITLB RFO       ACCESS:          0  HIT:          0  MISS:          0
cpu0_ITLB PREFETCH  ACCESS:          0  HIT:          0  MISS:          0
cpu0_ITLB WRITEBACK ACCESS:          0  HIT:          0  MISS:          0
cpu0_L1I TOTAL     ACCESS:       4486  HIT:       4359  MISS:        127
cpu0_L1I LOAD      ACCESS:       4486  HIT:       4359  MISS:        127
cpu0_L1I RFO       ACCESS:          0  HIT:          0  MISS:          0
cpu0_L1I PREFETCH  ACCESS:          0  HIT:          0  MISS:          0
cpu0_L1I WRITEBACK ACCESS:          0  HIT:          0  MISS:          0
cpu0_STLB TOTAL     ACCESS:       5934  HIT:        147  MISS:       5787
cpu0_STLB LOAD      ACCESS:       3626  HIT:        147  MISS:       3479
cpu0_STLB RFO       ACCESS:       2308  HIT:          0  MISS:       2308
cpu0_STLB PREFETCH  ACCESS:          0  HIT:          0  MISS:          0
cpu0_STLB WRITEBACK ACCESS:          0  HIT:          0  MISS:          0
cpu0_L1D TOTAL     ACCESS:    4363584  HIT:    3973941  MISS:     389643
cpu0_L1D LOAD      ACCESS:    3425971  HIT:    3179923  MISS:     246048
cpu0_L1D RFO       ACCESS:     931831  HIT:     788321  MISS:     143510
cpu0_L1D PREFETCH  ACCESS:          0  HIT:          0  MISS:          0
cpu0_L1D WRITEBACK ACCESS:          0  HIT:          0  MISS:          0
cpu0_L2C TOTAL     ACCESS:     532998  HIT:     166020  MISS:     366978
cpu0_L2C LOAD      ACCESS:     246175  HIT:      22750  MISS:     223425
cpu0_L2C RFO       ACCESS:     143510  HIT:          3  MISS:     143507
cpu0_L2C PREFETCH  ACCESS:          0  HIT:          0  MISS:          0
cpu0_L2C WRITEBACK ACCESS:     143228  HIT:     143218  MISS:         10
LLC TOTAL     ACCESS:     510070  HIT:     143098  MISS:     366972
LLC LOAD      ACCESS:     223425  HIT:          2  MISS:     223423
LLC RFO       ACCESS:     143507  HIT:          0  MISS:     143507
LLC PREFETCH  ACCESS:          0  HIT:          0  MISS:          0
LLC WRITEBACK ACCESS:     143102  HIT:     143092  MISS:         10
Heartbeat CPU 0 instructions: 82000001 cycles: 48376746 heartbeat IPC: 1.75591 cumulative IPC: 0.989398 (Simulation time: 1 hr 13 min 16 sec) 

Region of Interest Statistics
cpu0_DTLB TOTAL     ACCESS:    6527249  HIT:    6521092  MISS:       6157
cpu0_DTLB LOAD      ACCESS:    5289502  HIT:    5285790  MISS:       3712
cpu0_DTLB RFO       ACCESS:    1237747  HIT:    1235302  MISS:       2445
cpu0_DTLB PREFETCH  ACCESS:          0  HIT:          0  MISS:          0
cpu0_DTLB WRITEBACK ACCESS:          0  HIT:          0  MISS:          0
cpu0_ITLB TOTAL     ACCESS:     639507  HIT:     639500  MISS:          7
cpu0_ITLB LOAD      ACCESS:     639507  HIT:     639500  MISS:          7
cpu0_ITLB RFO       ACCESS:          0  HIT:          0  MISS:          0
cpu0_ITLB PREFETCH  ACCESS:          0  HIT:          0  MISS:          0
cpu0_ITLB WRITEBACK ACCESS:          0  HIT:          0  MISS:          0
cpu0_L1I TOTAL     ACCESS:       5038  HIT:       4911  MISS:        127
cpu0_L1I LOAD      ACCESS:       5038  HIT:       4911  MISS:        127
cpu0_L1I RFO       ACCESS:          0  HIT:          0  MISS:          0
cpu0_L1I PREFETCH  ACCESS:          0  HIT:          0  MISS:          0
cpu0_L1I WRITEBACK ACCESS:          0  HIT:          0  MISS:          0
cpu0_STLB TOTAL     ACCESS:       6164  HIT:        147  MISS:       6017
cpu0_STLB LOAD      ACCESS:       3719  HIT:        147  MISS:       3572
cpu0_STLB RFO       ACCESS:       2445  HIT:          0  MISS:       2445
cpu0_STLB PREFETCH  ACCESS:          0  HIT:          0  MISS:          0
cpu0_STLB WRITEBACK ACCESS:          0  HIT:          0  MISS:          0
cpu0_L1D TOTAL     ACCESS:    4657194  HIT:    4247177  MISS:     410017
cpu0_L1D LOAD      ACCESS:    3691814  HIT:    3433934  MISS:     257880
cpu0_L1D RFO       ACCESS:     959369  HIT:     807331  MISS:     152038
cpu0_L1D PREFETCH  ACCESS:          0  HIT:          0  MISS:          0
cpu0_L1D WRITEBACK ACCESS:          0  HIT:          0  MISS:          0
cpu0_L2C TOTAL     ACCESS:     561783  HIT:     180674  MISS:     381109
cpu0_L2C LOAD      ACCESS:     258006  HIT:      28980  MISS:     229026
cpu0_L2C RFO       ACCESS:     152038  HIT:          3  MISS:     152035
cpu0_L2C PREFETCH  ACCESS:          0  HIT:          0  MISS:          0
cpu0_L2C WRITEBACK ACCESS:     151640  HIT:     151630  MISS:         10
LLC TOTAL     ACCESS:     532338  HIT:     151236  MISS:     381102
LLC LOAD      ACCESS:     229026  HIT:          2  MISS:     229024
LLC RFO       ACCESS:     152035  HIT:          0  MISS:     152035
LLC PREFETCH  ACCESS:          0  HIT:          0  MISS:          0
LLC WRITEBACK ACCESS:     151239  HIT:     151229  MISS:         10
Heartbeat CPU 0 instructions: 84000003 cycles: 49530449 heartbeat IPC: 1.73355 cumulative IPC: 1.01503 (Simulation time: 1 hr 14 min 53 sec) 

Region of Interest Statistics
cpu0_DTLB TOTAL     ACCESS:    6941166  HIT:    6934781  MISS:       6385
cpu0_DTLB LOAD      ACCESS:    5615450  HIT:    5611646  MISS:       3804
cpu0_DTLB RFO       ACCESS:    1325716  HIT:    1323135  MISS:       2581
cpu0_DTLB PREFETCH  ACCESS:          0  HIT:          0  MISS:          0
cpu0_DTLB WRITEBACK ACCESS:          0  HIT:          0  MISS:          0
cpu0_ITLB TOTAL     ACCESS:     674668  HIT:     674661  MISS:          7
cpu0_ITLB LOAD      ACCESS:     674668  HIT:     674661  MISS:          7
cpu0_ITLB RFO       ACCESS:          0  HIT:          0  MISS:          0
cpu0_ITLB PREFETCH  ACCESS:          0  HIT:          0  MISS:          0
cpu0_ITLB WRITEBACK ACCESS:          0  HIT:          0  MISS:          0
cpu0_L1I TOTAL     ACCESS:       5590  HIT:       5463  MISS:        127
cpu0_L1I LOAD      ACCESS:       5590  HIT:       5463  MISS:        127
cpu0_L1I RFO       ACCESS:          0  HIT:          0  MISS:          0
cpu0_L1I PREFETCH  ACCESS:          0  HIT:          0  MISS:          0
cpu0_L1I WRITEBACK ACCESS:          0  HIT:          0  MISS:          0
cpu0_STLB TOTAL     ACCESS:       6392  HIT:        147  MISS:       6245
cpu0_STLB LOAD      ACCESS:       3811  HIT:        147  MISS:       3664
cpu0_STLB RFO       ACCESS:       2581  HIT:          0  MISS:       2581
cpu0_STLB PREFETCH  ACCESS:          0  HIT:          0  MISS:          0
cpu0_STLB WRITEBACK ACCESS:          0  HIT:          0  MISS:          0
cpu0_L1D TOTAL     ACCESS:    4951724  HIT:    4521289  MISS:     430435
cpu0_L1D LOAD      ACCESS:    3958008  HIT:    3688270  MISS:     269738
cpu0_L1D RFO       ACCESS:     987477  HIT:     826899  MISS:     160578
cpu0_L1D PREFETCH  ACCESS:          0  HIT:          0  MISS:          0
cpu0_L1D WRITEBACK ACCESS:          0  HIT:          0  MISS:          0
cpu0_L2C TOTAL     ACCESS:     590646  HIT:     195390  MISS:     395256
cpu0_L2C LOAD      ACCESS:     269864  HIT:      35237  MISS:     234627
cpu0_L2C RFO       ACCESS:     160578  HIT:          5  MISS:     160573
cpu0_L2C PREFETCH  ACCESS:          0  HIT:          0  MISS:          0
cpu0_L2C WRITEBACK ACCESS:     160085  HIT:     160069  MISS:         16
LLC TOTAL     ACCESS:     554675  HIT:     159430  MISS:     395245
LLC LOAD      ACCESS:     234627  HIT:          2  MISS:     234625
LLC RFO       ACCESS:     160573  HIT:          0  MISS:     160573
LLC PREFETCH  ACCESS:          0  HIT:          0  MISS:          0
LLC WRITEBACK ACCESS:     159435  HIT:     159422  MISS:         13
Heartbeat CPU 0 instructions: 86000003 cycles: 50676647 heartbeat IPC: 1.7449 cumulative IPC: 1.03918 (Simulation time: 1 hr 16 min 32 sec) 

Region of Interest Statistics
cpu0_DTLB TOTAL     ACCESS:    7354851  HIT:    7348236  MISS:       6615
cpu0_DTLB LOAD      ACCESS:    5941359  HIT:    5937461  MISS:       3898
cpu0_DTLB RFO       ACCESS:    1413492  HIT:    1410775  MISS:       2717
cpu0_DTLB PREFETCH  ACCESS:          0  HIT:          0  MISS:          0
cpu0_DTLB WRITEBACK ACCESS:          0  HIT:          0  MISS:          0
cpu0_ITLB TOTAL     ACCESS:     709591  HIT:     709584  MISS:          7
cpu0_ITLB LOAD      ACCESS:     709591  HIT:     709584  MISS:          7
cpu0_ITLB RFO       ACCESS:          0  HIT:          0  MISS:          0
cpu0_ITLB PREFETCH  ACCESS:          0  HIT:          0  MISS:          0
cpu0_ITLB WRITEBACK ACCESS:          0  HIT:          0  MISS:          0
cpu0_L1I TOTAL     ACCESS:       6142  HIT:       6015  MISS:        127
cpu0_L1I LOAD      ACCESS:       6142  HIT:       6015  MISS:        127
cpu0_L1I RFO       ACCESS:          0  HIT:          0  MISS:          0
cpu0_L1I PREFETCH  ACCESS:          0  HIT:          0  MISS:          0
cpu0_L1I WRITEBACK ACCESS:          0  HIT:          0  MISS:          0
cpu0_STLB TOTAL     ACCESS:       6622  HIT:        149  MISS:       6473
cpu0_STLB LOAD      ACCESS:       3905  HIT:        149  MISS:       3756
cpu0_STLB RFO       ACCESS:       2717  HIT:          0  MISS:       2717
cpu0_STLB PREFETCH  ACCESS:          0  HIT:          0  MISS:          0
cpu0_STLB WRITEBACK ACCESS:          0  HIT:          0  MISS:          0
cpu0_L1D TOTAL     ACCESS:    5244238  HIT:    4793359  MISS:     450879
cpu0_L1D LOAD      ACCESS:    4222730  HIT:    3941095  MISS:     281635
cpu0_L1D RFO       ACCESS:    1015041  HIT:     845942  MISS:     169099
cpu0_L1D PREFETCH  ACCESS:          0  HIT:          0  MISS:          0
cpu0_L1D WRITEBACK ACCESS:          0  HIT:          0  MISS:          0
cpu0_L2C TOTAL     ACCESS:     619487  HIT:     210109  MISS:     409378
cpu0_L2C LOAD      ACCESS:     281761  HIT:      41534  MISS:     240227
cpu0_L2C RFO       ACCESS:     169099  HIT:          5  MISS:     169094
cpu0_L2C PREFETCH  ACCESS:          0  HIT:          0  MISS:          0
cpu0_L2C WRITEBACK ACCESS:     168482  HIT:     168466  MISS:         16
LLC TOTAL     ACCESS:     577606  HIT:     168239  MISS:     409367
LLC LOAD      ACCESS:     240227  HIT:          3  MISS:     240224
LLC RFO       ACCESS:     169094  HIT:          0  MISS:     169094
LLC PREFETCH  ACCESS:          0  HIT:          0  MISS:          0
LLC WRITEBACK ACCESS:     168244  HIT:     168230  MISS:         14
Heartbeat CPU 0 instructions: 88000004 cycles: 51812110 heartbeat IPC: 1.7614 cumulative IPC: 1.0621 (Simulation time: 1 hr 18 min 11 sec) 

Region of Interest Statistics
cpu0_DTLB TOTAL     ACCESS:    7768548  HIT:    7761698  MISS:       6850
cpu0_DTLB LOAD      ACCESS:    6267152  HIT:    6263155  MISS:       3997
cpu0_DTLB RFO       ACCESS:    1501396  HIT:    1498543  MISS:       2853
cpu0_DTLB PREFETCH  ACCESS:          0  HIT:          0  MISS:          0
cpu0_DTLB WRITEBACK ACCESS:          0  HIT:          0  MISS:          0
cpu0_ITLB TOTAL     ACCESS:     744564  HIT:     744557  MISS:          7
cpu0_ITLB LOAD      ACCESS:     744564  HIT:     744557  MISS:          7
cpu0_ITLB RFO       ACCESS:          0  HIT:          0  MISS:          0
cpu0_ITLB PREFETCH  ACCESS:          0  HIT:          0  MISS:          0
cpu0_ITLB WRITEBACK ACCESS:          0  HIT:          0  MISS:          0
cpu0_L1I TOTAL     ACCESS:       6694  HIT:       6567  MISS:        127
cpu0_L1I LOAD      ACCESS:       6694  HIT:       6567  MISS:        127
cpu0_L1I RFO       ACCESS:          0  HIT:          0  MISS:          0
cpu0_L1I PREFETCH  ACCESS:          0  HIT:          0  MISS:          0
cpu0_L1I WRITEBACK ACCESS:          0  HIT:          0  MISS:          0
cpu0_STLB TOTAL     ACCESS:       6857  HIT:        156  MISS:       6701
cpu0_STLB LOAD      ACCESS:       4004  HIT:        156  MISS:       3848
cpu0_STLB RFO       ACCESS:       2853  HIT:          0  MISS:       2853
cpu0_STLB PREFETCH  ACCESS:          0  HIT:          0  MISS:          0
cpu0_STLB WRITEBACK ACCESS:          0  HIT:          0  MISS:          0
cpu0_L1D TOTAL     ACCESS:    5537731  HIT:    5066381  MISS:     471350
cpu0_L1D LOAD      ACCESS:    4488150  HIT:    4194607  MISS:     293543
cpu0_L1D RFO       ACCESS:    1042886  HIT:     865249  MISS:     177637
cpu0_L1D PREFETCH  ACCESS:          0  HIT:          0  MISS:          0
cpu0_L1D WRITEBACK ACCESS:          0  HIT:          0  MISS:          0
cpu0_L2C TOTAL     ACCESS:     648376  HIT:     224856  MISS:     423520
cpu0_L2C LOAD      ACCESS:     293669  HIT:      47840  MISS:     245829
cpu0_L2C RFO       ACCESS:     177637  HIT:          7  MISS:     177630
cpu0_L2C PREFETCH  ACCESS:          0  HIT:          0  MISS:          0
cpu0_L2C WRITEBACK ACCESS:     176900  HIT:     176881  MISS:         19
LLC TOTAL     ACCESS:     599805  HIT:     176298  MISS:     423507
LLC LOAD      ACCESS:     245829  HIT:          4  MISS:     245825
LLC RFO       ACCESS:     177630  HIT:          0  MISS:     177630
LLC PREFETCH  ACCESS:          0  HIT:          0  MISS:          0
LLC WRITEBACK ACCESS:     176304  HIT:     176287  MISS:         17
Heartbeat CPU 0 instructions: 90000001 cycles: 52961998 heartbeat IPC: 1.7393 cumulative IPC: 1.08318 (Simulation time: 1 hr 19 min 55 sec) 

Region of Interest Statistics
cpu0_DTLB TOTAL     ACCESS:    8182132  HIT:    8175051  MISS:       7081
cpu0_DTLB LOAD      ACCESS:    6593049  HIT:    6588958  MISS:       4091
cpu0_DTLB RFO       ACCESS:    1589083  HIT:    1586093  MISS:       2990
cpu0_DTLB PREFETCH  ACCESS:          0  HIT:          0  MISS:          0
cpu0_DTLB WRITEBACK ACCESS:          0  HIT:          0  MISS:          0
cpu0_ITLB TOTAL     ACCESS:     779872  HIT:     779865  MISS:          7
cpu0_ITLB LOAD      ACCESS:     779872  HIT:     779865  MISS:          7
cpu0_ITLB RFO       ACCESS:          0  HIT:          0  MISS:          0
cpu0_ITLB PREFETCH  ACCESS:          0  HIT:          0  MISS:          0
cpu0_ITLB WRITEBACK ACCESS:          0  HIT:          0  MISS:          0
cpu0_L1I TOTAL     ACCESS:       7246  HIT:       7119  MISS:        127
cpu0_L1I LOAD      ACCESS:       7246  HIT:       7119  MISS:        127
cpu0_L1I RFO       ACCESS:          0  HIT:          0  MISS:          0
cpu0_L1I PREFETCH  ACCESS:          0  HIT:          0  MISS:          0
cpu0_L1I WRITEBACK ACCESS:          0  HIT:          0  MISS:          0
cpu0_STLB TOTAL     ACCESS:       7088  HIT:        157  MISS:       6931
cpu0_STLB LOAD      ACCESS:       4098  HIT:        157  MISS:       3941
cpu0_STLB RFO       ACCESS:       2990  HIT:          0  MISS:       2990
cpu0_STLB PREFETCH  ACCESS:          0  HIT:          0  MISS:          0
cpu0_STLB WRITEBACK ACCESS:          0  HIT:          0  MISS:          0
cpu0_L1D TOTAL     ACCESS:    5830715  HIT:    5338957  MISS:     491758
cpu0_L1D LOAD      ACCESS:    4753236  HIT:    4447838  MISS:     305398
cpu0_L1D RFO       ACCESS:    1070555  HIT:     884391  MISS:     186164
cpu0_L1D PREFETCH  ACCESS:          0  HIT:          0  MISS:          0
cpu0_L1D WRITEBACK ACCESS:          0  HIT:          0  MISS:          0
cpu0_L2C TOTAL     ACCESS:     677198  HIT:     239548  MISS:     437650
cpu0_L2C LOAD      ACCESS:     305524  HIT:      54095  MISS:     251429
cpu0_L2C RFO       ACCESS:     186164  HIT:          8  MISS:     186156
cpu0_L2C PREFETCH  ACCESS:          0  HIT:          0  MISS:          0
cpu0_L2C WRITEBACK ACCESS:     185314  HIT:     185292  MISS:         22
LLC TOTAL     ACCESS:     622682  HIT:     185046  MISS:     437636
LLC LOAD      ACCESS:     251429  HIT:          4  MISS:     251425
LLC RFO       ACCESS:     186156  HIT:          0  MISS:     186156
LLC PREFETCH  ACCESS:          0  HIT:          0  MISS:          0
LLC WRITEBACK ACCESS:     185054  HIT:     185034  MISS:         20
Heartbeat CPU 0 instructions: 92000000 cycles: 54103400 heartbeat IPC: 1.75223 cumulative IPC: 1.10324 (Simulation time: 1 hr 21 min 33 sec) 

Region of Interest Statistics
cpu0_DTLB TOTAL     ACCESS:    8595453  HIT:    8588142  MISS:       7311
cpu0_DTLB LOAD      ACCESS:    6918595  HIT:    6914410  MISS:       4185
cpu0_DTLB RFO       ACCESS:    1676858  HIT:    1673732  MISS:       3126
cpu0_DTLB PREFETCH  ACCESS:          0  HIT:          0  MISS:          0
cpu0_DTLB WRITEBACK ACCESS:          0  HIT:          0  MISS:          0
cpu0_ITLB TOTAL     ACCESS:     814050  HIT:     814043  MISS:          7
cpu0_ITLB LOAD      ACCESS:     814050  HIT:     814043  MISS:          7
cpu0_ITLB RFO       ACCESS:          0  HIT:          0  MISS:          0
cpu0_ITLB PREFETCH  ACCESS:          0  HIT:          0  MISS:          0
cpu0_ITLB WRITEBACK ACCESS:          0  HIT:          0  MISS:          0
cpu0_L1I TOTAL     ACCESS:       7798  HIT:       7671  MISS:        127
cpu0_L1I LOAD      ACCESS:       7798  HIT:       7671  MISS:        127
cpu0_L1I RFO       ACCESS:          0  HIT:          0  MISS:          0
cpu0_L1I PREFETCH  ACCESS:          0  HIT:          0  MISS:          0
cpu0_L1I WRITEBACK ACCESS:          0  HIT:          0  MISS:          0
cpu0_STLB TOTAL     ACCESS:       7318  HIT:        159  MISS:       7159
cpu0_STLB LOAD      ACCESS:       4192  HIT:        159  MISS:       4033
cpu0_STLB RFO       ACCESS:       3126  HIT:          0  MISS:       3126
cpu0_STLB PREFETCH  ACCESS:          0  HIT:          0  MISS:          0
cpu0_STLB WRITEBACK ACCESS:          0  HIT:          0  MISS:          0
cpu0_L1D TOTAL     ACCESS:    6121861  HIT:    5609647  MISS:     512214
cpu0_L1D LOAD      ACCESS:    5016702  HIT:    4699403  MISS:     317299
cpu0_L1D RFO       ACCESS:    1098007  HIT:     903314  MISS:     194693
cpu0_L1D PREFETCH  ACCESS:          0  HIT:          0  MISS:          0
cpu0_L1D WRITEBACK ACCESS:          0  HIT:          0  MISS:          0
cpu0_L2C TOTAL     ACCESS:     706003  HIT:     254221  MISS:     451782
cpu0_L2C LOAD      ACCESS:     317425  HIT:      60395  MISS:     257030
cpu0_L2C RFO       ACCESS:     194693  HIT:          9  MISS:     194684
cpu0_L2C PREFETCH  ACCESS:          0  HIT:          0  MISS:          0
cpu0_L2C WRITEBACK ACCESS:     193663  HIT:     193640  MISS:         23
LLC TOTAL     ACCESS:     644876  HIT:     193109  MISS:     451767
LLC LOAD      ACCESS:     257030  HIT:          4  MISS:     257026
LLC RFO       ACCESS:     194684  HIT:          0  MISS:     194684
LLC PREFETCH  ACCESS:          0  HIT:          0  MISS:          0
LLC WRITEBACK ACCESS:     193117  HIT:     193096  MISS:         21
Heartbeat CPU 0 instructions: 94000002 cycles: 57427101 heartbeat IPC: 0.601739 cumulative IPC: 1.06297 (Simulation time: 1 hr 25 min 8 sec) 

Region of Interest Statistics
cpu0_DTLB TOTAL     ACCESS:    8993963  HIT:    8982386  MISS:      11577
cpu0_DTLB LOAD      ACCESS:    7232208  HIT:    7223874  MISS:       8334
cpu0_DTLB RFO       ACCESS:    1761755  HIT:    1758512  MISS:       3243
cpu0_DTLB PREFETCH  ACCESS:          0  HIT:          0  MISS:          0
cpu0_DTLB WRITEBACK ACCESS:          0  HIT:          0  MISS:          0
cpu0_ITLB TOTAL     ACCESS:     879032  HIT:     879015  MISS:         17
cpu0_ITLB LOAD      ACCESS:     879032  HIT:     879015  MISS:         17
cpu0_ITLB RFO       ACCESS:          0  HIT:          0  MISS:          0
cpu0_ITLB PREFETCH  ACCESS:          0  HIT:          0  MISS:          0
cpu0_ITLB WRITEBACK ACCESS:          0  HIT:          0  MISS:          0
cpu0_L1I TOTAL     ACCESS:       9317  HIT:       8944  MISS:        373
cpu0_L1I LOAD      ACCESS:       9317  HIT:       8944  MISS:        373
cpu0_L1I RFO       ACCESS:          0  HIT:          0  MISS:          0
cpu0_L1I PREFETCH  ACCESS:          0  HIT:          0  MISS:          0
cpu0_L1I WRITEBACK ACCESS:          0  HIT:          0  MISS:          0
cpu0_STLB TOTAL     ACCESS:      11594  HIT:       2201  MISS:       9393
cpu0_STLB LOAD      ACCESS:       8351  HIT:       2185  MISS:       6166
cpu0_STLB RFO       ACCESS:       3243  HIT:         16  MISS:       3227
cpu0_STLB PREFETCH  ACCESS:          0  HIT:          0  MISS:          0
cpu0_STLB WRITEBACK ACCESS:          0  HIT:          0  MISS:          0
cpu0_L1D TOTAL     ACCESS:    6464635  HIT:    5902752  MISS:     561883
cpu0_L1D LOAD      ACCESS:    5300317  HIT:    4942653  MISS:     357664
cpu0_L1D RFO       ACCESS:    1156208  HIT:     952249  MISS:     203959
cpu0_L1D PREFETCH  ACCESS:          0  HIT:          0  MISS:          0
cpu0_L1D WRITEBACK ACCESS:          0  HIT:          0  MISS:          0
cpu0_L2C TOTAL     ACCESS:     793220  HIT:     304898  MISS:     488322
cpu0_L2C LOAD      ACCESS:     358035  HIT:      72256  MISS:     285779
cpu0_L2C RFO       ACCESS:     203959  HIT:       1515  MISS:     202444
cpu0_L2C PREFETCH  ACCESS:          0  HIT:          0  MISS:          0
cpu0_L2C WRITEBACK ACCESS:     230966  HIT:     230929  MISS:         37
LLC TOTAL     ACCESS:     708778  HIT:     220098  MISS:     488680
LLC LOAD      ACCESS:     285779  HIT:        293  MISS:     285486
LLC RFO       ACCESS:     202444  HIT:         81  MISS:     202363
LLC PREFETCH  ACCESS:          0  HIT:          0  MISS:          0
LLC WRITEBACK ACCESS:     220493  HIT:     219714  MISS:        779
Heartbeat CPU 0 instructions: 96000004 cycles: 58872765 heartbeat IPC: 1.38345 cumulative IPC: 1.07379 (Simulation time: 1 hr 27 min 33 sec) 

Region of Interest Statistics
cpu0_DTLB TOTAL     ACCESS:    9527113  HIT:    9515362  MISS:      11751
cpu0_DTLB LOAD      ACCESS:    7730228  HIT:    7721728  MISS:       8500
cpu0_DTLB RFO       ACCESS:    1796885  HIT:    1793634  MISS:       3251
cpu0_DTLB PREFETCH  ACCESS:          0  HIT:          0  MISS:          0
cpu0_DTLB WRITEBACK ACCESS:          0  HIT:          0  MISS:          0
cpu0_ITLB TOTAL     ACCESS:     902699  HIT:     902682  MISS:         17
cpu0_ITLB LOAD      ACCESS:     902699  HIT:     902682  MISS:         17
cpu0_ITLB RFO       ACCESS:          0  HIT:          0  MISS:          0
cpu0_ITLB PREFETCH  ACCESS:          0  HIT:          0  MISS:          0
cpu0_ITLB WRITEBACK ACCESS:          0  HIT:          0  MISS:          0
cpu0_L1I TOTAL     ACCESS:      11812  HIT:      11406  MISS:        406
cpu0_L1I LOAD      ACCESS:      11812  HIT:      11406  MISS:        406
cpu0_L1I RFO       ACCESS:          0  HIT:          0  MISS:          0
cpu0_L1I PREFETCH  ACCESS:          0  HIT:          0  MISS:          0
cpu0_L1I WRITEBACK ACCESS:          0  HIT:          0  MISS:          0
cpu0_STLB TOTAL     ACCESS:      11768  HIT:       2247  MISS:       9521
cpu0_STLB LOAD      ACCESS:       8517  HIT:       2226  MISS:       6291
cpu0_STLB RFO       ACCESS:       3251  HIT:         21  MISS:       3230
cpu0_STLB PREFETCH  ACCESS:          0  HIT:          0  MISS:          0
cpu0_STLB WRITEBACK ACCESS:          0  HIT:          0  MISS:          0
cpu0_L1D TOTAL     ACCESS:    7069344  HIT:    6494104  MISS:     575240
cpu0_L1D LOAD      ACCESS:    5836910  HIT:    5467769  MISS:     369141
cpu0_L1D RFO       ACCESS:    1224196  HIT:    1018382  MISS:     205814
cpu0_L1D PREFETCH  ACCESS:          0  HIT:          0  MISS:          0
cpu0_L1D WRITEBACK ACCESS:          0  HIT:          0  MISS:          0
cpu0_L2C TOTAL     ACCESS:     811287  HIT:     313927  MISS:     497360
cpu0_L2C LOAD      ACCESS:     369545  HIT:      75057  MISS:     294488
cpu0_L2C RFO       ACCESS:     205814  HIT:       3044  MISS:     202770
cpu0_L2C PREFETCH  ACCESS:          0  HIT:          0  MISS:          0
cpu0_L2C WRITEBACK ACCESS:     235643  HIT:     235605  MISS:         38
LLC TOTAL     ACCESS:     723511  HIT:     225336  MISS:     498175
LLC LOAD      ACCESS:     294488  HIT:        311  MISS:     294177
LLC RFO       ACCESS:     202770  HIT:         81  MISS:     202689
LLC PREFETCH  ACCESS:          0  HIT:          0  MISS:          0
LLC WRITEBACK ACCESS:     226189  HIT:     224934  MISS:       1255
Heartbeat CPU 0 instructions: 98000002 cycles: 60142600 heartbeat IPC: 1.57501 cumulative IPC: 1.08822 (Simulation time: 1 hr 29 min 53 sec) 

Region of Interest Statistics
cpu0_DTLB TOTAL     ACCESS:   10058649  HIT:   10046730  MISS:      11919
cpu0_DTLB LOAD      ACCESS:    8226992  HIT:    8218330  MISS:       8662
cpu0_DTLB RFO       ACCESS:    1831657  HIT:    1828400  MISS:       3257
cpu0_DTLB PREFETCH  ACCESS:          0  HIT:          0  MISS:          0
cpu0_DTLB WRITEBACK ACCESS:          0  HIT:          0  MISS:          0
cpu0_ITLB TOTAL     ACCESS:     926253  HIT:     926236  MISS:         17
cpu0_ITLB LOAD      ACCESS:     926253  HIT:     926236  MISS:         17
cpu0_ITLB RFO       ACCESS:          0  HIT:          0  MISS:          0
cpu0_ITLB PREFETCH  ACCESS:          0  HIT:          0  MISS:          0
cpu0_ITLB WRITEBACK ACCESS:          0  HIT:          0  MISS:          0
cpu0_L1I TOTAL     ACCESS:      14318  HIT:      13912  MISS:        406
cpu0_L1I LOAD      ACCESS:      14318  HIT:      13912  MISS:        406
cpu0_L1I RFO       ACCESS:          0  HIT:          0  MISS:          0
cpu0_L1I PREFETCH  ACCESS:          0  HIT:          0  MISS:          0
cpu0_L1I WRITEBACK ACCESS:          0  HIT:          0  MISS:          0
cpu0_STLB TOTAL     ACCESS:      11936  HIT:       2282  MISS:       9654
cpu0_STLB LOAD      ACCESS:       8679  HIT:       2255  MISS:       6424
cpu0_STLB RFO       ACCESS:       3257  HIT:         27  MISS:       3230
cpu0_STLB PREFETCH  ACCESS:          0  HIT:          0  MISS:          0
cpu0_STLB WRITEBACK ACCESS:          0  HIT:          0  MISS:          0
cpu0_L1D TOTAL     ACCESS:    7674771  HIT:    7086194  MISS:     588577
cpu0_L1D LOAD      ACCESS:    6370971  HIT:    5990375  MISS:     380596
cpu0_L1D RFO       ACCESS:    1295429  HIT:    1087761  MISS:     207668
cpu0_L1D PREFETCH  ACCESS:          0  HIT:          0  MISS:          0
cpu0_L1D WRITEBACK ACCESS:          0  HIT:          0  MISS:          0
cpu0_L2C TOTAL     ACCESS:     829281  HIT:     323246  MISS:     506035
cpu0_L2C LOAD      ACCESS:     381000  HIT:      77839  MISS:     303161
cpu0_L2C RFO       ACCESS:     207668  HIT:       4898  MISS:     202770
cpu0_L2C PREFETCH  ACCESS:          0  HIT:          0  MISS:          0
cpu0_L2C WRITEBACK ACCESS:     240300  HIT:     240262  MISS:         38
LLC TOTAL     ACCESS:     733182  HIT:     226289  MISS:     506893
LLC LOAD      ACCESS:     303161  HIT:        311  MISS:     302850
LLC RFO       ACCESS:     202770  HIT:         81  MISS:     202689
LLC PREFETCH  ACCESS:          0  HIT:          0  MISS:          0
LLC WRITEBACK ACCESS:     227185  HIT:     225887  MISS:       1298
Heartbeat CPU 0 instructions: 100000004 cycles: 61354129 heartbeat IPC: 1.65081 cumulative IPC: 1.10326 (Simulation time: 1 hr 32 min 8 sec) 

Region of Interest Statistics
cpu0_DTLB TOTAL     ACCESS:   10589162  HIT:   10577071  MISS:      12091
cpu0_DTLB LOAD      ACCESS:    8723050  HIT:    8714222  MISS:       8828
cpu0_DTLB RFO       ACCESS:    1866112  HIT:    1862849  MISS:       3263
cpu0_DTLB PREFETCH  ACCESS:          0  HIT:          0  MISS:          0
cpu0_DTLB WRITEBACK ACCESS:          0  HIT:          0  MISS:          0
cpu0_ITLB TOTAL     ACCESS:     950036  HIT:     950019  MISS:         17
cpu0_ITLB LOAD      ACCESS:     950036  HIT:     950019  MISS:         17
cpu0_ITLB RFO       ACCESS:          0  HIT:          0  MISS:          0
cpu0_ITLB PREFETCH  ACCESS:          0  HIT:          0  MISS:          0
cpu0_ITLB WRITEBACK ACCESS:          0  HIT:          0  MISS:          0
cpu0_L1I TOTAL     ACCESS:      16844  HIT:      16438  MISS:        406
cpu0_L1I LOAD      ACCESS:      16844  HIT:      16438  MISS:        406
cpu0_L1I RFO       ACCESS:          0  HIT:          0  MISS:          0
cpu0_L1I PREFETCH  ACCESS:          0  HIT:          0  MISS:          0
cpu0_L1I WRITEBACK ACCESS:          0  HIT:          0  MISS:          0
cpu0_STLB TOTAL     ACCESS:      12108  HIT:       2322  MISS:       9786
cpu0_STLB LOAD      ACCESS:       8845  HIT:       2289  MISS:       6556
cpu0_STLB RFO       ACCESS:       3263  HIT:         33  MISS:       3230
cpu0_STLB PREFETCH  ACCESS:          0  HIT:          0  MISS:          0
cpu0_STLB WRITEBACK ACCESS:          0  HIT:          0  MISS:          0
cpu0_L1D TOTAL     ACCESS:    8278788  HIT:    7676833  MISS:     601955
cpu0_L1D LOAD      ACCESS:    6903565  HIT:    6511472  MISS:     392093
cpu0_L1D RFO       ACCESS:    1366720  HIT:    1157198  MISS:     209522
cpu0_L1D PREFETCH  ACCESS:          0  HIT:          0  MISS:          0
cpu0_L1D WRITEBACK ACCESS:          0  HIT:          0  MISS:          0
cpu0_L2C TOTAL     ACCESS:     847330  HIT:     332617  MISS:     514713
cpu0_L2C LOAD      ACCESS:     392497  HIT:      80658  MISS:     311839
cpu0_L2C RFO       ACCESS:     209522  HIT:       6752  MISS:     202770
cpu0_L2C PREFETCH  ACCESS:          0  HIT:          0  MISS:          0
cpu0_L2C WRITEBACK ACCESS:     244971  HIT:     244933  MISS:         38
LLC TOTAL     ACCESS:     742802  HIT:     227106  MISS:     515696
LLC LOAD      ACCESS:     311839  HIT:        311  MISS:     311528
LLC RFO       ACCESS:     202770  HIT:         81  MISS:     202689
LLC PREFETCH  ACCESS:          0  HIT:          0  MISS:          0
LLC WRITEBACK ACCESS:     228127  HIT:     226704  MISS:       1423
Heartbeat CPU 0 instructions: 102000004 cycles: 62551683 heartbeat IPC: 1.67007 cumulative IPC: 1.11785 (Simulation time: 1 hr 34 min 22 sec) 

Region of Interest Statistics
cpu0_DTLB TOTAL     ACCESS:   11117683  HIT:   11105428  MISS:      12255
cpu0_DTLB LOAD      ACCESS:    9216659  HIT:    9207671  MISS:       8988
cpu0_DTLB RFO       ACCESS:    1901024  HIT:    1897757  MISS:       3267
cpu0_DTLB PREFETCH  ACCESS:          0  HIT:          0  MISS:          0
cpu0_DTLB WRITEBACK ACCESS:          0  HIT:          0  MISS:          0
cpu0_ITLB TOTAL     ACCESS:     974446  HIT:     974429  MISS:         17
cpu0_ITLB LOAD      ACCESS:     974446  HIT:     974429  MISS:         17
cpu0_ITLB RFO       ACCESS:          0  HIT:          0  MISS:          0
cpu0_ITLB PREFETCH  ACCESS:          0  HIT:          0  MISS:          0
cpu0_ITLB WRITEBACK ACCESS:          0  HIT:          0  MISS:          0
cpu0_L1I TOTAL     ACCESS:      19338  HIT:      18932  MISS:        406
cpu0_L1I LOAD      ACCESS:      19338  HIT:      18932  MISS:        406
cpu0_L1I RFO       ACCESS:          0  HIT:          0  MISS:          0
cpu0_L1I PREFETCH  ACCESS:          0  HIT:          0  MISS:          0
cpu0_L1I WRITEBACK ACCESS:          0  HIT:          0  MISS:          0
cpu0_STLB TOTAL     ACCESS:      12272  HIT:       2348  MISS:       9924
cpu0_STLB LOAD      ACCESS:       9005  HIT:       2311  MISS:       6694
cpu0_STLB RFO       ACCESS:       3267  HIT:         37  MISS:       3230
cpu0_STLB PREFETCH  ACCESS:          0  HIT:          0  MISS:          0
cpu0_STLB WRITEBACK ACCESS:          0  HIT:          0  MISS:          0
cpu0_L1D TOTAL     ACCESS:    8879712  HIT:    8264369  MISS:     615343
cpu0_L1D LOAD      ACCESS:    7432532  HIT:    7028976  MISS:     403556
cpu0_L1D RFO       ACCESS:    1438539  HIT:    1227121  MISS:     211418
cpu0_L1D PREFETCH  ACCESS:          0  HIT:          0  MISS:          0
cpu0_L1D WRITEBACK ACCESS:          0  HIT:          0  MISS:          0
cpu0_L2C TOTAL     ACCESS:     865388  HIT:     342050  MISS:     523338
cpu0_L2C LOAD      ACCESS:     403960  HIT:      83500  MISS:     320460
cpu0_L2C RFO       ACCESS:     211418  HIT:       8647  MISS:     202771
cpu0_L2C PREFETCH  ACCESS:          0  HIT:          0  MISS:          0
cpu0_L2C WRITEBACK ACCESS:     249641  HIT:     249601  MISS:         40
LLC TOTAL     ACCESS:     752448  HIT:     228064  MISS:     524384
LLC LOAD      ACCESS:     320460  HIT:        313  MISS:     320147
LLC RFO       ACCESS:     202771  HIT:         82  MISS:     202689
LLC PREFETCH  ACCESS:          0  HIT:          0  MISS:          0
LLC WRITEBACK ACCESS:     229150  HIT:     227659  MISS:       1491
Heartbeat CPU 0 instructions: 104000002 cycles: 63750119 heartbeat IPC: 1.66884 cumulative IPC: 1.13169 (Simulation time: 1 hr 36 min 33 sec) 

Region of Interest Statistics
cpu0_DTLB TOTAL     ACCESS:   11642196  HIT:   11629780  MISS:      12416
cpu0_DTLB LOAD      ACCESS:    9705872  HIT:    9696728  MISS:       9144
cpu0_DTLB RFO       ACCESS:    1936324  HIT:    1933052  MISS:       3272
cpu0_DTLB PREFETCH  ACCESS:          0  HIT:          0  MISS:          0
cpu0_DTLB WRITEBACK ACCESS:          0  HIT:          0  MISS:          0
cpu0_ITLB TOTAL     ACCESS:     999517  HIT:     999500  MISS:         17
cpu0_ITLB LOAD      ACCESS:     999517  HIT:     999500  MISS:         17
cpu0_ITLB RFO       ACCESS:          0  HIT:          0  MISS:          0
cpu0_ITLB PREFETCH  ACCESS:          0  HIT:          0  MISS:          0
cpu0_ITLB WRITEBACK ACCESS:          0  HIT:          0  MISS:          0
cpu0_L1I TOTAL     ACCESS:      21780  HIT:      21374  MISS:        406
cpu0_L1I LOAD      ACCESS:      21780  HIT:      21374  MISS:        406
cpu0_L1I RFO       ACCESS:          0  HIT:          0  MISS:          0
cpu0_L1I PREFETCH  ACCESS:          0  HIT:          0  MISS:          0
cpu0_L1I WRITEBACK ACCESS:          0  HIT:          0  MISS:          0
cpu0_STLB TOTAL     ACCESS:      12433  HIT:       2372  MISS:      10061
cpu0_STLB LOAD      ACCESS:       9161  HIT:       2330  MISS:       6831
cpu0_STLB RFO       ACCESS:       3272  HIT:         42  MISS:       3230
cpu0_STLB PREFETCH  ACCESS:          0  HIT:          0  MISS:          0
cpu0_STLB WRITEBACK ACCESS:          0  HIT:          0  MISS:          0
cpu0_L1D TOTAL     ACCESS:    9474795  HIT:    8846014  MISS:     628781
cpu0_L1D LOAD      ACCESS:    7955092  HIT:    7540070  MISS:     415022
cpu0_L1D RFO       ACCESS:    1510925  HIT:    1297563  MISS:     213362
cpu0_L1D PREFETCH  ACCESS:          0  HIT:          0  MISS:          0
cpu0_L1D WRITEBACK ACCESS:          0  HIT:          0  MISS:          0
cpu0_L2C TOTAL     ACCESS:     883499  HIT:     351623  MISS:     531876
cpu0_L2C LOAD      ACCESS:     415425  HIT:      86427  MISS:     328998
cpu0_L2C RFO       ACCESS:     213362  HIT:      10591  MISS:     202771
cpu0_L2C PREFETCH  ACCESS:          0  HIT:          0  MISS:          0
cpu0_L2C WRITEBACK ACCESS:     254315  HIT:     254275  MISS:         40
LLC TOTAL     ACCESS:     761682  HIT:     228691  MISS:     532991
LLC LOAD      ACCESS:     328998  HIT:        313  MISS:     328685
LLC RFO       ACCESS:     202771  HIT:         82  MISS:     202689
LLC PREFETCH  ACCESS:          0  HIT:          0  MISS:          0
LLC WRITEBACK ACCESS:     229846  HIT:     228286  MISS:       1560
Heartbeat CPU 0 instructions: 106000003 cycles: 64942815 heartbeat IPC: 1.67687 cumulative IPC: 1.14498 (Simulation time: 1 hr 38 min 43 sec) 

Region of Interest Statistics
cpu0_DTLB TOTAL     ACCESS:   12167465  HIT:   12154884  MISS:      12581
cpu0_DTLB LOAD      ACCESS:   10196054  HIT:   10186751  MISS:       9303
cpu0_DTLB RFO       ACCESS:    1971411  HIT:    1968133  MISS:       3278
cpu0_DTLB PREFETCH  ACCESS:          0  HIT:          0  MISS:          0
cpu0_DTLB WRITEBACK ACCESS:          0  HIT:          0  MISS:          0
cpu0_ITLB TOTAL     ACCESS:    1024278  HIT:    1024261  MISS:         17
cpu0_ITLB LOAD      ACCESS:    1024278  HIT:    1024261  MISS:         17
cpu0_ITLB RFO       ACCESS:          0  HIT:          0  MISS:          0
cpu0_ITLB PREFETCH  ACCESS:          0  HIT:          0  MISS:          0
cpu0_ITLB WRITEBACK ACCESS:          0  HIT:          0  MISS:          0
cpu0_L1I TOTAL     ACCESS:      24239  HIT:      23833  MISS:        406
cpu0_L1I LOAD      ACCESS:      24239  HIT:      23833  MISS:        406
cpu0_L1I RFO       ACCESS:          0  HIT:          0  MISS:          0
cpu0_L1I PREFETCH  ACCESS:          0  HIT:          0  MISS:          0
cpu0_L1I WRITEBACK ACCESS:          0  HIT:          0  MISS:          0
cpu0_STLB TOTAL     ACCESS:      12598  HIT:       2400  MISS:      10198
cpu0_STLB LOAD      ACCESS:       9320  HIT:       2352  MISS:       6968
cpu0_STLB RFO       ACCESS:       3278  HIT:         48  MISS:       3230
cpu0_STLB PREFETCH  ACCESS:          0  HIT:          0  MISS:          0
cpu0_STLB WRITEBACK ACCESS:          0  HIT:          0  MISS:          0
cpu0_L1D TOTAL     ACCESS:   10070378  HIT:    9428281  MISS:     642097
cpu0_L1D LOAD      ACCESS:    8478231  HIT:    8051815  MISS:     426416
cpu0_L1D RFO       ACCESS:    1583232  HIT:    1367978  MISS:     215254
cpu0_L1D PREFETCH  ACCESS:          0  HIT:          0  MISS:          0
cpu0_L1D WRITEBACK ACCESS:          0  HIT:          0  MISS:          0
cpu0_L2C TOTAL     ACCESS:     901493  HIT:     361028  MISS:     540465
cpu0_L2C LOAD      ACCESS:     426819  HIT:      89233  MISS:     337586
cpu0_L2C RFO       ACCESS:     215254  HIT:      12483  MISS:     202771
cpu0_L2C PREFETCH  ACCESS:          0  HIT:          0  MISS:          0
cpu0_L2C WRITEBACK ACCESS:     258993  HIT:     258953  MISS:         40
LLC TOTAL     ACCESS:     771311  HIT:     229723  MISS:     541588
LLC LOAD      ACCESS:     337586  HIT:        314  MISS:     337272
LLC RFO       ACCESS:     202771  HIT:         82  MISS:     202689
LLC PREFETCH  ACCESS:          0  HIT:          0  MISS:          0
LLC WRITEBACK ACCESS:     230886  HIT:     229317  MISS:       1569
[...]
cpu0_DTLB LOAD      ACCESS:  277452057  HIT:  277157681  MISS:     294376
cpu0_DTLB RFO       ACCESS:   48909160  HIT:   48867095  MISS:      42065
cpu0_DTLB PREFETCH  ACCESS:          0  HIT:          0  MISS:          0
cpu0_DTLB WRITEBACK ACCESS:          0  HIT:          0  MISS:          0
cpu0_ITLB TOTAL     ACCESS:   34653380  HIT:   34653310  MISS:         70
cpu0_ITLB LOAD      ACCESS:   34653380  HIT:   34653310  MISS:         70
cpu0_ITLB RFO       ACCESS:          0  HIT:          0  MISS:          0
cpu0_ITLB PREFETCH  ACCESS:          0  HIT:          0  MISS:          0
cpu0_ITLB WRITEBACK ACCESS:          0  HIT:          0  MISS:          0
cpu0_L1I TOTAL     ACCESS:   23407085  HIT:   23403887  MISS:       3198
cpu0_L1I LOAD      ACCESS:   23407085  HIT:   23403887  MISS:       3198
cpu0_L1I RFO       ACCESS:          0  HIT:          0  MISS:          0
cpu0_L1I PREFETCH  ACCESS:          0  HIT:          0  MISS:          0
cpu0_L1I WRITEBACK ACCESS:          0  HIT:          0  MISS:          0
cpu0_STLB TOTAL     ACCESS:     336511  HIT:     201319  MISS:     135192
cpu0_STLB LOAD      ACCESS:     294446  HIT:     180296  MISS:     114150
cpu0_STLB RFO       ACCESS:      42065  HIT:      21023  MISS:      21042
cpu0_STLB PREFETCH  ACCESS:          0  HIT:          0  MISS:          0
cpu0_STLB WRITEBACK ACCESS:          0  HIT:          0  MISS:          0
cpu0_L1D TOTAL     ACCESS:  297495917  HIT:  284358518  MISS:   13137399
cpu0_L1D LOAD      ACCESS:  220671226  HIT:  209701925  MISS:   10969301
cpu0_L1D RFO       ACCESS:   76697054  HIT:   74541376  MISS:    2155678
cpu0_L1D PREFETCH  ACCESS:          0  HIT:          0  MISS:          0
cpu0_L1D WRITEBACK ACCESS:          0  HIT:          0  MISS:          0
cpu0_L2C TOTAL     ACCESS:   17414079  HIT:    8204840  MISS:    9209239
cpu0_L2C LOAD      ACCESS:   10972405  HIT:    3255602  MISS:    7716803
cpu0_L2C RFO       ACCESS:    2155668  HIT:     670867  MISS:    1484801
cpu0_L2C PREFETCH  ACCESS:          0  HIT:          0  MISS:          0
cpu0_L2C WRITEBACK ACCESS:    4273586  HIT:    4267318  MISS:       6268
LLC TOTAL     ACCESS:   12452341  HIT:    3238462  MISS:    9213879
LLC LOAD      ACCESS:    7716803  HIT:      35558  MISS:    7681245
LLC RFO       ACCESS:    1484801  HIT:       5152  MISS:    1479649
LLC PREFETCH  ACCESS:          0  HIT:          0  MISS:          0
LLC WRITEBACK ACCESS:    3249370  HIT:    3197524  MISS:      51846
Heartbeat CPU 0 instructions: 1550000003 cycles: 1288243951 heartbeat IPC: 0.583544 cumulative IPC: 1.17905 (Simulation time: 20 hr 27 min 0 sec) 

Region of Interest Statistics
cpu0_DTLB TOTAL     ACCESS:  326585225  HIT:  326248507  MISS:     336718
cpu0_DTLB LOAD      ACCESS:  277662569  HIT:  277367956  MISS:     294613
cpu0_DTLB RFO       ACCESS:   48922656  HIT:   48880551  MISS:      42105
cpu0_DTLB PREFETCH  ACCESS:          0  HIT:          0  MISS:          0
cpu0_DTLB WRITEBACK ACCESS:          0  HIT:          0  MISS:          0
cpu0_ITLB TOTAL     ACCESS:   34903291  HIT:   34903221  MISS:         70
cpu0_ITLB LOAD      ACCESS:   34903291  HIT:   34903221  MISS:         70
cpu0_ITLB RFO       ACCESS:          0  HIT:          0  MISS:          0
cpu0_ITLB PREFETCH  ACCESS:          0  HIT:          0  MISS:          0
cpu0_ITLB WRITEBACK ACCESS:          0  HIT:          0  MISS:          0
cpu0_L1I TOTAL     ACCESS:   23407085  HIT:   23403887  MISS:       3198
cpu0_L1I LOAD      ACCESS:   23407085  HIT:   23403887  MISS:       3198
cpu0_L1I RFO       ACCESS:          0  HIT:          0  MISS:          0
cpu0_L1I PREFETCH  ACCESS:          0  HIT:          0  MISS:          0
cpu0_L1I WRITEBACK ACCESS:          0  HIT:          0  MISS:          0
cpu0_STLB TOTAL     ACCESS:     336788  HIT:     201319  MISS:     135469
cpu0_STLB LOAD      ACCESS:     294683  HIT:     180296  MISS:     114387
cpu0_STLB RFO       ACCESS:      42105  HIT:      21023  MISS:      21082
cpu0_STLB PREFETCH  ACCESS:          0  HIT:          0  MISS:          0
cpu0_STLB WRITEBACK ACCESS:          0  HIT:          0  MISS:          0
cpu0_L1D TOTAL     ACCESS:  297668174  HIT:  284513701  MISS:   13154473
cpu0_L1D LOAD      ACCESS:  220823523  HIT:  209839496  MISS:   10984027
cpu0_L1D RFO       ACCESS:   76716737  HIT:   74558711  MISS:    2158026
cpu0_L1D PREFETCH  ACCESS:          0  HIT:          0  MISS:          0
cpu0_L1D WRITEBACK ACCESS:          0  HIT:          0  MISS:          0
cpu0_L2C TOTAL     ACCESS:   17433520  HIT:    8207251  MISS:    9226269
cpu0_L2C LOAD      ACCESS:   10987131  HIT:    3255646  MISS:    7731485
cpu0_L2C RFO       ACCESS:    2158016  HIT:     670867  MISS:    1487149
cpu0_L2C PREFETCH  ACCESS:          0  HIT:          0  MISS:          0
cpu0_L2C WRITEBACK ACCESS:    4275953  HIT:    4269685  MISS:       6268
LLC TOTAL     ACCESS:   12471705  HIT:    3240796  MISS:    9230909
LLC LOAD      ACCESS:    7731485  HIT:      35558  MISS:    7695927
LLC RFO       ACCESS:    1487149  HIT:       5152  MISS:    1481997
LLC PREFETCH  ACCESS:          0  HIT:          0  MISS:          0
LLC WRITEBACK ACCESS:    3251704  HIT:    3199858  MISS:      51846
Finished CPU 0 instructions: 1500000000 cycles: 1272210118 cumulative IPC: 1.17905 (Simulation time: 20 hr 27 min 0 sec) 

ChampSim completed all CPUs

Region of Interest Statistics

CPU 0 cumulative IPC: 1.17905 instructions: 1500000000 cycles: 1272210118
cpu0_DTLB TOTAL     ACCESS:  326585225  HIT:  326248507  MISS:     336718
cpu0_DTLB LOAD      ACCESS:  277662569  HIT:  277367956  MISS:     294613
cpu0_DTLB RFO       ACCESS:   48922656  HIT:   48880551  MISS:      42105
cpu0_DTLB PREFETCH  ACCESS:          0  HIT:          0  MISS:          0
cpu0_DTLB WRITEBACK ACCESS:          0  HIT:          0  MISS:          0
cpu0_DTLB TRANSLATION ACCESS:          0  HIT:          0  MISS:          0
cpu0_DTLB PREFETCH  REQUESTED:          0  ISSUED:          0  USEFUL:          0  USELESS:          0
cpu0_DTLB AVERAGE MISS LATENCY: 55.6412 cycles
cpu0_ITLB TOTAL     ACCESS:   34903291  HIT:   34903221  MISS:         70
cpu0_ITLB LOAD      ACCESS:   34903291  HIT:   34903221  MISS:         70
cpu0_ITLB RFO       ACCESS:          0  HIT:          0  MISS:          0
cpu0_ITLB PREFETCH  ACCESS:          0  HIT:          0  MISS:          0
cpu0_ITLB WRITEBACK ACCESS:          0  HIT:          0  MISS:          0
cpu0_ITLB TRANSLATION ACCESS:          0  HIT:          0  MISS:          0
cpu0_ITLB PREFETCH  REQUESTED:          0  ISSUED:          0  USEFUL:          0  USELESS:          0
cpu0_ITLB AVERAGE MISS LATENCY: 285.114 cycles
cpu0_L1I TOTAL     ACCESS:   23407085  HIT:   23403887  MISS:       3198
cpu0_L1I LOAD      ACCESS:   23407085  HIT:   23403887  MISS:       3198
cpu0_L1I RFO       ACCESS:          0  HIT:          0  MISS:          0
cpu0_L1I PREFETCH  ACCESS:          0  HIT:          0  MISS:          0
cpu0_L1I WRITEBACK ACCESS:          0  HIT:          0  MISS:          0
cpu0_L1I TRANSLATION ACCESS:          0  HIT:          0  MISS:          0
cpu0_L1I PREFETCH  REQUESTED:          0  ISSUED:          0  USEFUL:          0  USELESS:          0
cpu0_L1I AVERAGE MISS LATENCY: 401.017 cycles
cpu0_STLB TOTAL     ACCESS:     336788  HIT:     201319  MISS:     135469
cpu0_STLB LOAD      ACCESS:     294683  HIT:     180296  MISS:     114387
cpu0_STLB RFO       ACCESS:      42105  HIT:      21023  MISS:      21082
cpu0_STLB PREFETCH  ACCESS:          0  HIT:          0  MISS:          0
cpu0_STLB WRITEBACK ACCESS:          0  HIT:          0  MISS:          0
cpu0_STLB TRANSLATION ACCESS:          0  HIT:          0  MISS:          0
cpu0_STLB PREFETCH  REQUESTED:          0  ISSUED:          0  USEFUL:          0  USELESS:          0
cpu0_STLB AVERAGE MISS LATENCY: 115.975 cycles
cpu0_L1D TOTAL     ACCESS:  297668174  HIT:  284513701  MISS:   13154473
cpu0_L1D LOAD      ACCESS:  220823523  HIT:  209839496  MISS:   10984027
cpu0_L1D RFO       ACCESS:   76716737  HIT:   74558711  MISS:    2158026
cpu0_L1D PREFETCH  ACCESS:          0  HIT:          0  MISS:          0
cpu0_L1D WRITEBACK ACCESS:          0  HIT:          0  MISS:          0
cpu0_L1D TRANSLATION ACCESS:     127914  HIT:     115494  MISS:      12420
cpu0_L1D PREFETCH  REQUESTED:          0  ISSUED:          0  USEFUL:          0  USELESS:          0
cpu0_L1D AVERAGE MISS LATENCY: 219.787 cycles
cpu0_L2C TOTAL     ACCESS:   17433520  HIT:    8207251  MISS:    9226269
cpu0_L2C LOAD      ACCESS:   10987131  HIT:    3255646  MISS:    7731485
cpu0_L2C RFO       ACCESS:    2158016  HIT:     670867  MISS:    1487149
cpu0_L2C PREFETCH  ACCESS:          0  HIT:          0  MISS:          0
cpu0_L2C WRITEBACK ACCESS:    4275953  HIT:    4269685  MISS:       6268
cpu0_L2C TRANSLATION ACCESS:      12420  HIT:      11053  MISS:       1367
cpu0_L2C PREFETCH  REQUESTED:          0  ISSUED:          0  USEFUL:          0  USELESS:          0
cpu0_L2C AVERAGE MISS LATENCY: 297.784 cycles
LLC TOTAL     ACCESS:   12471705  HIT:    3240796  MISS:    9230909
LLC LOAD      ACCESS:    7731485  HIT:      35558  MISS:    7695927
LLC RFO       ACCESS:    1487149  HIT:       5152  MISS:    1481997
LLC PREFETCH  ACCESS:          0  HIT:          0  MISS:          0
LLC WRITEBACK ACCESS:    3251704  HIT:    3199858  MISS:      51846
LLC TRANSLATION ACCESS:       1367  HIT:        228  MISS:       1139
LLC PREFETCH  REQUESTED:          0  ISSUED:          0  USEFUL:          0  USELESS:          0
LLC AVERAGE MISS LATENCY: 276.659 cycles
~~~~~~~~~~Reuse Distance Profiler output~~~~~~~~~~
0	0	0
1	0	0
2	0	0
3	0	0
4	0	0
5	0	0
6	0	0
7	0	0
8	0	0
9	0	0
10	0	0
11	0	0
12	0	0
13	0	0
14	0	0
15	0	0
16	0	0
17	0	0
18	0	0
19	0	0
20	0	0
21	0	0
22	0	0
23	0	0
24	0	0
25	0	0
26	0	0
27	0	0
28	0	0
29	0	0
30	0	0
31	0	0
32	0	0
33	0	0
34	0	0
35	0	0
36	0	0
37	0	0
38	0	0
39	0	0
40	0	0
41	0	0
42	0	0
43	0	0
44	0	0
45	0	0
46	0	0
47	0	0
48	0	0
49	0	0
50	0	0
51	0	0
52	0	0
53	0	0
54	0	0
55	0	0
56	0	0
57	0	0
58	0	0
59	0	0
60	0	0
61	0	0
62	0	0
63	0	0
64	0	0
66	0	0
68	0	0
70	0	0
72	0	0
74	0	0
76	0	0
78	0	0
80	0	0
82	0	0
84	0	0
86	0	0
88	0	0
90	0	0
92	0	0
94	0	0
96	0	0
98	0	0
100	0	0
102	0	0
104	0	0
106	0	0
108	0	0
110	0	0
112	0	0
114	0	0
116	0	0
118	0	0
120	0	0
122	0	0
124	0	0
126	0	0
128	0	0
132	0	0
136	0	0
140	0	0
144	0	0
148	0	0
152	0	0
156	0	0
160	0	0
164	0	0
168	0	0
172	0	0
176	0	0
180	0	0
184	0	0
188	0	0
192	0	0
196	0	0
200	0	0
204	0	0
208	0	0
212	0	0
216	0	0
220	0	0
224	0	0
228	0	0
232	0	0
236	0	0
240	0	0
244	0	0
248	0	0
252	0	0
256	0	0
264	0	0
272	0	0
280	0	0
288	0	0
296	0	0
304	0	0
312	0	0
320	0	0
328	0	0
336	0	0
344	0	0
352	0	0
360	0	0
368	0	0
376	0	0
384	0	0
392	0	0
400	0	0
408	0	0
416	0	0
424	0	0
432	0	0
440	0	0
448	0	0
456	0	0
464	0	0
472	0	0
480	0	0
488	0	0
496	0	0
504	0	0
512	0	0
528	0	0
544	0	0
560	0	0
576	0	0
592	0	0
608	0	0
624	0	0
640	0	0
656	0	0
672	0	0
688	0	0
704	0	0
720	0	0
736	0	0
752	0	0
768	0	0
784	0	0
800	0	0
816	0	0
832	0	0
848	0	0
864	0	0
880	0	0
896	0	0
912	0	0
928	0	0
944	0	0
960	0	0
976	0	0
992	0	0
1008	0	0
1024	0	0
1056	0	0
1088	0	0
1120	0	0
1152	0	0
1184	0	0
1216	0	0
1248	0	0
1280	0	0
1312	0	0
1344	0	0
1376	0	0
1408	0	0
1440	0	0
1472	0	0
1504	0	0
1536	0	0
1568	0	0
1600	0	0
1632	0	0
1664	0	0
1696	0	0
1728	0	0
1760	0	0
1792	0	0
1824	0	0
1856	0	0
1888	0	0
1920	0	0
1952	0	0
1984	0	0
2016	0	0
2048	0	0
2112	0	0
2176	0	0
2240	0	0
2304	0	0
2368	0	0
2432	0	0
2496	0	0
2560	0	0
2624	0	0
2688	0	0
2752	0	0
2816	0	0
2880	0	0
2944	0	0
3008	0	0
3072	0	0
3136	0	0
3200	0	0
3264	0	0
3328	0	0
3392	0	0
3456	0	0
3520	0	0
3584	0	0
3648	0	0
3712	0	0
3776	0	0
3840	0	0
3904	0	0
3968	0	0
4032	0	0
4096	0	0
4224	0	0
4352	0	0
4480	0	0
4608	0	0
4736	0	0
4864	0	0
4992	0	0
5120	0	0
5248	0	0
5376	0	0
5504	0	0
5632	0	0
5760	0	0
5888	0	0
6016	0	0
6144	0	0
6272	0	0
6400	0	0
6528	0	0
6656	0	0
6784	0	0
6912	0	0
7040	0	0
7168	0	0
7296	0	0
7424	0	0
7552	0	0
7680	0	0
7808	0	0
7936	0	0
8064	0	0
8192	0	0
8448	0	0
8704	0	0
8960	0	0
9216	0	0
9472	0	0
9728	0	0
9984	0	0
10240	0	0
10496	0	0
10752	0	0
11008	0	0
11264	0	0
11520	0	0
11776	0	0
12032	0	0
12288	0	0
12544	0	0
12800	0	0
13056	0	0
13312	0	0
13568	0	0
13824	0	0
14080	0	0
14336	0	0
14592	0	0
14848	0	0
15104	0	0
15360	0	0
15616	0	0
15872	0	0
16128	0	0
16384	0	0
16896	0	0
17408	0	0
17920	0	0
18432	0	0
18944	0	0
19456	0	0
19968	0	0
20480	0	0
20992	0	0
21504	0	0
22016	0	0
22528	0	0
23040	0	0
23552	0	0
24064	0	0
24576	0	0
25088	0	0
25600	0	0
26112	0	0
26624	0	0
27136	0	0
27648	0	0
28160	0	0
28672	0	0
29184	0	0
29696	0	0
30208	0	0
30720	0	0
31232	0	0
31744	0	0
32256	0	0
32768	0	0
33792	0	0
34816	0	0
35840	0	0
36864	0	0
37888	0	0
38912	0	0
39936	0	0
40960	0	0
41984	0	0
43008	0	0
44032	0	0
45056	0	0
46080	0	0
47104	0	0
48128	0	0
49152	0	0
50176	0	0
51200	0	0
52224	0	0
53248	0	0
54272	0	0
55296	0	0
56320	0	0
57344	0	0
58368	0	0
59392	0	0
60416	0	0
61440	0	0
62464	0	0
63488	0	0
64512	0	0
65536	0	0
67584	0	0
69632	0	0
71680	0	0
73728	0	0
75776	0	0
77824	0	0
79872	0	0
81920	0	0
83968	0	0
86016	0	0
88064	0	0
90112	0	0
92160	0	0
94208	0	0
96256	0	0
98304	0	0
100352	0	0
102400	0	0
104448	0	0
106496	0	0
108544	0	0
110592	0	0
112640	0	0
114688	0	0
116736	0	0
118784	0	0
120832	0	0
122880	0	0
124928	0	0
126976	0	0
129024	0	0
131072	0	0
135168	0	0
139264	0	0
143360	0	0
147456	0	0
151552	0	0
155648	0	0
159744	0	0
163840	0	0
167936	0	0
172032	0	0
176128	0	0
180224	0	0
184320	0	0
188416	0	0
192512	0	0
196608	0	0
200704	0	0
204800	0	0
208896	0	0
212992	0	0
217088	0	0
221184	0	0
225280	0	0
229376	0	0
233472	0	0
237568	0	0
241664	0	0
245760	0	0
249856	0	0
253952	0	0
258048	0	0
262144	0	0
270336	0	0
278528	0	0
286720	0	0
294912	0	0
303104	0	0
311296	0	0
319488	0	0
327680	0	0
335872	0	0
344064	0	0
352256	0	0
360448	0	0
368640	0	0
376832	0	0
385024	0	0
393216	0	0
401408	0	0
409600	0	0
417792	0	0
425984	0	0
434176	0	0
442368	0	0
450560	0	0
458752	0	0
466944	0	0
475136	0	0
483328	0	0
491520	0	0
499712	0	0
507904	0	0
516096	0	0
524288	0	0
540672	0	0
557056	0	0
573440	0	0
589824	0	0
606208	0	0
622592	0	0
638976	0	0
655360	0	0
671744	0	0
688128	0	0
704512	0	0
720896	0	0
737280	0	0
753664	0	0
770048	0	0
786432	0	0
802816	0	0
819200	0	0
835584	0	0
851968	0	0
868352	0	0
884736	0	0
901120	0	0
917504	0	0
933888	0	0
950272	0	0
966656	0	0
983040	0	0
999424	0	0
1015808	0	0
1032192	0	0
1048576	0	0
1081344	0	0
1114112	0	0
1146880	0	0
1179648	0	0
1212416	0	0
1245184	0	0
1277952	0	0
1310720	0	0
1343488	0	0
1376256	0	0
1409024	0	0
1441792	0	0
1474560	0	0
1507328	0	0
1540096	0	0
1572864	0	0
1605632	0	0
1638400	0	0
1671168	0	0
1703936	0	0
1736704	0	0
1769472	0	0
1802240	0	0
1835008	0	0
1867776	0	0
1900544	0	0
1933312	0	0
1966080	0	0
1998848	0	0
2031616	0	0
2064384	0	0
2097152	0	0
2162688	0	0
2228224	0	0
2293760	0	0
2359296	0	0
2424832	0	0
2490368	0	0
2555904	0	0
2621440	0	0
2686976	0	0
2752512	0	0
2818048	0	0
2883584	0	0
2949120	0	0
3014656	0	0
3080192	0	0
3145728	0	0
3211264	0	0
3276800	0	0
3342336	0	0
3407872	0	0
3473408	0	0
3538944	0	0
3604480	0	0
3670016	0	0
3735552	0	0
3801088	0	0
3866624	0	0
3932160	0	0
3997696	0	0
4063232	0	0
4128768	0	0
4194304	0	0
4325376	0	0
4456448	0	0
4587520	0	0
4718592	0	0
4849664	0	0
4980736	0	0
5111808	0	0
5242880	0	0
5373952	0	0
5505024	0	0
5636096	0	0
5767168	0	0
5898240	0	0
6029312	0	0
6160384	0	0
6291456	0	0
6422528	0	0
6553600	0	0
6684672	0	0
6815744	0	0
6946816	0	0
7077888	0	0
7208960	0	0
7340032	0	0
7471104	0	0
7602176	0	0
7733248	0	0
7864320	0	0
7995392	0	0
8126464	0	0
8257536	0	0
8388608	0	0
8650752	0	0
8912896	0	0
9175040	0	0
9437184	0	0
9699328	0	0
9961472	0	0
10223616	0	0
10485760	0	0
10747904	0	0
11010048	0	0
11272192	0	0
11534336	0	0
11796480	0	0
12058624	0	0
12320768	0	0
12582912	0	0
12845056	0	0
13107200	0	0
13369344	0	0
13631488	0	0
13893632	0	0
14155776	0	0
14417920	0	0
14680064	0	0
14942208	0	0
15204352	0	0
15466496	0	0
15728640	0	0
15990784	0	0
16252928	0	0
16515072	0	0
16777216	0	0
17301504	0	0
17825792	0	0
18350080	0	0
18874368	0	0
19398656	0	0
19922944	0	0
20447232	0	0
20971520	0	0
21495808	0	0
22020096	0	0
22544384	0	0
23068672	0	0
23592960	0	0
24117248	0	0
24641536	0	0
25165824	0	0
25690112	0	0
26214400	0	0
26738688	0	0
27262976	0	0
27787264	0	0
28311552	0	0
28835840	0	0
29360128	0	0
29884416	0	0
30408704	0	0
30932992	0	0
31457280	0	0
31981568	0	0
32505856	0	0
33030144	0	0
33554432	0	0
34603008	0	0
35651584	0	0
36700160	0	0
37748736	0	0
38797312	0	0
39845888	0	0
40894464	0	0
41943040	0	0
42991616	0	0
44040192	0	0
45088768	0	0
46137344	0	0
47185920	0	0
48234496	0	0
49283072	0	0
50331648	0	0
51380224	0	0
52428800	0	0
53477376	0	0
54525952	0	0
55574528	0	0
56623104	0	0
57671680	0	0
58720256	0	0
59768832	0	0
60817408	0	0
61865984	0	0
62914560	0	0
63963136	0	0
65011712	0	0
66060288	0	0
67108864	0	0
69206016	0	0
71303168	0	0
73400320	0	0
75497472	0	0
77594624	0	0
79691776	0	0
81788928	0	0
83886080	0	0
85983232	0	0
88080384	0	0
90177536	0	0
92274688	0	0
94371840	0	0
96468992	0	0
98566144	0	0
100663296	0	0
102760448	0	0
104857600	0	0
106954752	0	0
109051904	0	0
111149056	0	0
113246208	0	0
115343360	0	0
117440512	0	0
119537664	0	0
121634816	0	0
123731968	0	0
125829120	0	0
127926272	0	0
130023424	0	0
132120576	0	0
134217728	0	0
138412032	0	0
142606336	0	0
146800640	0	0
150994944	0	0
155189248	0	0
159383552	0	0
163577856	0	0
167772160	0	0
171966464	0	0
176160768	0	0
180355072	0	0
184549376	0	0
188743680	0	0
192937984	0	0
197132288	0	0
201326592	0	0
205520896	0	0
209715200	0	0
213909504	0	0
218103808	0	0
222298112	0	0
226492416	0	0
230686720	0	0
234881024	0	0
239075328	0	0
243269632	0	0
247463936	0	0
251658240	0	0
255852544	0	0
260046848	0	0
264241152	0	0
268435456	0	0
276824064	0	0
285212672	0	0
293601280	0	0
301989888	0	0
310378496	0	0
318767104	0	0
327155712	0	0
335544320	0	0
343932928	0	0
352321536	0	0
360710144	0	0
369098752	0	0
377487360	0	0
385875968	0	0
394264576	0	0
402653184	0	0
411041792	0	0
419430400	0	0
427819008	0	0
436207616	0	0
444596224	0	0
452984832	0	0
461373440	0	0
469762048	0	0
478150656	0	0
486539264	0	0
494927872	0	0
503316480	0	0
511705088	0	0
520093696	0	0
528482304	0	0
536870912	0	0
553648128	0	0
570425344	0	0
587202560	0	0
603979776	0	0
620756992	0	0
637534208	0	0
654311424	0	0
671088640	0	0
687865856	0	0
704643072	0	0
721420288	0	0
738197504	0	0
754974720	0	0
771751936	0	0
788529152	0	0
805306368	0	0
822083584	0	0
838860800	0	0
855638016	0	0
872415232	0	0
889192448	0	0
905969664	0	0
922746880	0	0
939524096	0	0
956301312	0	0
973078528	0	0
989855744	0	0
1006632960	0	0
1023410176	0	0
1040187392	0	0
1056964608	0	0
1073741824	0	0
1107296256	0	0
1140850688	0	0
1174405120	0	0
1207959552	0	0
1241513984	0	0
1275068416	0	0
1308622848	0	0
1342177280	0	0
1375731712	0	0
1409286144	0	0
1442840576	0	0
1476395008	0	0
1509949440	0	0
1543503872	0	0
1577058304	0	0
1610612736	0	0
1644167168	0	0
1677721600	0	0
1711276032	0	0
1744830464	0	0
1778384896	0	0
1811939328	0	0
1845493760	0	0
1879048192	0	0
1912602624	0	0
1946157056	0	0
1979711488	0	0
2013265920	0	0
2046820352	0	0
2080374784	0	0
2113929216	0	0
2147483648	0	0
2214592512	0	0
2281701376	0	0
2348810240	0	0
2415919104	0	0
2483027968	0	0
2550136832	0	0
2617245696	0	0
2684354560	0	0
2751463424	0	0
2818572288	0	0
2885681152	0	0
2952790016	0	0
3019898880	0	0
3087007744	0	0
3154116608	0	0
3221225472	0	0
3288334336	0	0
3355443200	0	0
3422552064	0	0
3489660928	0	0
3556769792	0	0
3623878656	0	0
3690987520	0	0
3758096384	0	0
3825205248	0	0
3892314112	0	0
3959422976	0	0
4026531840	0	0
4093640704	0	0
4160749568	0	0
4227858432	0	0
~~~~~~~~~~Reuse Distance Profiler output end~~~~~~~~~~

Sampler size:0

DRAM Statistics
 CHANNEL 0
 RQ ROW_BUFFER_HIT:     510112  ROW_BUFFER_MISS:    8668732
 DBUS AVG_CONGESTED_CYCLE:     3.9623
 WQ ROW_BUFFER_HIT:     408674  ROW_BUFFER_MISS:    2836061  FULL:          0


CPU 0 Branch Prediction Accuracy: 96.4597% MPKI: 2.15102 Average ROB Occupancy at Mispredict: 258.677
Branch type MPKI
BRANCH_DIRECT_JUMP: 0.000124667
BRANCH_INDIRECT: 0
BRANCH_CONDITIONAL: 2.15077
BRANCH_DIRECT_CALL: 6.53333e-05
BRANCH_INDIRECT_CALL: 0
BRANCH_RETURN: 6.33333e-05

