
*** ChampSim Multicore Out-of-Order Simulator ***

Warmup Instructions: 50000000
Simulation Instructions: 1500000000
Number of CPUs: 1
Off-chip DRAM Size: 4 GiB Channels: 1 Width: 64-bit Data Rate: 3200 MT/s

VirtualMemory physical capacity: 8588881920 num_ppages: 2096895
VirtualMemory page size: 4096 log2_page_size: 12

CPU 0 runs /s/traces/champsim_traces/482.sphinx3-1522B.champsimtrace.xz
CPU 0 Bimodal branch predictor
Basic BTB sets: 1024 ways: 8 indirect buffer size: 4096 RAS size: 64
Initializing LRU.
Initializing LRU.
Initializing LRU.
Initializing LRU.
Initializing rdLRU.
Initializing LRU.
Initializing LRU.
Heartbeat CPU 0 instructions: 2000002 cycles: 531727 heartbeat IPC: 3.76133 cumulative IPC: 3.76133 (Simulation time: 0 hr 1 min 0 sec) 
Heartbeat CPU 0 instructions: 4000002 cycles: 1036009 heartbeat IPC: 3.96603 cumulative IPC: 3.86097 (Simulation time: 0 hr 1 min 55 sec) 
Heartbeat CPU 0 instructions: 6000000 cycles: 1564708 heartbeat IPC: 3.78287 cumulative IPC: 3.83458 (Simulation time: 0 hr 2 min 58 sec) 
Heartbeat CPU 0 instructions: 8000003 cycles: 2072513 heartbeat IPC: 3.93853 cumulative IPC: 3.86005 (Simulation time: 0 hr 3 min 50 sec) 
Heartbeat CPU 0 instructions: 10000000 cycles: 2584514 heartbeat IPC: 3.90624 cumulative IPC: 3.8692 (Simulation time: 0 hr 4 min 43 sec) 
Heartbeat CPU 0 instructions: 12000000 cycles: 3113016 heartbeat IPC: 3.78428 cumulative IPC: 3.85478 (Simulation time: 0 hr 5 min 35 sec) 
Heartbeat CPU 0 instructions: 14000000 cycles: 3620424 heartbeat IPC: 3.9416 cumulative IPC: 3.86695 (Simulation time: 0 hr 6 min 27 sec) 
Heartbeat CPU 0 instructions: 16000003 cycles: 4169209 heartbeat IPC: 3.64442 cumulative IPC: 3.83766 (Simulation time: 0 hr 7 min 29 sec) 
Heartbeat CPU 0 instructions: 18000003 cycles: 4690633 heartbeat IPC: 3.83565 cumulative IPC: 3.83744 (Simulation time: 0 hr 8 min 25 sec) 
Heartbeat CPU 0 instructions: 20000000 cycles: 5205531 heartbeat IPC: 3.88426 cumulative IPC: 3.84207 (Simulation time: 0 hr 9 min 22 sec) 
Heartbeat CPU 0 instructions: 22000002 cycles: 5726956 heartbeat IPC: 3.83565 cumulative IPC: 3.84148 (Simulation time: 0 hr 10 min 19 sec) 
Heartbeat CPU 0 instructions: 24000003 cycles: 6239992 heartbeat IPC: 3.89836 cumulative IPC: 3.84616 (Simulation time: 0 hr 11 min 20 sec) 
Heartbeat CPU 0 instructions: 26000003 cycles: 6761262 heartbeat IPC: 3.83678 cumulative IPC: 3.84544 (Simulation time: 0 hr 12 min 16 sec) 
Heartbeat CPU 0 instructions: 28000000 cycles: 7272976 heartbeat IPC: 3.90843 cumulative IPC: 3.84987 (Simulation time: 0 hr 13 min 14 sec) 
Heartbeat CPU 0 instructions: 30000001 cycles: 7794166 heartbeat IPC: 3.83737 cumulative IPC: 3.84903 (Simulation time: 0 hr 14 min 6 sec) 
Heartbeat CPU 0 instructions: 32000000 cycles: 8305103 heartbeat IPC: 3.91438 cumulative IPC: 3.85305 (Simulation time: 0 hr 15 min 1 sec) 
Heartbeat CPU 0 instructions: 34000003 cycles: 8826089 heartbeat IPC: 3.83888 cumulative IPC: 3.85222 (Simulation time: 0 hr 15 min 52 sec) 
Heartbeat CPU 0 instructions: 36000002 cycles: 9340692 heartbeat IPC: 3.88649 cumulative IPC: 3.8541 (Simulation time: 0 hr 16 min 51 sec) 
Heartbeat CPU 0 instructions: 38000003 cycles: 9860383 heartbeat IPC: 3.84844 cumulative IPC: 3.85381 (Simulation time: 0 hr 17 min 42 sec) 
Heartbeat CPU 0 instructions: 40000001 cycles: 10375522 heartbeat IPC: 3.88244 cumulative IPC: 3.85523 (Simulation time: 0 hr 18 min 41 sec) 
Heartbeat CPU 0 instructions: 42000001 cycles: 10896878 heartbeat IPC: 3.83615 cumulative IPC: 3.85432 (Simulation time: 0 hr 19 min 37 sec) 
Heartbeat CPU 0 instructions: 44000001 cycles: 11406456 heartbeat IPC: 3.92482 cumulative IPC: 3.85746 (Simulation time: 0 hr 20 min 36 sec) 
Heartbeat CPU 0 instructions: 46000001 cycles: 11936454 heartbeat IPC: 3.7736 cumulative IPC: 3.85374 (Simulation time: 0 hr 21 min 32 sec) 
Heartbeat CPU 0 instructions: 48000000 cycles: 12442110 heartbeat IPC: 3.95526 cumulative IPC: 3.85787 (Simulation time: 0 hr 22 min 22 sec) 
Heartbeat CPU 0 instructions: 50000003 cycles: 12976294 heartbeat IPC: 3.74403 cumulative IPC: 3.85318 (Simulation time: 0 hr 23 min 24 sec) 

Warmup complete CPU 0 instructions: 50000003 cycles: 12976294 (Simulation time: 0 hr 23 min 24 sec) 

Heartbeat CPU 0 instructions: 52000002 cycles: 15560192 heartbeat IPC: 0.774024 cumulative IPC: 0.774024 (Simulation time: 0 hr 25 min 32 sec) 

Region of Interest Statistics
cpu0_DTLB TOTAL     ACCESS:     331814  HIT:     330659  MISS:       1155
cpu0_DTLB LOAD      ACCESS:     317438  HIT:     316310  MISS:       1128
cpu0_DTLB RFO       ACCESS:      14376  HIT:      14349  MISS:         27
cpu0_DTLB PREFETCH  ACCESS:          0  HIT:          0  MISS:          0
cpu0_DTLB WRITEBACK ACCESS:          0  HIT:          0  MISS:          0
cpu0_ITLB TOTAL     ACCESS:     183157  HIT:     183157  MISS:          0
cpu0_ITLB LOAD      ACCESS:     183157  HIT:     183157  MISS:          0
cpu0_ITLB RFO       ACCESS:          0  HIT:          0  MISS:          0
cpu0_ITLB PREFETCH  ACCESS:          0  HIT:          0  MISS:          0
cpu0_ITLB WRITEBACK ACCESS:          0  HIT:          0  MISS:          0
cpu0_L1I TOTAL     ACCESS:         48  HIT:         48  MISS:          0
cpu0_L1I LOAD      ACCESS:         48  HIT:         48  MISS:          0
cpu0_L1I RFO       ACCESS:          0  HIT:          0  MISS:          0
cpu0_L1I PREFETCH  ACCESS:          0  HIT:          0  MISS:          0
cpu0_L1I WRITEBACK ACCESS:          0  HIT:          0  MISS:          0
cpu0_STLB TOTAL     ACCESS:       1155  HIT:        622  MISS:        533
cpu0_STLB LOAD      ACCESS:       1128  HIT:        596  MISS:        532
cpu0_STLB RFO       ACCESS:         27  HIT:         26  MISS:          1
cpu0_STLB PREFETCH  ACCESS:          0  HIT:          0  MISS:          0
cpu0_STLB WRITEBACK ACCESS:          0  HIT:          0  MISS:          0
cpu0_L1D TOTAL     ACCESS:     204171  HIT:     176895  MISS:      27276
cpu0_L1D LOAD      ACCESS:     185965  HIT:     159499  MISS:      26466
cpu0_L1D RFO       ACCESS:      17700  HIT:      16894  MISS:        806
cpu0_L1D PREFETCH  ACCESS:          0  HIT:          0  MISS:          0
cpu0_L1D WRITEBACK ACCESS:          0  HIT:          0  MISS:          0
cpu0_L2C TOTAL     ACCESS:      28110  HIT:       1761  MISS:      26349
cpu0_L2C LOAD      ACCESS:      26466  HIT:        927  MISS:      25539
cpu0_L2C RFO       ACCESS:        806  HIT:          0  MISS:        806
cpu0_L2C PREFETCH  ACCESS:          0  HIT:          0  MISS:          0
cpu0_L2C WRITEBACK ACCESS:        834  HIT:        833  MISS:          1
LLC TOTAL     ACCESS:      29433  HIT:       3061  MISS:      26372
LLC LOAD      ACCESS:      25539  HIT:        146  MISS:      25393
LLC RFO       ACCESS:        806  HIT:          0  MISS:        806
LLC PREFETCH  ACCESS:          0  HIT:          0  MISS:          0
LLC WRITEBACK ACCESS:       3085  HIT:       2915  MISS:        170
Heartbeat CPU 0 instructions: 54000000 cycles: 18445196 heartbeat IPC: 0.693239 cumulative IPC: 0.731408 (Simulation time: 0 hr 27 min 53 sec) 

Region of Interest Statistics
cpu0_DTLB TOTAL     ACCESS:     693010  HIT:     687371  MISS:       5639
cpu0_DTLB LOAD      ACCESS:     657106  HIT:     651656  MISS:       5450
cpu0_DTLB RFO       ACCESS:      35904  HIT:      35715  MISS:        189
cpu0_DTLB PREFETCH  ACCESS:          0  HIT:          0  MISS:          0
cpu0_DTLB WRITEBACK ACCESS:          0  HIT:          0  MISS:          0
cpu0_ITLB TOTAL     ACCESS:     333615  HIT:     333615  MISS:          0
cpu0_ITLB LOAD      ACCESS:     333615  HIT:     333615  MISS:          0
cpu0_ITLB RFO       ACCESS:          0  HIT:          0  MISS:          0
cpu0_ITLB PREFETCH  ACCESS:          0  HIT:          0  MISS:          0
cpu0_ITLB WRITEBACK ACCESS:          0  HIT:          0  MISS:          0
cpu0_L1I TOTAL     ACCESS:       1646  HIT:       1646  MISS:          0
cpu0_L1I LOAD      ACCESS:       1646  HIT:       1646  MISS:          0
cpu0_L1I RFO       ACCESS:          0  HIT:          0  MISS:          0
cpu0_L1I PREFETCH  ACCESS:          0  HIT:          0  MISS:          0
cpu0_L1I WRITEBACK ACCESS:          0  HIT:          0  MISS:          0
cpu0_STLB TOTAL     ACCESS:       5639  HIT:       3981  MISS:       1658
cpu0_STLB LOAD      ACCESS:       5450  HIT:       3820  MISS:       1630
cpu0_STLB RFO       ACCESS:        189  HIT:        161  MISS:         28
cpu0_STLB PREFETCH  ACCESS:          0  HIT:          0  MISS:          0
cpu0_STLB WRITEBACK ACCESS:          0  HIT:          0  MISS:          0
cpu0_L1D TOTAL     ACCESS:     437209  HIT:     380346  MISS:      56863
cpu0_L1D LOAD      ACCESS:     384363  HIT:     329659  MISS:      54704
cpu0_L1D RFO       ACCESS:      51277  HIT:      49136  MISS:       2141
cpu0_L1D PREFETCH  ACCESS:          0  HIT:          0  MISS:          0
cpu0_L1D WRITEBACK ACCESS:          0  HIT:          0  MISS:          0
cpu0_L2C TOTAL     ACCESS:      59111  HIT:       8116  MISS:      50995
cpu0_L2C LOAD      ACCESS:      54704  HIT:       5869  MISS:      48835
cpu0_L2C RFO       ACCESS:       2141  HIT:          7  MISS:       2134
cpu0_L2C PREFETCH  ACCESS:          0  HIT:          0  MISS:          0
cpu0_L2C WRITEBACK ACCESS:       2248  HIT:       2232  MISS:         16
LLC TOTAL     ACCESS:      55127  HIT:       4323  MISS:      50804
LLC LOAD      ACCESS:      48835  HIT:        516  MISS:      48319
LLC RFO       ACCESS:       2134  HIT:          4  MISS:       2130
LLC PREFETCH  ACCESS:          0  HIT:          0  MISS:          0
LLC WRITEBACK ACCESS:       4148  HIT:       3803  MISS:        345
Heartbeat CPU 0 instructions: 56000001 cycles: 20668744 heartbeat IPC: 0.899464 cumulative IPC: 0.779985 (Simulation time: 0 hr 29 min 50 sec) 

Region of Interest Statistics
cpu0_DTLB TOTAL     ACCESS:    1022360  HIT:    1016099  MISS:       6261
cpu0_DTLB LOAD      ACCESS:     971062  HIT:     965046  MISS:       6016
cpu0_DTLB RFO       ACCESS:      51298  HIT:      51053  MISS:        245
cpu0_DTLB PREFETCH  ACCESS:          0  HIT:          0  MISS:          0
cpu0_DTLB WRITEBACK ACCESS:          0  HIT:          0  MISS:          0
cpu0_ITLB TOTAL     ACCESS:     528845  HIT:     528845  MISS:          0
cpu0_ITLB LOAD      ACCESS:     528845  HIT:     528845  MISS:          0
cpu0_ITLB RFO       ACCESS:          0  HIT:          0  MISS:          0
cpu0_ITLB PREFETCH  ACCESS:          0  HIT:          0  MISS:          0
cpu0_ITLB WRITEBACK ACCESS:          0  HIT:          0  MISS:          0
cpu0_L1I TOTAL     ACCESS:       1737  HIT:       1737  MISS:          0
cpu0_L1I LOAD      ACCESS:       1737  HIT:       1737  MISS:          0
cpu0_L1I RFO       ACCESS:          0  HIT:          0  MISS:          0
cpu0_L1I PREFETCH  ACCESS:          0  HIT:          0  MISS:          0
cpu0_L1I WRITEBACK ACCESS:          0  HIT:          0  MISS:          0
cpu0_STLB TOTAL     ACCESS:       6261  HIT:       4274  MISS:       1987
cpu0_STLB LOAD      ACCESS:       6016  HIT:       4073  MISS:       1943
cpu0_STLB RFO       ACCESS:        245  HIT:        201  MISS:         44
cpu0_STLB PREFETCH  ACCESS:          0  HIT:          0  MISS:          0
cpu0_STLB WRITEBACK ACCESS:          0  HIT:          0  MISS:          0
cpu0_L1D TOTAL     ACCESS:     629418  HIT:     545478  MISS:      83940
cpu0_L1D LOAD      ACCESS:     563391  HIT:     484160  MISS:      79231
cpu0_L1D RFO       ACCESS:      64139  HIT:      59449  MISS:       4690
cpu0_L1D PREFETCH  ACCESS:          0  HIT:          0  MISS:          0
cpu0_L1D WRITEBACK ACCESS:          0  HIT:          0  MISS:          0
cpu0_L2C TOTAL     ACCESS:      89488  HIT:      13945  MISS:      75543
cpu0_L2C LOAD      ACCESS:      79231  HIT:       8142  MISS:      71089
cpu0_L2C RFO       ACCESS:       4690  HIT:        262  MISS:       4428
cpu0_L2C PREFETCH  ACCESS:          0  HIT:          0  MISS:          0
cpu0_L2C WRITEBACK ACCESS:       5548  HIT:       5532  MISS:         16
LLC TOTAL     ACCESS:      83117  HIT:       7892  MISS:      75225
LLC LOAD      ACCESS:      71089  HIT:        667  MISS:      70422
LLC RFO       ACCESS:       4428  HIT:        198  MISS:       4230
LLC PREFETCH  ACCESS:          0  HIT:          0  MISS:          0
LLC WRITEBACK ACCESS:       7590  HIT:       7027  MISS:        563
Heartbeat CPU 0 instructions: 58000002 cycles: 23661008 heartbeat IPC: 0.668391 cumulative IPC: 0.748733 (Simulation time: 0 hr 32 min 6 sec) 

Region of Interest Statistics
cpu0_DTLB TOTAL     ACCESS:    1394435  HIT:    1383218  MISS:      11217
cpu0_DTLB LOAD      ACCESS:    1320783  HIT:    1309963  MISS:      10820
cpu0_DTLB RFO       ACCESS:      73652  HIT:      73255  MISS:        397
cpu0_DTLB PREFETCH  ACCESS:          0  HIT:          0  MISS:          0
cpu0_DTLB WRITEBACK ACCESS:          0  HIT:          0  MISS:          0
cpu0_ITLB TOTAL     ACCESS:     693446  HIT:     693446  MISS:          0
cpu0_ITLB LOAD      ACCESS:     693446  HIT:     693446  MISS:          0
cpu0_ITLB RFO       ACCESS:          0  HIT:          0  MISS:          0
cpu0_ITLB PREFETCH  ACCESS:          0  HIT:          0  MISS:          0
cpu0_ITLB WRITEBACK ACCESS:          0  HIT:          0  MISS:          0
cpu0_L1I TOTAL     ACCESS:       2539  HIT:       2539  MISS:          0
cpu0_L1I LOAD      ACCESS:       2539  HIT:       2539  MISS:          0
cpu0_L1I RFO       ACCESS:          0  HIT:          0  MISS:          0
cpu0_L1I PREFETCH  ACCESS:          0  HIT:          0  MISS:          0
cpu0_L1I WRITEBACK ACCESS:          0  HIT:          0  MISS:          0
cpu0_STLB TOTAL     ACCESS:      11217  HIT:       7955  MISS:       3262
cpu0_STLB LOAD      ACCESS:      10820  HIT:       7616  MISS:       3204
cpu0_STLB RFO       ACCESS:        397  HIT:        339  MISS:         58
cpu0_STLB PREFETCH  ACCESS:          0  HIT:          0  MISS:          0
cpu0_STLB WRITEBACK ACCESS:          0  HIT:          0  MISS:          0
cpu0_L1D TOTAL     ACCESS:     867702  HIT:     753580  MISS:     114122
cpu0_L1D LOAD      ACCESS:     764021  HIT:     655330  MISS:     108691
cpu0_L1D RFO       ACCESS:     100600  HIT:      95202  MISS:       5398
cpu0_L1D PREFETCH  ACCESS:          0  HIT:          0  MISS:          0
cpu0_L1D WRITEBACK ACCESS:          0  HIT:          0  MISS:          0
cpu0_L2C TOTAL     ACCESS:     120810  HIT:      20753  MISS:     100057
cpu0_L2C LOAD      ACCESS:     108691  HIT:      13810  MISS:      94881
cpu0_L2C RFO       ACCESS:       5398  HIT:        271  MISS:       5127
cpu0_L2C PREFETCH  ACCESS:          0  HIT:          0  MISS:          0
cpu0_L2C WRITEBACK ACCESS:       6688  HIT:       6659  MISS:         29
LLC TOTAL     ACCESS:     108078  HIT:       8717  MISS:      99361
LLC LOAD      ACCESS:      94881  HIT:       1105  MISS:      93776
LLC RFO       ACCESS:       5127  HIT:        198  MISS:       4929
LLC PREFETCH  ACCESS:          0  HIT:          0  MISS:          0
LLC WRITEBACK ACCESS:       8050  HIT:       7414  MISS:        636
Heartbeat CPU 0 instructions: 60000002 cycles: 25941685 heartbeat IPC: 0.876933 cumulative IPC: 0.771284 (Simulation time: 0 hr 34 min 16 sec) 

Region of Interest Statistics
cpu0_DTLB TOTAL     ACCESS:    1723267  HIT:    1711121  MISS:      12146
cpu0_DTLB LOAD      ACCESS:    1632430  HIT:    1620751  MISS:      11679
cpu0_DTLB RFO       ACCESS:      90837  HIT:      90370  MISS:        467
cpu0_DTLB PREFETCH  ACCESS:          0  HIT:          0  MISS:          0
cpu0_DTLB WRITEBACK ACCESS:          0  HIT:          0  MISS:          0
cpu0_ITLB TOTAL     ACCESS:     868422  HIT:     868422  MISS:          0
cpu0_ITLB LOAD      ACCESS:     868422  HIT:     868422  MISS:          0
cpu0_ITLB RFO       ACCESS:          0  HIT:          0  MISS:          0
cpu0_ITLB PREFETCH  ACCESS:          0  HIT:          0  MISS:          0
cpu0_ITLB WRITEBACK ACCESS:          0  HIT:          0  MISS:          0
cpu0_L1I TOTAL     ACCESS:       3546  HIT:       3546  MISS:          0
cpu0_L1I LOAD      ACCESS:       3546  HIT:       3546  MISS:          0
cpu0_L1I RFO       ACCESS:          0  HIT:          0  MISS:          0
cpu0_L1I PREFETCH  ACCESS:          0  HIT:          0  MISS:          0
cpu0_L1I WRITEBACK ACCESS:          0  HIT:          0  MISS:          0
cpu0_STLB TOTAL     ACCESS:      12146  HIT:       8530  MISS:       3616
cpu0_STLB LOAD      ACCESS:      11679  HIT:       8151  MISS:       3528
cpu0_STLB RFO       ACCESS:        467  HIT:        379  MISS:         88
cpu0_STLB PREFETCH  ACCESS:          0  HIT:          0  MISS:          0
cpu0_STLB WRITEBACK ACCESS:          0  HIT:          0  MISS:          0
cpu0_L1D TOTAL     ACCESS:    1064367  HIT:     922566  MISS:     141801
cpu0_L1D LOAD      ACCESS:     944825  HIT:     811633  MISS:     133192
cpu0_L1D RFO       ACCESS:     116113  HIT:     107543  MISS:       8570
cpu0_L1D PREFETCH  ACCESS:          0  HIT:          0  MISS:          0
cpu0_L1D WRITEBACK ACCESS:          0  HIT:          0  MISS:          0
cpu0_L2C TOTAL     ACCESS:     152079  HIT:      27072  MISS:     125007
cpu0_L2C LOAD      ACCESS:     133192  HIT:      16283  MISS:     116909
cpu0_L2C RFO       ACCESS:       8570  HIT:        525  MISS:       8045
cpu0_L2C PREFETCH  ACCESS:          0  HIT:          0  MISS:          0
cpu0_L2C WRITEBACK ACCESS:      10278  HIT:      10246  MISS:         32
LLC TOTAL     ACCESS:     136808  HIT:      12602  MISS:     124206
LLC LOAD      ACCESS:     116909  HIT:       1317  MISS:     115592
LLC RFO       ACCESS:       8045  HIT:        400  MISS:       7645
LLC PREFETCH  ACCESS:          0  HIT:          0  MISS:          0
LLC WRITEBACK ACCESS:      11833  HIT:      10884  MISS:        949
Heartbeat CPU 0 instructions: 62000003 cycles: 28804857 heartbeat IPC: 0.698526 cumulative IPC: 0.758123 (Simulation time: 0 hr 36 min 33 sec) 

Region of Interest Statistics
cpu0_DTLB TOTAL     ACCESS:    2080339  HIT:    2064606  MISS:      15733
cpu0_DTLB LOAD      ACCESS:    1970097  HIT:    1954881  MISS:      15216
cpu0_DTLB RFO       ACCESS:     110242  HIT:     109725  MISS:        517
cpu0_DTLB PREFETCH  ACCESS:          0  HIT:          0  MISS:          0
cpu0_DTLB WRITEBACK ACCESS:          0  HIT:          0  MISS:          0
cpu0_ITLB TOTAL     ACCESS:    1035046  HIT:    1035046  MISS:          0
cpu0_ITLB LOAD      ACCESS:    1035046  HIT:    1035046  MISS:          0
cpu0_ITLB RFO       ACCESS:          0  HIT:          0  MISS:          0
cpu0_ITLB PREFETCH  ACCESS:          0  HIT:          0  MISS:          0
cpu0_ITLB WRITEBACK ACCESS:          0  HIT:          0  MISS:          0
cpu0_L1I TOTAL     ACCESS:       3579  HIT:       3579  MISS:          0
cpu0_L1I LOAD      ACCESS:       3579  HIT:       3579  MISS:          0
cpu0_L1I RFO       ACCESS:          0  HIT:          0  MISS:          0
cpu0_L1I PREFETCH  ACCESS:          0  HIT:          0  MISS:          0
cpu0_L1I WRITEBACK ACCESS:          0  HIT:          0  MISS:          0
cpu0_STLB TOTAL     ACCESS:      15733  HIT:      11113  MISS:       4620
cpu0_STLB LOAD      ACCESS:      15216  HIT:      10690  MISS:       4526
cpu0_STLB RFO       ACCESS:        517  HIT:        423  MISS:         94
cpu0_STLB PREFETCH  ACCESS:          0  HIT:          0  MISS:          0
cpu0_STLB WRITEBACK ACCESS:          0  HIT:          0  MISS:          0
cpu0_L1D TOTAL     ACCESS:    1290653  HIT:    1119636  MISS:     171017
cpu0_L1D LOAD      ACCESS:    1140480  HIT:     978808  MISS:     161672
cpu0_L1D RFO       ACCESS:     145810  HIT:     136512  MISS:       9298
cpu0_L1D PREFETCH  ACCESS:          0  HIT:          0  MISS:          0
cpu0_L1D WRITEBACK ACCESS:          0  HIT:          0  MISS:          0
cpu0_L2C TOTAL     ACCESS:     182027  HIT:      31953  MISS:     150074
cpu0_L2C LOAD      ACCESS:     161672  HIT:      20429  MISS:     141243
cpu0_L2C RFO       ACCESS:       9298  HIT:        525  MISS:       8773
cpu0_L2C PREFETCH  ACCESS:          0  HIT:          0  MISS:          0
cpu0_L2C WRITEBACK ACCESS:      11010  HIT:      10977  MISS:         33
LLC TOTAL     ACCESS:     162602  HIT:      13559  MISS:     149043
LLC LOAD      ACCESS:     141243  HIT:       1593  MISS:     139650
LLC RFO       ACCESS:       8773  HIT:        400  MISS:       8373
LLC PREFETCH  ACCESS:          0  HIT:          0  MISS:          0
LLC WRITEBACK ACCESS:      12561  HIT:      11565  MISS:        996
Heartbeat CPU 0 instructions: 64000004 cycles: 31195297 heartbeat IPC: 0.836666 cumulative IPC: 0.768429 (Simulation time: 0 hr 38 min 41 sec) 

Region of Interest Statistics
cpu0_DTLB TOTAL     ACCESS:    2426587  HIT:    2408509  MISS:      18078
cpu0_DTLB LOAD      ACCESS:    2296233  HIT:    2278858  MISS:      17375
cpu0_DTLB RFO       ACCESS:     130354  HIT:     129651  MISS:        703
cpu0_DTLB PREFETCH  ACCESS:          0  HIT:          0  MISS:          0
cpu0_DTLB WRITEBACK ACCESS:          0  HIT:          0  MISS:          0
cpu0_ITLB TOTAL     ACCESS:    1208466  HIT:    1208466  MISS:          0
cpu0_ITLB LOAD      ACCESS:    1208466  HIT:    1208466  MISS:          0
cpu0_ITLB RFO       ACCESS:          0  HIT:          0  MISS:          0
cpu0_ITLB PREFETCH  ACCESS:          0  HIT:          0  MISS:          0
cpu0_ITLB WRITEBACK ACCESS:          0  HIT:          0  MISS:          0
cpu0_L1I TOTAL     ACCESS:       5341  HIT:       5341  MISS:          0
cpu0_L1I LOAD      ACCESS:       5341  HIT:       5341  MISS:          0
cpu0_L1I RFO       ACCESS:          0  HIT:          0  MISS:          0
cpu0_L1I PREFETCH  ACCESS:          0  HIT:          0  MISS:          0
cpu0_L1I WRITEBACK ACCESS:          0  HIT:          0  MISS:          0
cpu0_STLB TOTAL     ACCESS:      18078  HIT:      12813  MISS:       5265
cpu0_STLB LOAD      ACCESS:      17375  HIT:      12243  MISS:       5132
cpu0_STLB RFO       ACCESS:        703  HIT:        570  MISS:        133
cpu0_STLB PREFETCH  ACCESS:          0  HIT:          0  MISS:          0
cpu0_STLB WRITEBACK ACCESS:          0  HIT:          0  MISS:          0
cpu0_L1D TOTAL     ACCESS:    1500928  HIT:    1301295  MISS:     199633
cpu0_L1D LOAD      ACCESS:    1327687  HIT:    1140567  MISS:     187120
cpu0_L1D RFO       ACCESS:     168258  HIT:     155804  MISS:      12454
cpu0_L1D PREFETCH  ACCESS:          0  HIT:          0  MISS:          0
cpu0_L1D WRITEBACK ACCESS:          0  HIT:          0  MISS:          0
cpu0_L2C TOTAL     ACCESS:     214695  HIT:      40139  MISS:     174556
cpu0_L2C LOAD      ACCESS:     187120  HIT:      24309  MISS:     162811
cpu0_L2C RFO       ACCESS:      12454  HIT:        788  MISS:      11666
cpu0_L2C PREFETCH  ACCESS:          0  HIT:          0  MISS:          0
cpu0_L2C WRITEBACK ACCESS:      15062  HIT:      15014  MISS:         48
LLC TOTAL     ACCESS:     190381  HIT:      17183  MISS:     173198
LLC LOAD      ACCESS:     162811  HIT:       1969  MISS:     160842
LLC RFO       ACCESS:      11666  HIT:        595  MISS:      11071
LLC PREFETCH  ACCESS:          0  HIT:          0  MISS:          0
LLC WRITEBACK ACCESS:      15873  HIT:      14618  MISS:       1255
Heartbeat CPU 0 instructions: 66000004 cycles: 33922975 heartbeat IPC: 0.733224 cumulative IPC: 0.763844 (Simulation time: 0 hr 40 min 49 sec) 

Region of Interest Statistics
cpu0_DTLB TOTAL     ACCESS:    2768760  HIT:    2748584  MISS:      20176
cpu0_DTLB LOAD      ACCESS:    2621544  HIT:    2602110  MISS:      19434
cpu0_DTLB RFO       ACCESS:     147216  HIT:     146474  MISS:        742
cpu0_DTLB PREFETCH  ACCESS:          0  HIT:          0  MISS:          0
cpu0_DTLB WRITEBACK ACCESS:          0  HIT:          0  MISS:          0
cpu0_ITLB TOTAL     ACCESS:    1384244  HIT:    1384244  MISS:          0
cpu0_ITLB LOAD      ACCESS:    1384244  HIT:    1384244  MISS:          0
cpu0_ITLB RFO       ACCESS:          0  HIT:          0  MISS:          0
cpu0_ITLB PREFETCH  ACCESS:          0  HIT:          0  MISS:          0
cpu0_ITLB WRITEBACK ACCESS:          0  HIT:          0  MISS:          0
cpu0_L1I TOTAL     ACCESS:       5374  HIT:       5374  MISS:          0
cpu0_L1I LOAD      ACCESS:       5374  HIT:       5374  MISS:          0
cpu0_L1I RFO       ACCESS:          0  HIT:          0  MISS:          0
cpu0_L1I PREFETCH  ACCESS:          0  HIT:          0  MISS:          0
cpu0_L1I WRITEBACK ACCESS:          0  HIT:          0  MISS:          0
cpu0_STLB TOTAL     ACCESS:      20176  HIT:      14127  MISS:       6049
cpu0_STLB LOAD      ACCESS:      19434  HIT:      13521  MISS:       5913
cpu0_STLB RFO       ACCESS:        742  HIT:        606  MISS:        136
cpu0_STLB PREFETCH  ACCESS:          0  HIT:          0  MISS:          0
cpu0_STLB WRITEBACK ACCESS:          0  HIT:          0  MISS:          0
cpu0_L1D TOTAL     ACCESS:    1715148  HIT:    1487111  MISS:     228037
cpu0_L1D LOAD      ACCESS:    1517454  HIT:    1302701  MISS:     214753
cpu0_L1D RFO       ACCESS:     191974  HIT:     178755  MISS:      13219
cpu0_L1D PREFETCH  ACCESS:          0  HIT:          0  MISS:          0
cpu0_L1D WRITEBACK ACCESS:          0  HIT:          0  MISS:          0
cpu0_L2C TOTAL     ACCESS:     243868  HIT:      43466  MISS:     200402
cpu0_L2C LOAD      ACCESS:     214753  HIT:      26865  MISS:     187888
cpu0_L2C RFO       ACCESS:      13219  HIT:        788  MISS:      12431
cpu0_L2C PREFETCH  ACCESS:          0  HIT:          0  MISS:          0
cpu0_L2C WRITEBACK ACCESS:      15831  HIT:      15782  MISS:         49
LLC TOTAL     ACCESS:     217434  HIT:      18564  MISS:     198870
LLC LOAD      ACCESS:     187888  HIT:       2168  MISS:     185720
LLC RFO       ACCESS:      12431  HIT:        595  MISS:      11836
LLC PREFETCH  ACCESS:          0  HIT:          0  MISS:          0
LLC WRITEBACK ACCESS:      17081  HIT:      15800  MISS:       1281
Heartbeat CPU 0 instructions: 68000000 cycles: 35979334 heartbeat IPC: 0.972591 cumulative IPC: 0.782505 (Simulation time: 0 hr 42 min 36 sec) 

Region of Interest Statistics
cpu0_DTLB TOTAL     ACCESS:    3158414  HIT:    3134918  MISS:      23496
cpu0_DTLB LOAD      ACCESS:    2934945  HIT:    2912356  MISS:      22589
cpu0_DTLB RFO       ACCESS:     223469  HIT:     222562  MISS:        907
cpu0_DTLB PREFETCH  ACCESS:          0  HIT:          0  MISS:          0
cpu0_DTLB WRITEBACK ACCESS:          0  HIT:          0  MISS:          0
cpu0_ITLB TOTAL     ACCESS:    1532642  HIT:    1532641  MISS:          1
cpu0_ITLB LOAD      ACCESS:    1532642  HIT:    1532641  MISS:          1
cpu0_ITLB RFO       ACCESS:          0  HIT:          0  MISS:          0
cpu0_ITLB PREFETCH  ACCESS:          0  HIT:          0  MISS:          0
cpu0_ITLB WRITEBACK ACCESS:          0  HIT:          0  MISS:          0
cpu0_L1I TOTAL     ACCESS:      27513  HIT:      27479  MISS:         34
cpu0_L1I LOAD      ACCESS:      27513  HIT:      27479  MISS:         34
cpu0_L1I RFO       ACCESS:          0  HIT:          0  MISS:          0
cpu0_L1I PREFETCH  ACCESS:          0  HIT:          0  MISS:          0
cpu0_L1I WRITEBACK ACCESS:          0  HIT:          0  MISS:          0
cpu0_STLB TOTAL     ACCESS:      23497  HIT:      16671  MISS:       6826
cpu0_STLB LOAD      ACCESS:      22590  HIT:      15925  MISS:       6665
cpu0_STLB RFO       ACCESS:        907  HIT:        746  MISS:        161
cpu0_STLB PREFETCH  ACCESS:          0  HIT:          0  MISS:          0
cpu0_STLB WRITEBACK ACCESS:          0  HIT:          0  MISS:          0
cpu0_L1D TOTAL     ACCESS:    2100173  HIT:    1854074  MISS:     246099
cpu0_L1D LOAD      ACCESS:    1750349  HIT:    1518954  MISS:     231395
cpu0_L1D RFO       ACCESS:     343373  HIT:     328743  MISS:      14630
cpu0_L1D PREFETCH  ACCESS:          0  HIT:          0  MISS:          0
cpu0_L1D WRITEBACK ACCESS:          0  HIT:          0  MISS:          0
cpu0_L2C TOTAL     ACCESS:     264155  HIT:      50430  MISS:     213725
cpu0_L2C LOAD      ACCESS:     231426  HIT:      31301  MISS:     200125
cpu0_L2C RFO       ACCESS:      14630  HIT:       1132  MISS:      13498
cpu0_L2C PREFETCH  ACCESS:          0  HIT:          0  MISS:          0
cpu0_L2C WRITEBACK ACCESS:      18025  HIT:      17964  MISS:         61
LLC TOTAL     ACCESS:     231043  HIT:      19027  MISS:     212016
LLC LOAD      ACCESS:     200125  HIT:       2394  MISS:     197731
LLC RFO       ACCESS:      13498  HIT:        595  MISS:      12903
LLC PREFETCH  ACCESS:          0  HIT:          0  MISS:          0
LLC WRITEBACK ACCESS:      17379  HIT:      16037  MISS:       1342
Heartbeat CPU 0 instructions: 70000002 cycles: 38251227 heartbeat IPC: 0.880324 cumulative IPC: 0.791298 (Simulation time: 0 hr 44 min 43 sec) 

Region of Interest Statistics
cpu0_DTLB TOTAL     ACCESS:    3490407  HIT:    3466026  MISS:      24381
cpu0_DTLB LOAD      ACCESS:    3244770  HIT:    3221375  MISS:      23395
cpu0_DTLB RFO       ACCESS:     245637  HIT:     244651  MISS:        986
cpu0_DTLB PREFETCH  ACCESS:          0  HIT:          0  MISS:          0
cpu0_DTLB WRITEBACK ACCESS:          0  HIT:          0  MISS:          0
cpu0_ITLB TOTAL     ACCESS:    1705081  HIT:    1705080  MISS:          1
cpu0_ITLB LOAD      ACCESS:    1705081  HIT:    1705080  MISS:          1
cpu0_ITLB RFO       ACCESS:          0  HIT:          0  MISS:          0
cpu0_ITLB PREFETCH  ACCESS:          0  HIT:          0  MISS:          0
cpu0_ITLB WRITEBACK ACCESS:          0  HIT:          0  MISS:          0
cpu0_L1I TOTAL     ACCESS:      30562  HIT:      30507  MISS:         55
cpu0_L1I LOAD      ACCESS:      30562  HIT:      30507  MISS:         55
cpu0_L1I RFO       ACCESS:          0  HIT:          0  MISS:          0
cpu0_L1I PREFETCH  ACCESS:          0  HIT:          0  MISS:          0
cpu0_L1I WRITEBACK ACCESS:          0  HIT:          0  MISS:          0
cpu0_STLB TOTAL     ACCESS:      24382  HIT:      17217  MISS:       7165
cpu0_STLB LOAD      ACCESS:      23396  HIT:      16423  MISS:       6973
cpu0_STLB RFO       ACCESS:        986  HIT:        794  MISS:        192
cpu0_STLB PREFETCH  ACCESS:          0  HIT:          0  MISS:          0
cpu0_STLB WRITEBACK ACCESS:          0  HIT:          0  MISS:          0
cpu0_L1D TOTAL     ACCESS:    2310424  HIT:    2037719  MISS:     272705
cpu0_L1D LOAD      ACCESS:    1933927  HIT:    1679147  MISS:     254780
cpu0_L1D RFO       ACCESS:     369714  HIT:     351873  MISS:      17841
cpu0_L1D PREFETCH  ACCESS:          0  HIT:          0  MISS:          0
cpu0_L1D WRITEBACK ACCESS:          0  HIT:          0  MISS:          0
cpu0_L2C TOTAL     ACCESS:     294321  HIT:      56612  MISS:     237709
cpu0_L2C LOAD      ACCESS:     254832  HIT:      33680  MISS:     221152
cpu0_L2C RFO       ACCESS:      17841  HIT:       1395  MISS:      16446
cpu0_L2C PREFETCH  ACCESS:          0  HIT:          0  MISS:          0
cpu0_L2C WRITEBACK ACCESS:      21564  HIT:      21496  MISS:         68
LLC TOTAL     ACCESS:     259571  HIT:      23766  MISS:     235805
LLC LOAD      ACCESS:     221152  HIT:       2638  MISS:     218514
LLC RFO       ACCESS:      16446  HIT:        757  MISS:      15689
LLC PREFETCH  ACCESS:          0  HIT:          0  MISS:          0
LLC WRITEBACK ACCESS:      21930  HIT:      20369  MISS:       1561
Heartbeat CPU 0 instructions: 72000002 cycles: 41088531 heartbeat IPC: 0.704894 cumulative IPC: 0.782577 (Simulation time: 0 hr 46 min 56 sec) 

Region of Interest Statistics
cpu0_DTLB TOTAL     ACCESS:    3842101  HIT:    3814364  MISS:      27737
cpu0_DTLB LOAD      ACCESS:    3577474  HIT:    3550764  MISS:      26710
cpu0_DTLB RFO       ACCESS:     264627  HIT:     263600  MISS:       1027
cpu0_DTLB PREFETCH  ACCESS:          0  HIT:          0  MISS:          0
cpu0_DTLB WRITEBACK ACCESS:          0  HIT:          0  MISS:          0
cpu0_ITLB TOTAL     ACCESS:    1873801  HIT:    1873800  MISS:          1
cpu0_ITLB LOAD      ACCESS:    1873801  HIT:    1873800  MISS:          1
cpu0_ITLB RFO       ACCESS:          0  HIT:          0  MISS:          0
cpu0_ITLB PREFETCH  ACCESS:          0  HIT:          0  MISS:          0
cpu0_ITLB WRITEBACK ACCESS:          0  HIT:          0  MISS:          0
cpu0_L1I TOTAL     ACCESS:      30595  HIT:      30537  MISS:         58
cpu0_L1I LOAD      ACCESS:      30595  HIT:      30537  MISS:         58
cpu0_L1I RFO       ACCESS:          0  HIT:          0  MISS:          0
cpu0_L1I PREFETCH  ACCESS:          0  HIT:          0  MISS:          0
cpu0_L1I WRITEBACK ACCESS:          0  HIT:          0  MISS:          0
cpu0_STLB TOTAL     ACCESS:      27738  HIT:      19576  MISS:       8162
cpu0_STLB LOAD      ACCESS:      26711  HIT:      18746  MISS:       7965
cpu0_STLB RFO       ACCESS:       1027  HIT:        830  MISS:        197
cpu0_STLB PREFETCH  ACCESS:          0  HIT:          0  MISS:          0
cpu0_STLB WRITEBACK ACCESS:          0  HIT:          0  MISS:          0
cpu0_L1D TOTAL     ACCESS:    2532429  HIT:    2230491  MISS:     301938
cpu0_L1D LOAD      ACCESS:    2126249  HIT:    1842971  MISS:     283278
cpu0_L1D RFO       ACCESS:     398470  HIT:     379900  MISS:      18570
cpu0_L1D PREFETCH  ACCESS:          0  HIT:          0  MISS:          0
cpu0_L1D WRITEBACK ACCESS:          0  HIT:          0  MISS:          0
cpu0_L2C TOTAL     ACCESS:     324295  HIT:      61278  MISS:     263017
cpu0_L2C LOAD      ACCESS:     283333  HIT:      37606  MISS:     245727
cpu0_L2C RFO       ACCESS:      18570  HIT:       1395  MISS:      17175
cpu0_L2C PREFETCH  ACCESS:          0  HIT:          0  MISS:          0
cpu0_L2C WRITEBACK ACCESS:      22302  HIT:      22233  MISS:         69
LLC TOTAL     ACCESS:     285723  HIT:      24826  MISS:     260897
LLC LOAD      ACCESS:     245727  HIT:       2899  MISS:     242828
LLC RFO       ACCESS:      17175  HIT:        757  MISS:      16418
LLC PREFETCH  ACCESS:          0  HIT:          0  MISS:          0
LLC WRITEBACK ACCESS:      22775  HIT:      21168  MISS:       1607
Heartbeat CPU 0 instructions: 74000002 cycles: 43506585 heartbeat IPC: 0.827111 cumulative IPC: 0.786105 (Simulation time: 0 hr 49 min 2 sec) 

Region of Interest Statistics
cpu0_DTLB TOTAL     ACCESS:    4191142  HIT:    4160773  MISS:      30369
cpu0_DTLB LOAD      ACCESS:    3905694  HIT:    3876574  MISS:      29120
cpu0_DTLB RFO       ACCESS:     285448  HIT:     284199  MISS:       1249
cpu0_DTLB PREFETCH  ACCESS:          0  HIT:          0  MISS:          0
cpu0_DTLB WRITEBACK ACCESS:          0  HIT:          0  MISS:          0
cpu0_ITLB TOTAL     ACCESS:    2046295  HIT:    2046294  MISS:          1
cpu0_ITLB LOAD      ACCESS:    2046295  HIT:    2046294  MISS:          1
cpu0_ITLB RFO       ACCESS:          0  HIT:          0  MISS:          0
cpu0_ITLB PREFETCH  ACCESS:          0  HIT:          0  MISS:          0
cpu0_ITLB WRITEBACK ACCESS:          0  HIT:          0  MISS:          0
cpu0_L1I TOTAL     ACCESS:      32156  HIT:      32085  MISS:         71
cpu0_L1I LOAD      ACCESS:      32156  HIT:      32085  MISS:         71
cpu0_L1I RFO       ACCESS:          0  HIT:          0  MISS:          0
cpu0_L1I PREFETCH  ACCESS:          0  HIT:          0  MISS:          0
cpu0_L1I WRITEBACK ACCESS:          0  HIT:          0  MISS:          0
cpu0_STLB TOTAL     ACCESS:      30370  HIT:      21495  MISS:       8875
cpu0_STLB LOAD      ACCESS:      29121  HIT:      20487  MISS:       8634
cpu0_STLB RFO       ACCESS:       1249  HIT:       1008  MISS:        241
cpu0_STLB PREFETCH  ACCESS:          0  HIT:          0  MISS:          0
cpu0_STLB WRITEBACK ACCESS:          0  HIT:          0  MISS:          0
cpu0_L1D TOTAL     ACCESS:    2745170  HIT:    2414325  MISS:     330845
cpu0_L1D LOAD      ACCESS:    2314376  HIT:    2005369  MISS:     309007
cpu0_L1D RFO       ACCESS:     422394  HIT:     400659  MISS:      21735
cpu0_L1D PREFETCH  ACCESS:          0  HIT:          0  MISS:          0
cpu0_L1D WRITEBACK ACCESS:          0  HIT:          0  MISS:          0
cpu0_L2C TOTAL     ACCESS:     357439  HIT:      70161  MISS:     287278
cpu0_L2C LOAD      ACCESS:     309073  HIT:      41996  MISS:     267077
cpu0_L2C RFO       ACCESS:      21735  HIT:       1671  MISS:      20064
cpu0_L2C PREFETCH  ACCESS:          0  HIT:          0  MISS:          0
cpu0_L2C WRITEBACK ACCESS:      26528  HIT:      26444  MISS:         84
LLC TOTAL     ACCESS:     313018  HIT:      28117  MISS:     284901
LLC LOAD      ACCESS:     267077  HIT:       3307  MISS:     263770
LLC RFO       ACCESS:      20064  HIT:        944  MISS:      19120
LLC PREFETCH  ACCESS:          0  HIT:          0  MISS:          0
LLC WRITEBACK ACCESS:      25824  HIT:      23864  MISS:       1960
Heartbeat CPU 0 instructions: 76000003 cycles: 46222762 heartbeat IPC: 0.736329 cumulative IPC: 0.782038 (Simulation time: 0 hr 51 min 9 sec) 

Region of Interest Statistics
cpu0_DTLB TOTAL     ACCESS:    4530724  HIT:    4498367  MISS:      32357
cpu0_DTLB LOAD      ACCESS:    4228710  HIT:    4197638  MISS:      31072
cpu0_DTLB RFO       ACCESS:     302014  HIT:     300729  MISS:       1285
cpu0_DTLB PREFETCH  ACCESS:          0  HIT:          0  MISS:          0
cpu0_DTLB WRITEBACK ACCESS:          0  HIT:          0  MISS:          0
cpu0_ITLB TOTAL     ACCESS:    2224215  HIT:    2224214  MISS:          1
cpu0_ITLB LOAD      ACCESS:    2224215  HIT:    2224214  MISS:          1
cpu0_ITLB RFO       ACCESS:          0  HIT:          0  MISS:          0
cpu0_ITLB PREFETCH  ACCESS:          0  HIT:          0  MISS:          0
cpu0_ITLB WRITEBACK ACCESS:          0  HIT:          0  MISS:          0
cpu0_L1I TOTAL     ACCESS:      32204  HIT:      32133  MISS:         71
cpu0_L1I LOAD      ACCESS:      32204  HIT:      32133  MISS:         71
cpu0_L1I RFO       ACCESS:          0  HIT:          0  MISS:          0
cpu0_L1I PREFETCH  ACCESS:          0  HIT:          0  MISS:          0
cpu0_L1I WRITEBACK ACCESS:          0  HIT:          0  MISS:          0
cpu0_STLB TOTAL     ACCESS:      32358  HIT:      22718  MISS:       9640
cpu0_STLB LOAD      ACCESS:      31073  HIT:      21677  MISS:       9396
cpu0_STLB RFO       ACCESS:       1285  HIT:       1041  MISS:        244
cpu0_STLB PREFETCH  ACCESS:          0  HIT:          0  MISS:          0
cpu0_STLB WRITEBACK ACCESS:          0  HIT:          0  MISS:          0
cpu0_L1D TOTAL     ACCESS:    2958432  HIT:    2599163  MISS:     359269
cpu0_L1D LOAD      ACCESS:    2503832  HIT:    2167179  MISS:     336653
cpu0_L1D RFO       ACCESS:     445483  HIT:     422975  MISS:      22508
cpu0_L1D PREFETCH  ACCESS:          0  HIT:          0  MISS:          0
cpu0_L1D WRITEBACK ACCESS:          0  HIT:          0  MISS:          0
cpu0_L2C TOTAL     ACCESS:     386657  HIT:      73327  MISS:     313330
cpu0_L2C LOAD      ACCESS:     336719  HIT:      44367  MISS:     292352
cpu0_L2C RFO       ACCESS:      22508  HIT:       1671  MISS:      20837
cpu0_L2C PREFETCH  ACCESS:          0  HIT:          0  MISS:          0
cpu0_L2C WRITEBACK ACCESS:      27322  HIT:      27237  MISS:         85
LLC TOTAL     ACCESS:     340594  HIT:      29812  MISS:     310782
LLC LOAD      ACCESS:     292352  HIT:       3504  MISS:     288848
LLC RFO       ACCESS:      20837  HIT:        944  MISS:      19893
LLC PREFETCH  ACCESS:          0  HIT:          0  MISS:          0
LLC WRITEBACK ACCESS:      27349  HIT:      25362  MISS:       1987
Heartbeat CPU 0 instructions: 78000000 cycles: 48758257 heartbeat IPC: 0.788799 cumulative IPC: 0.782517 (Simulation time: 0 hr 53 min 18 sec) 

Region of Interest Statistics
cpu0_DTLB TOTAL     ACCESS:    4888719  HIT:    4852478  MISS:      36241
cpu0_DTLB LOAD      ACCESS:    4563456  HIT:    4528719  MISS:      34737
cpu0_DTLB RFO       ACCESS:     325263  HIT:     323759  MISS:       1504
cpu0_DTLB PREFETCH  ACCESS:          0  HIT:          0  MISS:          0
cpu0_DTLB WRITEBACK ACCESS:          0  HIT:          0  MISS:          0
cpu0_ITLB TOTAL     ACCESS:    2389219  HIT:    2389218  MISS:          1
cpu0_ITLB LOAD      ACCESS:    2389219  HIT:    2389218  MISS:          1
cpu0_ITLB RFO       ACCESS:          0  HIT:          0  MISS:          0
cpu0_ITLB PREFETCH  ACCESS:          0  HIT:          0  MISS:          0
cpu0_ITLB WRITEBACK ACCESS:          0  HIT:          0  MISS:          0
cpu0_L1I TOTAL     ACCESS:      33969  HIT:      33898  MISS:         71
cpu0_L1I LOAD      ACCESS:      33969  HIT:      33898  MISS:         71
cpu0_L1I RFO       ACCESS:          0  HIT:          0  MISS:          0
cpu0_L1I PREFETCH  ACCESS:          0  HIT:          0  MISS:          0
cpu0_L1I WRITEBACK ACCESS:          0  HIT:          0  MISS:          0
cpu0_STLB TOTAL     ACCESS:      36242  HIT:      25663  MISS:      10579
cpu0_STLB LOAD      ACCESS:      34738  HIT:      24446  MISS:      10292
cpu0_STLB RFO       ACCESS:       1504  HIT:       1217  MISS:        287
cpu0_STLB PREFETCH  ACCESS:          0  HIT:          0  MISS:          0
cpu0_STLB WRITEBACK ACCESS:          0  HIT:          0  MISS:          0
cpu0_L1D TOTAL     ACCESS:    3181278  HIT:    2792072  MISS:     389206
cpu0_L1D LOAD      ACCESS:    2696362  HIT:    2332934  MISS:     363428
cpu0_L1D RFO       ACCESS:     474909  HIT:     449252  MISS:      25657
cpu0_L1D PREFETCH  ACCESS:          0  HIT:          0  MISS:          0
cpu0_L1D WRITEBACK ACCESS:          0  HIT:          0  MISS:          0
cpu0_L2C TOTAL     ACCESS:     420743  HIT:      83660  MISS:     337083
cpu0_L2C LOAD      ACCESS:     363492  HIT:      50292  MISS:     313200
cpu0_L2C RFO       ACCESS:      25657  HIT:       1936  MISS:      23721
cpu0_L2C PREFETCH  ACCESS:          0  HIT:          0  MISS:          0
cpu0_L2C WRITEBACK ACCESS:      31473  HIT:      31374  MISS:         99
LLC TOTAL     ACCESS:     365763  HIT:      31690  MISS:     334073
LLC LOAD      ACCESS:     313200  HIT:       3959  MISS:     309241
LLC RFO       ACCESS:      23721  HIT:       1135  MISS:      22586
LLC PREFETCH  ACCESS:          0  HIT:          0  MISS:          0
LLC WRITEBACK ACCESS:      28779  HIT:      26594  MISS:       2185
Heartbeat CPU 0 instructions: 80000003 cycles: 51323760 heartbeat IPC: 0.779575 cumulative IPC: 0.78232 (Simulation time: 0 hr 55 min 31 sec) 

Region of Interest Statistics
cpu0_DTLB TOTAL     ACCESS:    5219718  HIT:    5182429  MISS:      37289
cpu0_DTLB LOAD      ACCESS:    4880523  HIT:    4844766  MISS:      35757
cpu0_DTLB RFO       ACCESS:     339195  HIT:     337663  MISS:       1532
cpu0_DTLB PREFETCH  ACCESS:          0  HIT:          0  MISS:          0
cpu0_DTLB WRITEBACK ACCESS:          0  HIT:          0  MISS:          0
cpu0_ITLB TOTAL     ACCESS:    2572927  HIT:    2572926  MISS:          1
cpu0_ITLB LOAD      ACCESS:    2572927  HIT:    2572926  MISS:          1
cpu0_ITLB RFO       ACCESS:          0  HIT:          0  MISS:          0
cpu0_ITLB PREFETCH  ACCESS:          0  HIT:          0  MISS:          0
cpu0_ITLB WRITEBACK ACCESS:          0  HIT:          0  MISS:          0
cpu0_L1I TOTAL     ACCESS:      34017  HIT:      33946  MISS:         71
cpu0_L1I LOAD      ACCESS:      34017  HIT:      33946  MISS:         71
cpu0_L1I RFO       ACCESS:          0  HIT:          0  MISS:          0
cpu0_L1I PREFETCH  ACCESS:          0  HIT:          0  MISS:          0
cpu0_L1I WRITEBACK ACCESS:          0  HIT:          0  MISS:          0
cpu0_STLB TOTAL     ACCESS:      37290  HIT:      26206  MISS:      11084
cpu0_STLB LOAD      ACCESS:      35758  HIT:      24962  MISS:      10796
cpu0_STLB RFO       ACCESS:       1532  HIT:       1244  MISS:        288
cpu0_STLB PREFETCH  ACCESS:          0  HIT:          0  MISS:          0
cpu0_STLB WRITEBACK ACCESS:          0  HIT:          0  MISS:          0
cpu0_L1D TOTAL     ACCESS:    3383894  HIT:    2967740  MISS:     416154
cpu0_L1D LOAD      ACCESS:    2881792  HIT:    2492220  MISS:     389572
cpu0_L1D RFO       ACCESS:     491616  HIT:     465159  MISS:      26457
cpu0_L1D PREFETCH  ACCESS:          0  HIT:          0  MISS:          0
cpu0_L1D WRITEBACK ACCESS:          0  HIT:          0  MISS:          0
cpu0_L2C TOTAL     ACCESS:     448518  HIT:      85194  MISS:     363324
cpu0_L2C LOAD      ACCESS:     389636  HIT:      50999  MISS:     338637
cpu0_L2C RFO       ACCESS:      26457  HIT:       1936  MISS:      24521
cpu0_L2C PREFETCH  ACCESS:          0  HIT:          0  MISS:          0
cpu0_L2C WRITEBACK ACCESS:      32300  HIT:      32200  MISS:        100
LLC TOTAL     ACCESS:     395167  HIT:      34805  MISS:     360362
LLC LOAD      ACCESS:     338637  HIT:       4099  MISS:     334538
LLC RFO       ACCESS:      24521  HIT:       1135  MISS:      23386
LLC PREFETCH  ACCESS:          0  HIT:          0  MISS:          0
LLC WRITEBACK ACCESS:      31943  HIT:      29569  MISS:       2374
Heartbeat CPU 0 instructions: 82000000 cycles: 54251608 heartbeat IPC: 0.683095 cumulative IPC: 0.775282 (Simulation time: 0 hr 57 min 43 sec) 

Region of Interest Statistics
cpu0_DTLB TOTAL     ACCESS:    5584804  HIT:    5542764  MISS:      42040
cpu0_DTLB LOAD      ACCESS:    5225755  HIT:    5185412  MISS:      40343
cpu0_DTLB RFO       ACCESS:     359049  HIT:     357352  MISS:       1697
cpu0_DTLB PREFETCH  ACCESS:          0  HIT:          0  MISS:          0
cpu0_DTLB WRITEBACK ACCESS:          0  HIT:          0  MISS:          0
cpu0_ITLB TOTAL     ACCESS:    2727887  HIT:    2727886  MISS:          1
cpu0_ITLB LOAD      ACCESS:    2727887  HIT:    2727886  MISS:          1
cpu0_ITLB RFO       ACCESS:          0  HIT:          0  MISS:          0
cpu0_ITLB PREFETCH  ACCESS:          0  HIT:          0  MISS:          0
cpu0_ITLB WRITEBACK ACCESS:          0  HIT:          0  MISS:          0
cpu0_L1I TOTAL     ACCESS:      35351  HIT:      35280  MISS:         71
cpu0_L1I LOAD      ACCESS:      35351  HIT:      35280  MISS:         71
cpu0_L1I RFO       ACCESS:          0  HIT:          0  MISS:          0
cpu0_L1I PREFETCH  ACCESS:          0  HIT:          0  MISS:          0
cpu0_L1I WRITEBACK ACCESS:          0  HIT:          0  MISS:          0
cpu0_STLB TOTAL     ACCESS:      42041  HIT:      29791  MISS:      12250
cpu0_STLB LOAD      ACCESS:      40344  HIT:      28394  MISS:      11950
cpu0_STLB RFO       ACCESS:       1697  HIT:       1397  MISS:        300
cpu0_STLB PREFETCH  ACCESS:          0  HIT:          0  MISS:          0
cpu0_STLB WRITEBACK ACCESS:          0  HIT:          0  MISS:          0
cpu0_L1D TOTAL     ACCESS:    3618854  HIT:    3173664  MISS:     445190
cpu0_L1D LOAD      ACCESS:    3081864  HIT:    2663812  MISS:     418052
cpu0_L1D RFO       ACCESS:     525409  HIT:     498407  MISS:      27002
cpu0_L1D PREFETCH  ACCESS:          0  HIT:          0  MISS:          0
cpu0_L1D WRITEBACK ACCESS:          0  HIT:          0  MISS:          0
cpu0_L2C TOTAL     ACCESS:     478977  HIT:      91828  MISS:     387149
cpu0_L2C LOAD      ACCESS:     418115  HIT:      56206  MISS:     361909
cpu0_L2C RFO       ACCESS:      27002  HIT:       1948  MISS:      25054
cpu0_L2C PREFETCH  ACCESS:          0  HIT:          0  MISS:          0
cpu0_L2C WRITEBACK ACCESS:      33724  HIT:      33612  MISS:        112
LLC TOTAL     ACCESS:     419648  HIT:      35711  MISS:     383937
LLC LOAD      ACCESS:     361909  HIT:       4471  MISS:     357438
LLC RFO       ACCESS:      25054  HIT:       1135  MISS:      23919
LLC PREFETCH  ACCESS:          0  HIT:          0  MISS:          0
LLC WRITEBACK ACCESS:      32611  HIT:      30102  MISS:       2509
Heartbeat CPU 0 instructions: 84000001 cycles: 56516459 heartbeat IPC: 0.883061 cumulative IPC: 0.780888 (Simulation time: 0 hr 59 min 41 sec) 

Region of Interest Statistics
cpu0_DTLB TOTAL     ACCESS:    5915304  HIT:    5872482  MISS:      42822
cpu0_DTLB LOAD      ACCESS:    5538424  HIT:    5497386  MISS:      41038
cpu0_DTLB RFO       ACCESS:     376880  HIT:     375096  MISS:       1784
cpu0_DTLB PREFETCH  ACCESS:          0  HIT:          0  MISS:          0
cpu0_DTLB WRITEBACK ACCESS:          0  HIT:          0  MISS:          0
cpu0_ITLB TOTAL     ACCESS:    2917262  HIT:    2917261  MISS:          1
cpu0_ITLB LOAD      ACCESS:    2917262  HIT:    2917261  MISS:          1
cpu0_ITLB RFO       ACCESS:          0  HIT:          0  MISS:          0
cpu0_ITLB PREFETCH  ACCESS:          0  HIT:          0  MISS:          0
cpu0_ITLB WRITEBACK ACCESS:          0  HIT:          0  MISS:          0
cpu0_L1I TOTAL     ACCESS:      35854  HIT:      35783  MISS:         71
cpu0_L1I LOAD      ACCESS:      35854  HIT:      35783  MISS:         71
cpu0_L1I RFO       ACCESS:          0  HIT:          0  MISS:          0
cpu0_L1I PREFETCH  ACCESS:          0  HIT:          0  MISS:          0
cpu0_L1I WRITEBACK ACCESS:          0  HIT:          0  MISS:          0
cpu0_STLB TOTAL     ACCESS:      42823  HIT:      30209  MISS:      12614
cpu0_STLB LOAD      ACCESS:      41039  HIT:      28755  MISS:      12284
cpu0_STLB RFO       ACCESS:       1784  HIT:       1454  MISS:        330
cpu0_STLB PREFETCH  ACCESS:          0  HIT:          0  MISS:          0
cpu0_STLB WRITEBACK ACCESS:          0  HIT:          0  MISS:          0
cpu0_L1D TOTAL     ACCESS:    3813323  HIT:    3340093  MISS:     473230
cpu0_L1D LOAD      ACCESS:    3261355  HIT:    2818579  MISS:     442776
cpu0_L1D RFO       ACCESS:     540033  HIT:     509719  MISS:      30314
cpu0_L1D PREFETCH  ACCESS:          0  HIT:          0  MISS:          0
cpu0_L1D WRITEBACK ACCESS:          0  HIT:          0  MISS:          0
cpu0_L2C TOTAL     ACCESS:     510461  HIT:      97971  MISS:     412490
cpu0_L2C LOAD      ACCESS:     442839  HIT:      58669  MISS:     384170
cpu0_L2C RFO       ACCESS:      30314  HIT:       2183  MISS:      28131
cpu0_L2C PREFETCH  ACCESS:          0  HIT:          0  MISS:          0
cpu0_L2C WRITEBACK ACCESS:      37168  HIT:      37053  MISS:        115
LLC TOTAL     ACCESS:     448873  HIT:      39784  MISS:     409089
LLC LOAD      ACCESS:     384170  HIT:       4689  MISS:     379481
LLC RFO       ACCESS:      28131  HIT:       1351  MISS:      26780
LLC PREFETCH  ACCESS:          0  HIT:          0  MISS:          0
LLC WRITEBACK ACCESS:      36498  HIT:      33741  MISS:       2757
Heartbeat CPU 0 instructions: 86000003 cycles: 59470850 heartbeat IPC: 0.676959 cumulative IPC: 0.774284 (Simulation time: 1 hr 1 min 52 sec) 

Region of Interest Statistics
cpu0_DTLB TOTAL     ACCESS:    6278074  HIT:    6230823  MISS:      47251
cpu0_DTLB LOAD      ACCESS:    5881175  HIT:    5835769  MISS:      45406
cpu0_DTLB RFO       ACCESS:     396899  HIT:     395054  MISS:       1845
cpu0_DTLB PREFETCH  ACCESS:          0  HIT:          0  MISS:          0
cpu0_DTLB WRITEBACK ACCESS:          0  HIT:          0  MISS:          0
cpu0_ITLB TOTAL     ACCESS:    3078764  HIT:    3078763  MISS:          1
cpu0_ITLB LOAD      ACCESS:    3078764  HIT:    3078763  MISS:          1
cpu0_ITLB RFO       ACCESS:          0  HIT:          0  MISS:          0
cpu0_ITLB PREFETCH  ACCESS:          0  HIT:          0  MISS:          0
cpu0_ITLB WRITEBACK ACCESS:          0  HIT:          0  MISS:          0
cpu0_L1I TOTAL     ACCESS:      35873  HIT:      35802  MISS:         71
cpu0_L1I LOAD      ACCESS:      35873  HIT:      35802  MISS:         71
cpu0_L1I RFO       ACCESS:          0  HIT:          0  MISS:          0
cpu0_L1I PREFETCH  ACCESS:          0  HIT:          0  MISS:          0
cpu0_L1I WRITEBACK ACCESS:          0  HIT:          0  MISS:          0
cpu0_STLB TOTAL     ACCESS:      47252  HIT:      33608  MISS:      13644
cpu0_STLB LOAD      ACCESS:      45407  HIT:      32099  MISS:      13308
cpu0_STLB RFO       ACCESS:       1845  HIT:       1509  MISS:        336
cpu0_STLB PREFETCH  ACCESS:          0  HIT:          0  MISS:          0
cpu0_STLB WRITEBACK ACCESS:          0  HIT:          0  MISS:          0
cpu0_L1D TOTAL     ACCESS:    4043447  HIT:    3541267  MISS:     502180
cpu0_L1D LOAD      ACCESS:    3458873  HIT:    2987765  MISS:     471108
cpu0_L1D RFO       ACCESS:     571684  HIT:     540759  MISS:      30925
cpu0_L1D PREFETCH  ACCESS:          0  HIT:          0  MISS:          0
cpu0_L1D WRITEBACK ACCESS:          0  HIT:          0  MISS:          0
cpu0_L2C TOTAL     ACCESS:     540046  HIT:     103398  MISS:     436648
cpu0_L2C LOAD      ACCESS:     471171  HIT:      63459  MISS:     407712
cpu0_L2C RFO       ACCESS:      30925  HIT:       2183  MISS:      28742
cpu0_L2C PREFETCH  ACCESS:          0  HIT:          0  MISS:          0
cpu0_L2C WRITEBACK ACCESS:      37803  HIT:      37687  MISS:        116
LLC TOTAL     ACCESS:     473594  HIT:      40635  MISS:     432959
LLC LOAD      ACCESS:     407712  HIT:       5053  MISS:     402659
LLC RFO       ACCESS:      28742  HIT:       1351  MISS:      27391
LLC PREFETCH  ACCESS:          0  HIT:          0  MISS:          0
LLC WRITEBACK ACCESS:      37062  HIT:      34228  MISS:       2834
Heartbeat CPU 0 instructions: 88000000 cycles: 61843514 heartbeat IPC: 0.842933 cumulative IPC: 0.777617 (Simulation time: 1 hr 4 min 4 sec) 

Region of Interest Statistics
cpu0_DTLB TOTAL     ACCESS:    6621824  HIT:    6572597  MISS:      49227
cpu0_DTLB LOAD      ACCESS:    6205132  HIT:    6157962  MISS:      47170
cpu0_DTLB RFO       ACCESS:     416692  HIT:     414635  MISS:       2057
cpu0_DTLB PREFETCH  ACCESS:          0  HIT:          0  MISS:          0
cpu0_DTLB WRITEBACK ACCESS:          0  HIT:          0  MISS:          0
cpu0_ITLB TOTAL     ACCESS:    3253813  HIT:    3253812  MISS:          1
cpu0_ITLB LOAD      ACCESS:    3253813  HIT:    3253812  MISS:          1
cpu0_ITLB RFO       ACCESS:          0  HIT:          0  MISS:          0
cpu0_ITLB PREFETCH  ACCESS:          0  HIT:          0  MISS:          0
cpu0_ITLB WRITEBACK ACCESS:          0  HIT:          0  MISS:          0
cpu0_L1I TOTAL     ACCESS:      38050  HIT:      37979  MISS:         71
cpu0_L1I LOAD      ACCESS:      38050  HIT:      37979  MISS:         71
cpu0_L1I RFO       ACCESS:          0  HIT:          0  MISS:          0
cpu0_L1I PREFETCH  ACCESS:          0  HIT:          0  MISS:          0
cpu0_L1I WRITEBACK ACCESS:          0  HIT:          0  MISS:          0
cpu0_STLB TOTAL     ACCESS:      49228  HIT:      34972  MISS:      14256
cpu0_STLB LOAD      ACCESS:      47171  HIT:      33291  MISS:      13880
cpu0_STLB RFO       ACCESS:       2057  HIT:       1681  MISS:        376
cpu0_STLB PREFETCH  ACCESS:          0  HIT:          0  MISS:          0
cpu0_STLB WRITEBACK ACCESS:          0  HIT:          0  MISS:          0
cpu0_L1D TOTAL     ACCESS:    4253536  HIT:    3722569  MISS:     530967
cpu0_L1D LOAD      ACCESS:    3646669  HIT:    3149958  MISS:     496711
cpu0_L1D RFO       ACCESS:     593381  HIT:     559285  MISS:      34096
cpu0_L1D PREFETCH  ACCESS:          0  HIT:          0  MISS:          0
cpu0_L1D WRITEBACK ACCESS:          0  HIT:          0  MISS:          0
cpu0_L2C TOTAL     ACCESS:     573103  HIT:     111753  MISS:     461350
cpu0_L2C LOAD      ACCESS:     496772  HIT:      67308  MISS:     429464
cpu0_L2C RFO       ACCESS:      34096  HIT:       2426  MISS:      31670
cpu0_L2C PREFETCH  ACCESS:          0  HIT:          0  MISS:          0
cpu0_L2C WRITEBACK ACCESS:      42075  HIT:      41944  MISS:        131
LLC TOTAL     ACCESS:     501901  HIT:      44519  MISS:     457382
LLC LOAD      ACCESS:     429464  HIT:       5447  MISS:     424017
LLC RFO       ACCESS:      31670  HIT:       1562  MISS:      30108
LLC PREFETCH  ACCESS:          0  HIT:          0  MISS:          0
LLC WRITEBACK ACCESS:      40682  HIT:      37507  MISS:       3175
Heartbeat CPU 0 instructions: 90000002 cycles: 64573385 heartbeat IPC: 0.732636 cumulative IPC: 0.775238 (Simulation time: 1 hr 6 min 16 sec) 

Region of Interest Statistics
cpu0_DTLB TOTAL     ACCESS:    6965702  HIT:    6914421  MISS:      51281
cpu0_DTLB LOAD      ACCESS:    6532415  HIT:    6483228  MISS:      49187
cpu0_DTLB RFO       ACCESS:     433287  HIT:     431193  MISS:       2094
cpu0_DTLB PREFETCH  ACCESS:          0  HIT:          0  MISS:          0
cpu0_DTLB WRITEBACK ACCESS:          0  HIT:          0  MISS:          0
cpu0_ITLB TOTAL     ACCESS:    3427554  HIT:    3427553  MISS:          1
cpu0_ITLB LOAD      ACCESS:    3427554  HIT:    3427553  MISS:          1
cpu0_ITLB RFO       ACCESS:          0  HIT:          0  MISS:          0
cpu0_ITLB PREFETCH  ACCESS:          0  HIT:          0  MISS:          0
cpu0_ITLB WRITEBACK ACCESS:          0  HIT:          0  MISS:          0
cpu0_L1I TOTAL     ACCESS:      38083  HIT:      38012  MISS:         71
cpu0_L1I LOAD      ACCESS:      38083  HIT:      38012  MISS:         71
cpu0_L1I RFO       ACCESS:          0  HIT:          0  MISS:          0
cpu0_L1I PREFETCH  ACCESS:          0  HIT:          0  MISS:          0
cpu0_L1I WRITEBACK ACCESS:          0  HIT:          0  MISS:          0
cpu0_STLB TOTAL     ACCESS:      51282  HIT:      36296  MISS:      14986
cpu0_STLB LOAD      ACCESS:      49188  HIT:      34581  MISS:      14607
cpu0_STLB RFO       ACCESS:       2094  HIT:       1715  MISS:        379
cpu0_STLB PREFETCH  ACCESS:          0  HIT:          0  MISS:          0
cpu0_STLB WRITEBACK ACCESS:          0  HIT:          0  MISS:          0
cpu0_L1D TOTAL     ACCESS:    4465863  HIT:    3907113  MISS:     558750
cpu0_L1D LOAD      ACCESS:    3834902  HIT:    3311101  MISS:     523801
cpu0_L1D RFO       ACCESS:     616789  HIT:     582006  MISS:      34783
cpu0_L1D PREFETCH  ACCESS:          0  HIT:          0  MISS:          0
cpu0_L1D WRITEBACK ACCESS:          0  HIT:          0  MISS:          0
cpu0_L2C TOTAL     ACCESS:     601595  HIT:     114946  MISS:     486649
cpu0_L2C LOAD      ACCESS:     523862  HIT:      69790  MISS:     454072
cpu0_L2C RFO       ACCESS:      34783  HIT:       2426  MISS:      32357
cpu0_L2C PREFETCH  ACCESS:          0  HIT:          0  MISS:          0
cpu0_L2C WRITEBACK ACCESS:      42784  HIT:      42652  MISS:        132
LLC TOTAL     ACCESS:     528182  HIT:      45698  MISS:     482484
LLC LOAD      ACCESS:     454072  HIT:       5684  MISS:     448388
LLC RFO       ACCESS:      32357  HIT:       1562  MISS:      30795
LLC PREFETCH  ACCESS:          0  HIT:          0  MISS:          0
LLC WRITEBACK ACCESS:      41665  HIT:      38449  MISS:       3216
Heartbeat CPU 0 instructions: 92000001 cycles: 67153248 heartbeat IPC: 0.775235 cumulative IPC: 0.775237 (Simulation time: 1 hr 8 min 26 sec) 

Region of Interest Statistics
cpu0_DTLB TOTAL     ACCESS:    7326730  HIT:    7271131  MISS:      55599
cpu0_DTLB LOAD      ACCESS:    6870131  HIT:    6816864  MISS:      53267
cpu0_DTLB RFO       ACCESS:     456599  HIT:     454267  MISS:       2332
cpu0_DTLB PREFETCH  ACCESS:          0  HIT:          0  MISS:          0
cpu0_DTLB WRITEBACK ACCESS:          0  HIT:          0  MISS:          0
cpu0_ITLB TOTAL     ACCESS:    3589971  HIT:    3589970  MISS:          1
cpu0_ITLB LOAD      ACCESS:    3589971  HIT:    3589970  MISS:          1
cpu0_ITLB RFO       ACCESS:          0  HIT:          0  MISS:          0
cpu0_ITLB PREFETCH  ACCESS:          0  HIT:          0  MISS:          0
cpu0_ITLB WRITEBACK ACCESS:          0  HIT:          0  MISS:          0
cpu0_L1I TOTAL     ACCESS:      40049  HIT:      39978  MISS:         71
cpu0_L1I LOAD      ACCESS:      40049  HIT:      39978  MISS:         71
cpu0_L1I RFO       ACCESS:          0  HIT:          0  MISS:          0
cpu0_L1I PREFETCH  ACCESS:          0  HIT:          0  MISS:          0
cpu0_L1I WRITEBACK ACCESS:          0  HIT:          0  MISS:          0
cpu0_STLB TOTAL     ACCESS:      55600  HIT:      39687  MISS:      15913
cpu0_STLB LOAD      ACCESS:      53268  HIT:      37776  MISS:      15492
cpu0_STLB RFO       ACCESS:       2332  HIT:       1911  MISS:        421
cpu0_STLB PREFETCH  ACCESS:          0  HIT:          0  MISS:          0
cpu0_STLB WRITEBACK ACCESS:          0  HIT:          0  MISS:          0
cpu0_L1D TOTAL     ACCESS:    4689528  HIT:    4100887  MISS:     588641
cpu0_L1D LOAD      ACCESS:    4027663  HIT:    3477079  MISS:     550584
cpu0_L1D RFO       ACCESS:     646816  HIT:     608940  MISS:      37876
cpu0_L1D PREFETCH  ACCESS:          0  HIT:          0  MISS:          0
cpu0_L1D WRITEBACK ACCESS:          0  HIT:          0  MISS:          0
cpu0_L2C TOTAL     ACCESS:     635664  HIT:     125527  MISS:     510137
cpu0_L2C LOAD      ACCESS:     550643  HIT:      75955  MISS:     474688
cpu0_L2C RFO       ACCESS:      37876  HIT:       2669  MISS:      35207
cpu0_L2C PREFETCH  ACCESS:          0  HIT:          0  MISS:          0
cpu0_L2C WRITEBACK ACCESS:      46964  HIT:      46817  MISS:        147
LLC TOTAL     ACCESS:     552847  HIT:      47508  MISS:     505339
LLC LOAD      ACCESS:     474688  HIT:       6231  MISS:     468457
LLC RFO       ACCESS:      35207  HIT:       1778  MISS:      33429
LLC PREFETCH  ACCESS:          0  HIT:          0  MISS:          0
LLC WRITEBACK ACCESS:      42857  HIT:      39496  MISS:       3361
Heartbeat CPU 0 instructions: 94000001 cycles: 69656418 heartbeat IPC: 0.798987 cumulative IPC: 0.776286 (Simulation time: 1 hr 10 min 25 sec) 

Region of Interest Statistics
cpu0_DTLB TOTAL     ACCESS:    7655126  HIT:    7598807  MISS:      56319
cpu0_DTLB LOAD      ACCESS:    7185245  HIT:    7131273  MISS:      53972
cpu0_DTLB RFO       ACCESS:     469881  HIT:     467534  MISS:       2347
cpu0_DTLB PREFETCH  ACCESS:          0  HIT:          0  MISS:          0
cpu0_DTLB WRITEBACK ACCESS:          0  HIT:          0  MISS:          0
cpu0_ITLB TOTAL     ACCESS:    3775390  HIT:    3775389  MISS:          1
cpu0_ITLB LOAD      ACCESS:    3775390  HIT:    3775389  MISS:          1
cpu0_ITLB RFO       ACCESS:          0  HIT:          0  MISS:          0
cpu0_ITLB PREFETCH  ACCESS:          0  HIT:          0  MISS:          0
cpu0_ITLB WRITEBACK ACCESS:          0  HIT:          0  MISS:          0
cpu0_L1I TOTAL     ACCESS:      40098  HIT:      40027  MISS:         71
cpu0_L1I LOAD      ACCESS:      40098  HIT:      40027  MISS:         71
cpu0_L1I RFO       ACCESS:          0  HIT:          0  MISS:          0
cpu0_L1I PREFETCH  ACCESS:          0  HIT:          0  MISS:          0
cpu0_L1I WRITEBACK ACCESS:          0  HIT:          0  MISS:          0
cpu0_STLB TOTAL     ACCESS:      56320  HIT:      39972  MISS:      16348
cpu0_STLB LOAD      ACCESS:      53973  HIT:      38047  MISS:      15926
cpu0_STLB RFO       ACCESS:       2347  HIT:       1925  MISS:        422
cpu0_STLB PREFETCH  ACCESS:          0  HIT:          0  MISS:          0
cpu0_STLB WRITEBACK ACCESS:          0  HIT:          0  MISS:          0
cpu0_L1D TOTAL     ACCESS:    4889630  HIT:    4274529  MISS:     615101
cpu0_L1D LOAD      ACCESS:    4212462  HIT:    3636239  MISS:     576223
cpu0_L1D RFO       ACCESS:     661702  HIT:     623008  MISS:      38694
cpu0_L1D PREFETCH  ACCESS:          0  HIT:          0  MISS:          0
cpu0_L1D WRITEBACK ACCESS:          0  HIT:          0  MISS:          0
cpu0_L2C TOTAL     ACCESS:     662980  HIT:     126659  MISS:     536321
cpu0_L2C LOAD      ACCESS:     576282  HIT:      76229  MISS:     500053
cpu0_L2C RFO       ACCESS:      38694  HIT:       2672  MISS:      36022
cpu0_L2C PREFETCH  ACCESS:          0  HIT:          0  MISS:          0
cpu0_L2C WRITEBACK ACCESS:      47820  HIT:      47672  MISS:        148
LLC TOTAL     ACCESS:     582477  HIT:      50824  MISS:     531653
LLC LOAD      ACCESS:     500053  HIT:       6331  MISS:     493722
LLC RFO       ACCESS:      36022  HIT:       1782  MISS:      34240
LLC PREFETCH  ACCESS:          0  HIT:          0  MISS:          0
LLC WRITEBACK ACCESS:      46304  HIT:      42708  MISS:       3596
Heartbeat CPU 0 instructions: 96000002 cycles: 72642128 heartbeat IPC: 0.669858 cumulative IPC: 0.77096 (Simulation time: 1 hr 12 min 38 sec) 

Region of Interest Statistics
cpu0_DTLB TOTAL     ACCESS:    8030333  HIT:    7968808  MISS:      61525
cpu0_DTLB LOAD      ACCESS:    7539221  HIT:    7480225  MISS:      58996
cpu0_DTLB RFO       ACCESS:     491112  HIT:     488583  MISS:       2529
cpu0_DTLB PREFETCH  ACCESS:          0  HIT:          0  MISS:          0
cpu0_DTLB WRITEBACK ACCESS:          0  HIT:          0  MISS:          0
cpu0_ITLB TOTAL     ACCESS:    3937268  HIT:    3937267  MISS:          1
cpu0_ITLB LOAD      ACCESS:    3937268  HIT:    3937267  MISS:          1
cpu0_ITLB RFO       ACCESS:          0  HIT:          0  MISS:          0
cpu0_ITLB PREFETCH  ACCESS:          0  HIT:          0  MISS:          0
cpu0_ITLB WRITEBACK ACCESS:          0  HIT:          0  MISS:          0
cpu0_L1I TOTAL     ACCESS:      41063  HIT:      40992  MISS:         71
cpu0_L1I LOAD      ACCESS:      41063  HIT:      40992  MISS:         71
cpu0_L1I RFO       ACCESS:          0  HIT:          0  MISS:          0
cpu0_L1I PREFETCH  ACCESS:          0  HIT:          0  MISS:          0
cpu0_L1I WRITEBACK ACCESS:          0  HIT:          0  MISS:          0
cpu0_STLB TOTAL     ACCESS:      61526  HIT:      43955  MISS:      17571
cpu0_STLB LOAD      ACCESS:      58997  HIT:      41862  MISS:      17135
cpu0_STLB RFO       ACCESS:       2529  HIT:       2093  MISS:        436
cpu0_STLB PREFETCH  ACCESS:          0  HIT:          0  MISS:          0
cpu0_STLB WRITEBACK ACCESS:          0  HIT:          0  MISS:          0
cpu0_L1D TOTAL     ACCESS:    5129664  HIT:    4485301  MISS:     644363
cpu0_L1D LOAD      ACCESS:    4416067  HIT:    3811171  MISS:     604896
cpu0_L1D RFO       ACCESS:     696984  HIT:     657714  MISS:      39270
cpu0_L1D PREFETCH  ACCESS:          0  HIT:          0  MISS:          0
cpu0_L1D WRITEBACK ACCESS:          0  HIT:          0  MISS:          0
cpu0_L2C TOTAL     ACCESS:     693812  HIT:     134040  MISS:     559772
cpu0_L2C LOAD      ACCESS:     604954  HIT:      82039  MISS:     522915
cpu0_L2C RFO       ACCESS:      39270  HIT:       2679  MISS:      36591
cpu0_L2C PREFETCH  ACCESS:          0  HIT:          0  MISS:          0
cpu0_L2C WRITEBACK ACCESS:      49391  HIT:      49231  MISS:        160
LLC TOTAL     ACCESS:     606407  HIT:      51612  MISS:     554795
LLC LOAD      ACCESS:     522915  HIT:       6714  MISS:     516201
LLC RFO       ACCESS:      36591  HIT:       1782  MISS:      34809
LLC PREFETCH  ACCESS:          0  HIT:          0  MISS:          0
LLC WRITEBACK ACCESS:      46795  HIT:      43112  MISS:       3683
Heartbeat CPU 0 instructions: 98000002 cycles: 74946715 heartbeat IPC: 0.867834 cumulative IPC: 0.774563 (Simulation time: 1 hr 14 min 44 sec) 

Region of Interest Statistics
cpu0_DTLB TOTAL     ACCESS:    8359833  HIT:    8297330  MISS:      62503
cpu0_DTLB LOAD      ACCESS:    7851460  HIT:    7791571  MISS:      59889
cpu0_DTLB RFO       ACCESS:     508373  HIT:     505759  MISS:       2614
cpu0_DTLB PREFETCH  ACCESS:          0  HIT:          0  MISS:          0
cpu0_DTLB WRITEBACK ACCESS:          0  HIT:          0  MISS:          0
cpu0_ITLB TOTAL     ACCESS:    4114867  HIT:    4114866  MISS:          1
cpu0_ITLB LOAD      ACCESS:    4114867  HIT:    4114866  MISS:          1
cpu0_ITLB RFO       ACCESS:          0  HIT:          0  MISS:          0
cpu0_ITLB PREFETCH  ACCESS:          0  HIT:          0  MISS:          0
cpu0_ITLB WRITEBACK ACCESS:          0  HIT:          0  MISS:          0
cpu0_L1I TOTAL     ACCESS:      41999  HIT:      41928  MISS:         71
cpu0_L1I LOAD      ACCESS:      41999  HIT:      41928  MISS:         71
cpu0_L1I RFO       ACCESS:          0  HIT:          0  MISS:          0
cpu0_L1I PREFETCH  ACCESS:          0  HIT:          0  MISS:          0
cpu0_L1I WRITEBACK ACCESS:          0  HIT:          0  MISS:          0
cpu0_STLB TOTAL     ACCESS:      62504  HIT:      44572  MISS:      17932
cpu0_STLB LOAD      ACCESS:      59890  HIT:      42425  MISS:      17465
cpu0_STLB RFO       ACCESS:       2614  HIT:       2147  MISS:        467
cpu0_STLB PREFETCH  ACCESS:          0  HIT:          0  MISS:          0
cpu0_STLB WRITEBACK ACCESS:          0  HIT:          0  MISS:          0
cpu0_L1D TOTAL     ACCESS:    5326466  HIT:    4654129  MISS:     672337
cpu0_L1D LOAD      ACCESS:    4596973  HIT:    3967298  MISS:     629675
cpu0_L1D RFO       ACCESS:     712526  HIT:     670067  MISS:      42459
cpu0_L1D PREFETCH  ACCESS:          0  HIT:          0  MISS:          0
cpu0_L1D WRITEBACK ACCESS:          0  HIT:          0  MISS:          0
cpu0_L2C TOTAL     ACCESS:     725068  HIT:     140145  MISS:     584923
cpu0_L2C LOAD      ACCESS:     629733  HIT:      84623  MISS:     545110
cpu0_L2C RFO       ACCESS:      42459  HIT:       2916  MISS:      39543
cpu0_L2C PREFETCH  ACCESS:          0  HIT:          0  MISS:          0
cpu0_L2C WRITEBACK ACCESS:      52673  HIT:      52510  MISS:        163
LLC TOTAL     ACCESS:     635484  HIT:      55716  MISS:     579768
LLC LOAD      ACCESS:     545110  HIT:       7000  MISS:     538110
LLC RFO       ACCESS:      39543  HIT:       2000  MISS:      37543
LLC PREFETCH  ACCESS:          0  HIT:          0  MISS:          0
LLC WRITEBACK ACCESS:      50724  HIT:      46711  MISS:       4013
Heartbeat CPU 0 instructions: 100000000 cycles: 77795381 heartbeat IPC: 0.702082 cumulative IPC: 0.771378 (Simulation time: 1 hr 16 min 53 sec) 

Region of Interest Statistics
cpu0_DTLB TOTAL     ACCESS:    8715585  HIT:    8649587  MISS:      65998
cpu0_DTLB LOAD      ACCESS:    8188621  HIT:    8125282  MISS:      63339
cpu0_DTLB RFO       ACCESS:     526964  HIT:     524305  MISS:       2659
cpu0_DTLB PREFETCH  ACCESS:          0  HIT:          0  MISS:          0
cpu0_DTLB WRITEBACK ACCESS:          0  HIT:          0  MISS:          0
cpu0_ITLB TOTAL     ACCESS:    4280706  HIT:    4280705  MISS:          1
cpu0_ITLB LOAD      ACCESS:    4280706  HIT:    4280705  MISS:          1
cpu0_ITLB RFO       ACCESS:          0  HIT:          0  MISS:          0
cpu0_ITLB PREFETCH  ACCESS:          0  HIT:          0  MISS:          0
cpu0_ITLB WRITEBACK ACCESS:          0  HIT:          0  MISS:          0
cpu0_L1I TOTAL     ACCESS:      42018  HIT:      41947  MISS:         71
cpu0_L1I LOAD      ACCESS:      42018  HIT:      41947  MISS:         71
cpu0_L1I RFO       ACCESS:          0  HIT:          0  MISS:          0
cpu0_L1I PREFETCH  ACCESS:          0  HIT:          0  MISS:          0
cpu0_L1I WRITEBACK ACCESS:          0  HIT:          0  MISS:          0
cpu0_STLB TOTAL     ACCESS:      65999  HIT:      47160  MISS:      18839
cpu0_STLB LOAD      ACCESS:      63340  HIT:      44973  MISS:      18367
cpu0_STLB RFO       ACCESS:       2659  HIT:       2187  MISS:        472
cpu0_STLB PREFETCH  ACCESS:          0  HIT:          0  MISS:          0
cpu0_STLB WRITEBACK ACCESS:          0  HIT:          0  MISS:          0
cpu0_L1D TOTAL     ACCESS:    5546944  HIT:    4846487  MISS:     700457
cpu0_L1D LOAD      ACCESS:    4788773  HIT:    4131626  MISS:     657147
cpu0_L1D RFO       ACCESS:     740360  HIT:     697260  MISS:      43100
cpu0_L1D PREFETCH  ACCESS:          0  HIT:          0  MISS:          0
cpu0_L1D WRITEBACK ACCESS:          0  HIT:          0  MISS:          0
cpu0_L2C TOTAL     ACCESS:     753844  HIT:     144515  MISS:     609329
cpu0_L2C LOAD      ACCESS:     657205  HIT:      88335  MISS:     568870
cpu0_L2C RFO       ACCESS:      43100  HIT:       2916  MISS:      40184
cpu0_L2C PREFETCH  ACCESS:          0  HIT:          0  MISS:          0
cpu0_L2C WRITEBACK ACCESS:      53329  HIT:      53165  MISS:        164
LLC TOTAL     ACCESS:     660547  HIT:      56611  MISS:     603936
LLC LOAD      ACCESS:     568870  HIT:       7296  MISS:     561574
LLC RFO       ACCESS:      40184  HIT:       2000  MISS:      38184
LLC PREFETCH  ACCESS:          0  HIT:          0  MISS:          0
LLC WRITEBACK ACCESS:      51382  HIT:      47310  MISS:       4072
Heartbeat CPU 0 instructions: 102000001 cycles: 80284358 heartbeat IPC: 0.803543 cumulative IPC: 0.772567 (Simulation time: 1 hr 19 min 2 sec) 

Region of Interest Statistics
cpu0_DTLB TOTAL     ACCESS:    9069065  HIT:    9000113  MISS:      68952
cpu0_DTLB LOAD      ACCESS:    8520473  HIT:    8454407  MISS:      66066
cpu0_DTLB RFO       ACCESS:     548592  HIT:     545706  MISS:       2886
cpu0_DTLB PREFETCH  ACCESS:          0  HIT:          0  MISS:          0
cpu0_DTLB WRITEBACK ACCESS:          0  HIT:          0  MISS:          0
cpu0_ITLB TOTAL     ACCESS:    4450742  HIT:    4450741  MISS:          1
cpu0_ITLB LOAD      ACCESS:    4450742  HIT:    4450741  MISS:          1
cpu0_ITLB RFO       ACCESS:          0  HIT:          0  MISS:          0
cpu0_ITLB PREFETCH  ACCESS:          0  HIT:          0  MISS:          0
cpu0_ITLB WRITEBACK ACCESS:          0  HIT:          0  MISS:          0
cpu0_L1I TOTAL     ACCESS:      43804  HIT:      43733  MISS:         71
cpu0_L1I LOAD      ACCESS:      43804  HIT:      43733  MISS:         71
cpu0_L1I RFO       ACCESS:          0  HIT:          0  MISS:          0
cpu0_L1I PREFETCH  ACCESS:          0  HIT:          0  MISS:          0
cpu0_L1I WRITEBACK ACCESS:          0  HIT:          0  MISS:          0
cpu0_STLB TOTAL     ACCESS:      68953  HIT:      49362  MISS:      19591
cpu0_STLB LOAD      ACCESS:      66067  HIT:      46989  MISS:      19078
cpu0_STLB RFO       ACCESS:       2886  HIT:       2373  MISS:        513
cpu0_STLB PREFETCH  ACCESS:          0  HIT:          0  MISS:          0
cpu0_STLB WRITEBACK ACCESS:          0  HIT:          0  MISS:          0
cpu0_L1D TOTAL     ACCESS:    5764594  HIT:    5034499  MISS:     730095
cpu0_L1D LOAD      ACCESS:    4979481  HIT:    4295886  MISS:     683595
cpu0_L1D RFO       ACCESS:     766579  HIT:     720306  MISS:      46273
cpu0_L1D PREFETCH  ACCESS:          0  HIT:          0  MISS:          0
cpu0_L1D WRITEBACK ACCESS:          0  HIT:          0  MISS:          0
cpu0_L2C TOTAL     ACCESS:     787806  HIT:     154070  MISS:     633736
cpu0_L2C LOAD      ACCESS:     683652  HIT:      93281  MISS:     590371
cpu0_L2C RFO       ACCESS:      46273  HIT:       3207  MISS:      43066
cpu0_L2C PREFETCH  ACCESS:          0  HIT:          0  MISS:          0
cpu0_L2C WRITEBACK ACCESS:      57654  HIT:      57475  MISS:        179
LLC TOTAL     ACCESS:     687588  HIT:      59787  MISS:     627801
LLC LOAD      ACCESS:     590371  HIT:       7806  MISS:     582565
LLC RFO       ACCESS:      43066  HIT:       2219  MISS:      40847
LLC PREFETCH  ACCESS:          0  HIT:          0  MISS:          0
LLC WRITEBACK ACCESS:      54031  HIT:      49754  MISS:       4277
Heartbeat CPU 0 instructions: 104000004 cycles: 82959678 heartbeat IPC: 0.747575 cumulative IPC: 0.771612 (Simulation time: 1 hr 21 min 1 sec) 

Region of Interest Statistics
cpu0_DTLB TOTAL     ACCESS:    9405142  HIT:    9334774  MISS:      70368
cpu0_DTLB LOAD      ACCESS:    8841820  HIT:    8774380  MISS:      67440
cpu0_DTLB RFO       ACCESS:     563322  HIT:     560394  MISS:       2928
cpu0_DTLB PREFETCH  ACCESS:          0  HIT:          0  MISS:          0
cpu0_DTLB WRITEBACK ACCESS:          0  HIT:          0  MISS:          0
cpu0_ITLB TOTAL     ACCESS:    4631296  HIT:    4631295  MISS:          1
cpu0_ITLB LOAD      ACCESS:    4631296  HIT:    4631295  MISS:          1
cpu0_ITLB RFO       ACCESS:          0  HIT:          0  MISS:          0
cpu0_ITLB PREFETCH  ACCESS:          0  HIT:          0  MISS:          0
cpu0_ITLB WRITEBACK ACCESS:          0  HIT:          0  MISS:          0
cpu0_L1I TOTAL     ACCESS:      43852  HIT:      43781  MISS:         71
cpu0_L1I LOAD      ACCESS:      43852  HIT:      43781  MISS:         71
cpu0_L1I RFO       ACCESS:          0  HIT:          0  MISS:          0
cpu0_L1I PREFETCH  ACCESS:          0  HIT:          0  MISS:          0
cpu0_L1I WRITEBACK ACCESS:          0  HIT:          0  MISS:          0
cpu0_STLB TOTAL     ACCESS:      70369  HIT:      50225  MISS:      20144
cpu0_STLB LOAD      ACCESS:      67441  HIT:      47811  MISS:      19630
cpu0_STLB RFO       ACCESS:       2928  HIT:       2414  MISS:        514
cpu0_STLB PREFETCH  ACCESS:          0  HIT:          0  MISS:          0
cpu0_STLB WRITEBACK ACCESS:          0  HIT:          0  MISS:          0
cpu0_L1D TOTAL     ACCESS:    5971059  HIT:    5213677  MISS:     757382
cpu0_L1D LOAD      ACCESS:    5166190  HIT:    4456011  MISS:     710179
cpu0_L1D RFO       ACCESS:     785806  HIT:     738835  MISS:      46971
cpu0_L1D PREFETCH  ACCESS:          0  HIT:          0  MISS:          0
cpu0_L1D WRITEBACK ACCESS:          0  HIT:          0  MISS:          0
cpu0_L2C TOTAL     ACCESS:     815818  HIT:     156242  MISS:     659576
cpu0_L2C LOAD      ACCESS:     710236  HIT:      94727  MISS:     615509
cpu0_L2C RFO       ACCESS:      46971  HIT:       3207  MISS:      43764
cpu0_L2C PREFETCH  ACCESS:          0  HIT:          0  MISS:          0
cpu0_L2C WRITEBACK ACCESS:      58379  HIT:      58199  MISS:        180
LLC TOTAL     ACCESS:     715479  HIT:      61920  MISS:     653559
LLC LOAD      ACCESS:     615509  HIT:       7970  MISS:     607539
LLC RFO       ACCESS:      43764  HIT:       2219  MISS:      41545
LLC PREFETCH  ACCESS:          0  HIT:          0  MISS:          0
LLC WRITEBACK ACCESS:      56083  HIT:      51723  MISS:       4360
Heartbeat CPU 0 instructions: 106000003 cycles: 86007255 heartbeat IPC: 0.656259 cumulative IPC: 0.766798 (Simulation time: 1 hr 23 min 10 sec) 

Region of Interest Statistics
cpu0_DTLB TOTAL     ACCESS:    9772579  HIT:    9697321  MISS:      75258
cpu0_DTLB LOAD      ACCESS:    9189083  HIT:    9116825  MISS:      72258
cpu0_DTLB RFO       ACCESS:     583496  HIT:     580496  MISS:       3000
cpu0_DTLB PREFETCH  ACCESS:          0  HIT:          0  MISS:          0
cpu0_DTLB WRITEBACK ACCESS:          0  HIT:          0  MISS:          0
cpu0_ITLB TOTAL     ACCESS:    4789769  HIT:    4789768  MISS:          1
cpu0_ITLB LOAD      ACCESS:    4789769  HIT:    4789768  MISS:          1
cpu0_ITLB RFO       ACCESS:          0  HIT:          0  MISS:          0
cpu0_ITLB PREFETCH  ACCESS:          0  HIT:          0  MISS:          0
cpu0_ITLB WRITEBACK ACCESS:          0  HIT:          0  MISS:          0
cpu0_L1I TOTAL     ACCESS:      43852  HIT:      43781  MISS:         71
cpu0_L1I LOAD      ACCESS:      43852  HIT:      43781  MISS:         71
cpu0_L1I RFO       ACCESS:          0  HIT:          0  MISS:          0
cpu0_L1I PREFETCH  ACCESS:          0  HIT:          0  MISS:          0
cpu0_L1I WRITEBACK ACCESS:          0  HIT:          0  MISS:          0
cpu0_STLB TOTAL     ACCESS:      75259  HIT:      54119  MISS:      21140
cpu0_STLB LOAD      ACCESS:      72259  HIT:      51638  MISS:      20621
cpu0_STLB RFO       ACCESS:       3000  HIT:       2481  MISS:        519
cpu0_STLB PREFETCH  ACCESS:          0  HIT:          0  MISS:          0
cpu0_STLB WRITEBACK ACCESS:          0  HIT:          0  MISS:          0
cpu0_L1D TOTAL     ACCESS:    6201608  HIT:    5415246  MISS:     786362
cpu0_L1D LOAD      ACCESS:    5362223  HIT:    4623487  MISS:     738736
cpu0_L1D RFO       ACCESS:     819389  HIT:     772001  MISS:      47388
cpu0_L1D PREFETCH  ACCESS:          0  HIT:          0  MISS:          0
cpu0_L1D WRITEBACK ACCESS:          0  HIT:          0  MISS:          0
cpu0_L2C TOTAL     ACCESS:     845199  HIT:     162685  MISS:     682514
cpu0_L2C LOAD      ACCESS:     738793  HIT:     100765  MISS:     638028
cpu0_L2C RFO       ACCESS:      47388  HIT:       3207  MISS:      44181
cpu0_L2C PREFETCH  ACCESS:          0  HIT:          0  MISS:          0
[...]
cpu0_DTLB LOAD      ACCESS:  246399265  HIT:  244425134  MISS:    1974131
cpu0_DTLB RFO       ACCESS:   15479752  HIT:   15397103  MISS:      82649
cpu0_DTLB PREFETCH  ACCESS:          0  HIT:          0  MISS:          0
cpu0_DTLB WRITEBACK ACCESS:          0  HIT:          0  MISS:          0
cpu0_ITLB TOTAL     ACCESS:  128051690  HIT:  128051662  MISS:         28
cpu0_ITLB LOAD      ACCESS:  128051690  HIT:  128051662  MISS:         28
cpu0_ITLB RFO       ACCESS:          0  HIT:          0  MISS:          0
cpu0_ITLB PREFETCH  ACCESS:          0  HIT:          0  MISS:          0
cpu0_ITLB WRITEBACK ACCESS:          0  HIT:          0  MISS:          0
cpu0_L1I TOTAL     ACCESS:    1116546  HIT:    1114754  MISS:       1792
cpu0_L1I LOAD      ACCESS:    1116546  HIT:    1114754  MISS:       1792
cpu0_L1I RFO       ACCESS:          0  HIT:          0  MISS:          0
cpu0_L1I PREFETCH  ACCESS:          0  HIT:          0  MISS:          0
cpu0_L1I WRITEBACK ACCESS:          0  HIT:          0  MISS:          0
cpu0_STLB TOTAL     ACCESS:    2056808  HIT:    1526444  MISS:     530364
cpu0_STLB LOAD      ACCESS:    1974159  HIT:    1457035  MISS:     517124
cpu0_STLB RFO       ACCESS:      82649  HIT:      69409  MISS:      13240
cpu0_STLB PREFETCH  ACCESS:          0  HIT:          0  MISS:          0
cpu0_STLB WRITEBACK ACCESS:          0  HIT:          0  MISS:          0
cpu0_L1D TOTAL     ACCESS:  165313110  HIT:  144312983  MISS:   21000127
cpu0_L1D LOAD      ACCESS:  143214992  HIT:  123513065  MISS:   19701927
cpu0_L1D RFO       ACCESS:   21595160  HIT:   20304139  MISS:    1291021
cpu0_L1D PREFETCH  ACCESS:          0  HIT:          0  MISS:          0
cpu0_L1D WRITEBACK ACCESS:          0  HIT:          0  MISS:          0
cpu0_L2C TOTAL     ACCESS:   22620950  HIT:    4422371  MISS:   18198579
cpu0_L2C LOAD      ACCESS:   19703609  HIT:    2711205  MISS:   16992404
cpu0_L2C RFO       ACCESS:    1291012  HIT:      92876  MISS:    1198136
cpu0_L2C PREFETCH  ACCESS:          0  HIT:          0  MISS:          0
cpu0_L2C WRITEBACK ACCESS:    1619150  HIT:    1614268  MISS:       4882
LLC TOTAL     ACCESS:   19677936  HIT:    1672437  MISS:   18005499
LLC LOAD      ACCESS:   16992396  HIT:     235651  MISS:   16756745
LLC RFO       ACCESS:    1198136  HIT:      59042  MISS:    1139094
LLC PREFETCH  ACCESS:          0  HIT:          0  MISS:          0
LLC WRITEBACK ACCESS:    1484247  HIT:    1377584  MISS:     106663
Heartbeat CPU 0 instructions: 1550000004 cycles: 1971288721 heartbeat IPC: 0.84319 cumulative IPC: 0.765966 (Simulation time: 19 hr 51 min 11 sec) 

Region of Interest Statistics
cpu0_DTLB TOTAL     ACCESS:  262227512  HIT:  260168838  MISS:    2058674
cpu0_DTLB LOAD      ACCESS:  246727710  HIT:  244751822  MISS:    1975888
cpu0_DTLB RFO       ACCESS:   15499802  HIT:   15417016  MISS:      82786
cpu0_DTLB PREFETCH  ACCESS:          0  HIT:          0  MISS:          0
cpu0_DTLB WRITEBACK ACCESS:          0  HIT:          0  MISS:          0
cpu0_ITLB TOTAL     ACCESS:  128222892  HIT:  128222864  MISS:         28
cpu0_ITLB LOAD      ACCESS:  128222892  HIT:  128222864  MISS:         28
cpu0_ITLB RFO       ACCESS:          0  HIT:          0  MISS:          0
cpu0_ITLB PREFETCH  ACCESS:          0  HIT:          0  MISS:          0
cpu0_ITLB WRITEBACK ACCESS:          0  HIT:          0  MISS:          0
cpu0_L1I TOTAL     ACCESS:    1117885  HIT:    1116093  MISS:       1792
cpu0_L1I LOAD      ACCESS:    1117885  HIT:    1116093  MISS:       1792
cpu0_L1I RFO       ACCESS:          0  HIT:          0  MISS:          0
cpu0_L1I PREFETCH  ACCESS:          0  HIT:          0  MISS:          0
cpu0_L1I WRITEBACK ACCESS:          0  HIT:          0  MISS:          0
cpu0_STLB TOTAL     ACCESS:    2058702  HIT:    1527709  MISS:     530993
cpu0_STLB LOAD      ACCESS:    1975916  HIT:    1458195  MISS:     517721
cpu0_STLB RFO       ACCESS:      82786  HIT:      69514  MISS:      13272
cpu0_STLB PREFETCH  ACCESS:          0  HIT:          0  MISS:          0
cpu0_STLB WRITEBACK ACCESS:          0  HIT:          0  MISS:          0
cpu0_L1D TOTAL     ACCESS:  165523455  HIT:  144495085  MISS:   21028370
cpu0_L1D LOAD      ACCESS:  143402709  HIT:  123675705  MISS:   19727004
cpu0_L1D RFO       ACCESS:   21617198  HIT:   20323024  MISS:    1294174
cpu0_L1D PREFETCH  ACCESS:          0  HIT:          0  MISS:          0
cpu0_L1D WRITEBACK ACCESS:          0  HIT:          0  MISS:          0
cpu0_L2C TOTAL     ACCESS:   22652948  HIT:    4430371  MISS:   18222577
cpu0_L2C LOAD      ACCESS:   19728686  HIT:    2715212  MISS:   17013474
cpu0_L2C RFO       ACCESS:    1294165  HIT:      93122  MISS:    1201043
cpu0_L2C PREFETCH  ACCESS:          0  HIT:          0  MISS:          0
cpu0_L2C WRITEBACK ACCESS:    1622905  HIT:    1618008  MISS:       4897
LLC TOTAL     ACCESS:   19704676  HIT:    1675598  MISS:   18029078
LLC LOAD      ACCESS:   17013466  HIT:     236031  MISS:   16777435
LLC RFO       ACCESS:    1201043  HIT:      59255  MISS:    1141788
LLC PREFETCH  ACCESS:          0  HIT:          0  MISS:          0
LLC WRITEBACK ACCESS:    1487004  HIT:    1380152  MISS:     106852
Finished CPU 0 instructions: 1500000001 cycles: 1958312427 cumulative IPC: 0.765966 (Simulation time: 19 hr 51 min 11 sec) 

ChampSim completed all CPUs

Region of Interest Statistics

CPU 0 cumulative IPC: 0.765966 instructions: 1500000001 cycles: 1958312427
cpu0_DTLB TOTAL     ACCESS:  262227512  HIT:  260168838  MISS:    2058674
cpu0_DTLB LOAD      ACCESS:  246727710  HIT:  244751822  MISS:    1975888
cpu0_DTLB RFO       ACCESS:   15499802  HIT:   15417016  MISS:      82786
cpu0_DTLB PREFETCH  ACCESS:          0  HIT:          0  MISS:          0
cpu0_DTLB WRITEBACK ACCESS:          0  HIT:          0  MISS:          0
cpu0_DTLB TRANSLATION ACCESS:          0  HIT:          0  MISS:          0
cpu0_DTLB PREFETCH  REQUESTED:          0  ISSUED:          0  USEFUL:          0  USELESS:          0
cpu0_DTLB AVERAGE MISS LATENCY: 11.5914 cycles
cpu0_ITLB TOTAL     ACCESS:  128222892  HIT:  128222864  MISS:         28
cpu0_ITLB LOAD      ACCESS:  128222892  HIT:  128222864  MISS:         28
cpu0_ITLB RFO       ACCESS:          0  HIT:          0  MISS:          0
cpu0_ITLB PREFETCH  ACCESS:          0  HIT:          0  MISS:          0
cpu0_ITLB WRITEBACK ACCESS:          0  HIT:          0  MISS:          0
cpu0_ITLB TRANSLATION ACCESS:          0  HIT:          0  MISS:          0
cpu0_ITLB PREFETCH  REQUESTED:          0  ISSUED:          0  USEFUL:          0  USELESS:          0
cpu0_ITLB AVERAGE MISS LATENCY: 176.036 cycles
cpu0_L1I TOTAL     ACCESS:    1117885  HIT:    1116093  MISS:       1792
cpu0_L1I LOAD      ACCESS:    1117885  HIT:    1116093  MISS:       1792
cpu0_L1I RFO       ACCESS:          0  HIT:          0  MISS:          0
cpu0_L1I PREFETCH  ACCESS:          0  HIT:          0  MISS:          0
cpu0_L1I WRITEBACK ACCESS:          0  HIT:          0  MISS:          0
cpu0_L1I TRANSLATION ACCESS:          0  HIT:          0  MISS:          0
cpu0_L1I PREFETCH  REQUESTED:          0  ISSUED:          0  USEFUL:          0  USELESS:          0
cpu0_L1I AVERAGE MISS LATENCY: 232.616 cycles
cpu0_STLB TOTAL     ACCESS:    2058702  HIT:    1527709  MISS:     530993
cpu0_STLB LOAD      ACCESS:    1975916  HIT:    1458195  MISS:     517721
cpu0_STLB RFO       ACCESS:      82786  HIT:      69514  MISS:      13272
cpu0_STLB PREFETCH  ACCESS:          0  HIT:          0  MISS:          0
cpu0_STLB WRITEBACK ACCESS:          0  HIT:          0  MISS:          0
cpu0_STLB TRANSLATION ACCESS:          0  HIT:          0  MISS:          0
cpu0_STLB PREFETCH  REQUESTED:          0  ISSUED:          0  USEFUL:          0  USELESS:          0
cpu0_STLB AVERAGE MISS LATENCY: 9.91208 cycles
cpu0_L1D TOTAL     ACCESS:  165523455  HIT:  144495085  MISS:   21028370
cpu0_L1D LOAD      ACCESS:  143402709  HIT:  123675705  MISS:   19727004
cpu0_L1D RFO       ACCESS:   21617198  HIT:   20323024  MISS:    1294174
cpu0_L1D PREFETCH  ACCESS:          0  HIT:          0  MISS:          0
cpu0_L1D WRITEBACK ACCESS:          0  HIT:          0  MISS:          0
cpu0_L1D TRANSLATION ACCESS:     503548  HIT:     496356  MISS:       7192
cpu0_L1D PREFETCH  REQUESTED:          0  ISSUED:          0  USEFUL:          0  USELESS:          0
cpu0_L1D AVERAGE MISS LATENCY: 233.59 cycles
cpu0_L2C TOTAL     ACCESS:   22652948  HIT:    4430371  MISS:   18222577
cpu0_L2C LOAD      ACCESS:   19728686  HIT:    2715212  MISS:   17013474
cpu0_L2C RFO       ACCESS:    1294165  HIT:      93122  MISS:    1201043
cpu0_L2C PREFETCH  ACCESS:          0  HIT:          0  MISS:          0
cpu0_L2C WRITEBACK ACCESS:    1622905  HIT:    1618008  MISS:       4897
cpu0_L2C TRANSLATION ACCESS:       7192  HIT:       4029  MISS:       3163
cpu0_L2C PREFETCH  REQUESTED:          0  ISSUED:          0  USEFUL:          0  USELESS:          0
cpu0_L2C AVERAGE MISS LATENCY: 256.851 cycles
LLC TOTAL     ACCESS:   19704676  HIT:    1675598  MISS:   18029078
LLC LOAD      ACCESS:   17013466  HIT:     236031  MISS:   16777435
LLC RFO       ACCESS:    1201043  HIT:      59255  MISS:    1141788
LLC PREFETCH  ACCESS:          0  HIT:          0  MISS:          0
LLC WRITEBACK ACCESS:    1487004  HIT:    1380152  MISS:     106852
LLC TRANSLATION ACCESS:       3163  HIT:        160  MISS:       3003
LLC PREFETCH  REQUESTED:          0  ISSUED:          0  USEFUL:          0  USELESS:          0
LLC AVERAGE MISS LATENCY: 238.388 cycles
~~~~~~~~~~Reuse Distance Profiler output~~~~~~~~~~
0	0	0
1	0	0
2	0	0
3	0	0
4	0	0
5	0	0
6	0	0
7	0	0
8	0	0
9	0	0
10	0	0
11	0	0
12	0	0
13	0	0
14	0	0
15	0	0
16	0	0
17	0	0
18	0	0
19	0	0
20	0	0
21	0	0
22	0	0
23	0	0
24	0	0
25	0	0
26	0	0
27	0	0
28	0	0
29	0	0
30	0	0
31	0	0
32	0	0
33	0	0
34	0	0
35	0	0
36	0	0
37	0	0
38	0	0
39	0	0
40	0	0
41	0	0
42	0	0
43	0	0
44	0	0
45	0	0
46	0	0
47	0	0
48	0	0
49	0	0
50	0	0
51	0	0
52	0	0
53	0	0
54	0	0
55	0	0
56	0	0
57	0	0
58	0	0
59	0	0
60	0	0
61	0	0
62	0	0
63	0	0
64	0	0
66	0	0
68	0	0
70	0	0
72	0	0
74	0	0
76	0	0
78	0	0
80	0	0
82	0	0
84	0	0
86	0	0
88	0	0
90	0	0
92	0	0
94	0	0
96	0	0
98	0	0
100	0	0
102	0	0
104	0	0
106	0	0
108	0	0
110	0	0
112	0	0
114	0	0
116	0	0
118	0	0
120	0	0
122	0	0
124	0	0
126	0	0
128	0	0
132	0	0
136	0	0
140	0	0
144	0	0
148	0	0
152	0	0
156	0	0
160	0	0
164	0	0
168	0	0
172	0	0
176	0	0
180	0	0
184	0	0
188	0	0
192	0	0
196	0	0
200	0	0
204	0	0
208	0	0
212	0	0
216	0	0
220	0	0
224	0	0
228	0	0
232	0	0
236	0	0
240	0	0
244	0	0
248	0	0
252	0	0
256	0	0
264	0	0
272	0	0
280	0	0
288	0	0
296	0	0
304	0	0
312	0	0
320	0	0
328	0	0
336	0	0
344	0	0
352	0	0
360	0	0
368	0	0
376	0	0
384	0	0
392	0	0
400	0	0
408	0	0
416	0	0
424	0	0
432	0	0
440	0	0
448	0	0
456	0	0
464	0	0
472	0	0
480	0	0
488	0	0
496	0	0
504	0	0
512	0	0
528	0	0
544	0	0
560	0	0
576	0	0
592	0	0
608	0	0
624	0	0
640	0	0
656	0	0
672	0	0
688	0	0
704	0	0
720	0	0
736	0	0
752	0	0
768	0	0
784	0	0
800	0	0
816	0	0
832	0	0
848	0	0
864	0	0
880	0	0
896	0	0
912	0	0
928	0	0
944	0	0
960	0	0
976	0	0
992	0	0
1008	0	0
1024	0	0
1056	0	0
1088	0	0
1120	0	0
1152	0	0
1184	0	0
1216	0	0
1248	0	0
1280	0	0
1312	0	0
1344	0	0
1376	0	0
1408	0	0
1440	0	0
1472	0	0
1504	0	0
1536	0	0
1568	0	0
1600	0	0
1632	0	0
1664	0	0
1696	0	0
1728	0	0
1760	0	0
1792	0	0
1824	0	0
1856	0	0
1888	0	0
1920	0	0
1952	0	0
1984	0	0
2016	0	0
2048	0	0
2112	0	0
2176	0	0
2240	0	0
2304	0	0
2368	0	0
2432	0	0
2496	0	0
2560	0	0
2624	0	0
2688	0	0
2752	0	0
2816	0	0
2880	0	0
2944	0	0
3008	0	0
3072	0	0
3136	0	0
3200	0	0
3264	0	0
3328	0	0
3392	0	0
3456	0	0
3520	0	0
3584	0	0
3648	0	0
3712	0	0
3776	0	0
3840	0	0
3904	0	0
3968	0	0
4032	0	0
4096	0	0
4224	0	0
4352	0	0
4480	0	0
4608	0	0
4736	0	0
4864	0	0
4992	0	0
5120	0	0
5248	0	0
5376	0	0
5504	0	0
5632	0	0
5760	0	0
5888	0	0
6016	0	0
6144	0	0
6272	0	0
6400	0	0
6528	0	0
6656	0	0
6784	0	0
6912	0	0
7040	0	0
7168	0	0
7296	0	0
7424	0	0
7552	0	0
7680	0	0
7808	0	0
7936	0	0
8064	0	0
8192	0	0
8448	0	0
8704	0	0
8960	0	0
9216	0	0
9472	0	0
9728	0	0
9984	0	0
10240	0	0
10496	0	0
10752	0	0
11008	0	0
11264	0	0
11520	0	0
11776	0	0
12032	0	0
12288	0	0
12544	0	0
12800	0	0
13056	0	0
13312	0	0
13568	0	0
13824	0	0
14080	0	0
14336	0	0
14592	0	0
14848	0	0
15104	0	0
15360	0	0
15616	0	0
15872	0	0
16128	0	0
16384	0	0
16896	0	0
17408	0	0
17920	0	0
18432	0	0
18944	0	0
19456	0	0
19968	0	0
20480	0	0
20992	0	0
21504	0	0
22016	0	0
22528	0	0
23040	0	0
23552	0	0
24064	0	0
24576	0	0
25088	0	0
25600	0	0
26112	0	0
26624	0	0
27136	0	0
27648	0	0
28160	0	0
28672	0	0
29184	0	0
29696	0	0
30208	0	0
30720	0	0
31232	0	0
31744	0	0
32256	0	0
32768	0	0
33792	0	0
34816	0	0
35840	0	0
36864	0	0
37888	0	0
38912	0	0
39936	0	0
40960	0	0
41984	0	0
43008	0	0
44032	0	0
45056	0	0
46080	0	0
47104	0	0
48128	0	0
49152	0	0
50176	0	0
51200	0	0
52224	0	0
53248	0	0
54272	0	0
55296	0	0
56320	0	0
57344	0	0
58368	0	0
59392	0	0
60416	0	0
61440	0	0
62464	0	0
63488	0	0
64512	0	0
65536	0	0
67584	0	0
69632	0	0
71680	0	0
73728	0	0
75776	0	0
77824	0	0
79872	0	0
81920	0	0
83968	0	0
86016	0	0
88064	0	0
90112	0	0
92160	0	0
94208	0	0
96256	0	0
98304	0	0
100352	0	0
102400	0	0
104448	0	0
106496	0	0
108544	0	0
110592	0	0
112640	0	0
114688	0	0
116736	0	0
118784	0	0
120832	0	0
122880	0	0
124928	0	0
126976	0	0
129024	0	0
131072	0	0
135168	0	0
139264	0	0
143360	0	0
147456	0	0
151552	0	0
155648	0	0
159744	0	0
163840	0	0
167936	0	0
172032	0	0
176128	0	0
180224	0	0
184320	0	0
188416	0	0
192512	0	0
196608	0	0
200704	0	0
204800	0	0
208896	0	0
212992	0	0
217088	0	0
221184	0	0
225280	0	0
229376	0	0
233472	0	0
237568	0	0
241664	0	0
245760	0	0
249856	0	0
253952	0	0
258048	0	0
262144	0	0
270336	0	0
278528	0	0
286720	0	0
294912	0	0
303104	0	0
311296	0	0
319488	0	0
327680	0	0
335872	0	0
344064	0	0
352256	0	0
360448	0	0
368640	0	0
376832	0	0
385024	0	0
393216	0	0
401408	0	0
409600	0	0
417792	0	0
425984	0	0
434176	0	0
442368	0	0
450560	0	0
458752	0	0
466944	0	0
475136	0	0
483328	0	0
491520	0	0
499712	0	0
507904	0	0
516096	0	0
524288	0	0
540672	0	0
557056	0	0
573440	0	0
589824	0	0
606208	0	0
622592	0	0
638976	0	0
655360	0	0
671744	0	0
688128	0	0
704512	0	0
720896	0	0
737280	0	0
753664	0	0
770048	0	0
786432	0	0
802816	0	0
819200	0	0
835584	0	0
851968	0	0
868352	0	0
884736	0	0
901120	0	0
917504	0	0
933888	0	0
950272	0	0
966656	0	0
983040	0	0
999424	0	0
1015808	0	0
1032192	0	0
1048576	0	0
1081344	0	0
1114112	0	0
1146880	0	0
1179648	0	0
1212416	0	0
1245184	0	0
1277952	0	0
1310720	0	0
1343488	0	0
1376256	0	0
1409024	0	0
1441792	0	0
1474560	0	0
1507328	0	0
1540096	0	0
1572864	0	0
1605632	0	0
1638400	0	0
1671168	0	0
1703936	0	0
1736704	0	0
1769472	0	0
1802240	0	0
1835008	0	0
1867776	0	0
1900544	0	0
1933312	0	0
1966080	0	0
1998848	0	0
2031616	0	0
2064384	0	0
2097152	0	0
2162688	0	0
2228224	0	0
2293760	0	0
2359296	0	0
2424832	0	0
2490368	0	0
2555904	0	0
2621440	0	0
2686976	0	0
2752512	0	0
2818048	0	0
2883584	0	0
2949120	0	0
3014656	0	0
3080192	0	0
3145728	0	0
3211264	0	0
3276800	0	0
3342336	0	0
3407872	0	0
3473408	0	0
3538944	0	0
3604480	0	0
3670016	0	0
3735552	0	0
3801088	0	0
3866624	0	0
3932160	0	0
3997696	0	0
4063232	0	0
4128768	0	0
4194304	0	0
4325376	0	0
4456448	0	0
4587520	0	0
4718592	0	0
4849664	0	0
4980736	0	0
5111808	0	0
5242880	0	0
5373952	0	0
5505024	0	0
5636096	0	0
5767168	0	0
5898240	0	0
6029312	0	0
6160384	0	0
6291456	0	0
6422528	0	0
6553600	0	0
6684672	0	0
6815744	0	0
6946816	0	0
7077888	0	0
7208960	0	0
7340032	0	0
7471104	0	0
7602176	0	0
7733248	0	0
7864320	0	0
7995392	0	0
8126464	0	0
8257536	0	0
8388608	0	0
8650752	0	0
8912896	0	0
9175040	0	0
9437184	0	0
9699328	0	0
9961472	0	0
10223616	0	0
10485760	0	0
10747904	0	0
11010048	0	0
11272192	0	0
11534336	0	0
11796480	0	0
12058624	0	0
12320768	0	0
12582912	0	0
12845056	0	0
13107200	0	0
13369344	0	0
13631488	0	0
13893632	0	0
14155776	0	0
14417920	0	0
14680064	0	0
14942208	0	0
15204352	0	0
15466496	0	0
15728640	0	0
15990784	0	0
16252928	0	0
16515072	0	0
16777216	0	0
17301504	0	0
17825792	0	0
18350080	0	0
18874368	0	0
19398656	0	0
19922944	0	0
20447232	0	0
20971520	0	0
21495808	0	0
22020096	0	0
22544384	0	0
23068672	0	0
23592960	0	0
24117248	0	0
24641536	0	0
25165824	0	0
25690112	0	0
26214400	0	0
26738688	0	0
27262976	0	0
27787264	0	0
28311552	0	0
28835840	0	0
29360128	0	0
29884416	0	0
30408704	0	0
30932992	0	0
31457280	0	0
31981568	0	0
32505856	0	0
33030144	0	0
33554432	0	0
34603008	0	0
35651584	0	0
36700160	0	0
37748736	0	0
38797312	0	0
39845888	0	0
40894464	0	0
41943040	0	0
42991616	0	0
44040192	0	0
45088768	0	0
46137344	0	0
47185920	0	0
48234496	0	0
49283072	0	0
50331648	0	0
51380224	0	0
52428800	0	0
53477376	0	0
54525952	0	0
55574528	0	0
56623104	0	0
57671680	0	0
58720256	0	0
59768832	0	0
60817408	0	0
61865984	0	0
62914560	0	0
63963136	0	0
65011712	0	0
66060288	0	0
67108864	0	0
69206016	0	0
71303168	0	0
73400320	0	0
75497472	0	0
77594624	0	0
79691776	0	0
81788928	0	0
83886080	0	0
85983232	0	0
88080384	0	0
90177536	0	0
92274688	0	0
94371840	0	0
96468992	0	0
98566144	0	0
100663296	0	0
102760448	0	0
104857600	0	0
106954752	0	0
109051904	0	0
111149056	0	0
113246208	0	0
115343360	0	0
117440512	0	0
119537664	0	0
121634816	0	0
123731968	0	0
125829120	0	0
127926272	0	0
130023424	0	0
132120576	0	0
134217728	0	0
138412032	0	0
142606336	0	0
146800640	0	0
150994944	0	0
155189248	0	0
159383552	0	0
163577856	0	0
167772160	0	0
171966464	0	0
176160768	0	0
180355072	0	0
184549376	0	0
188743680	0	0
192937984	0	0
197132288	0	0
201326592	0	0
205520896	0	0
209715200	0	0
213909504	0	0
218103808	0	0
222298112	0	0
226492416	0	0
230686720	0	0
234881024	0	0
239075328	0	0
243269632	0	0
247463936	0	0
251658240	0	0
255852544	0	0
260046848	0	0
264241152	0	0
268435456	0	0
276824064	0	0
285212672	0	0
293601280	0	0
301989888	0	0
310378496	0	0
318767104	0	0
327155712	0	0
335544320	0	0
343932928	0	0
352321536	0	0
360710144	0	0
369098752	0	0
377487360	0	0
385875968	0	0
394264576	0	0
402653184	0	0
411041792	0	0
419430400	0	0
427819008	0	0
436207616	0	0
444596224	0	0
452984832	0	0
461373440	0	0
469762048	0	0
478150656	0	0
486539264	0	0
494927872	0	0
503316480	0	0
511705088	0	0
520093696	0	0
528482304	0	0
536870912	0	0
553648128	0	0
570425344	0	0
587202560	0	0
603979776	0	0
620756992	0	0
637534208	0	0
654311424	0	0
671088640	0	0
687865856	0	0
704643072	0	0
721420288	0	0
738197504	0	0
754974720	0	0
771751936	0	0
788529152	0	0
805306368	0	0
822083584	0	0
838860800	0	0
855638016	0	0
872415232	0	0
889192448	0	0
905969664	0	0
922746880	0	0
939524096	0	0
956301312	0	0
973078528	0	0
989855744	0	0
1006632960	0	0
1023410176	0	0
1040187392	0	0
1056964608	0	0
1073741824	0	0
1107296256	0	0
1140850688	0	0
1174405120	0	0
1207959552	0	0
1241513984	0	0
1275068416	0	0
1308622848	0	0
1342177280	0	0
1375731712	0	0
1409286144	0	0
1442840576	0	0
1476395008	0	0
1509949440	0	0
1543503872	0	0
1577058304	0	0
1610612736	0	0
1644167168	0	0
1677721600	0	0
1711276032	0	0
1744830464	0	0
1778384896	0	0
1811939328	0	0
1845493760	0	0
1879048192	0	0
1912602624	0	0
1946157056	0	0
1979711488	0	0
2013265920	0	0
2046820352	0	0
2080374784	0	0
2113929216	0	0
2147483648	0	0
2214592512	0	0
2281701376	0	0
2348810240	0	0
2415919104	0	0
2483027968	0	0
2550136832	0	0
2617245696	0	0
2684354560	0	0
2751463424	0	0
2818572288	0	0
2885681152	0	0
2952790016	0	0
3019898880	0	0
3087007744	0	0
3154116608	0	0
3221225472	0	0
3288334336	0	0
3355443200	0	0
3422552064	0	0
3489660928	0	0
3556769792	0	0
3623878656	0	0
3690987520	0	0
3758096384	0	0
3825205248	0	0
3892314112	0	0
3959422976	0	0
4026531840	0	0
4093640704	0	0
4160749568	0	0
4227858432	0	0
~~~~~~~~~~Reuse Distance Profiler output end~~~~~~~~~~

Sampler size:0

DRAM Statistics
 CHANNEL 0
 RQ ROW_BUFFER_HIT:    1203552  ROW_BUFFER_MISS:   16712914
 DBUS AVG_CONGESTED_CYCLE:    3.92483
 WQ ROW_BUFFER_HIT:     199386  ROW_BUFFER_MISS:    1268893  FULL:          0


CPU 0 Branch Prediction Accuracy: 93.1688% MPKI: 6.13893 Average ROB Occupancy at Mispredict: 211.029
Branch type MPKI
BRANCH_DIRECT_JUMP: 5.13333e-05
BRANCH_INDIRECT: 7.2e-05
BRANCH_CONDITIONAL: 6.13861
BRANCH_DIRECT_CALL: 7.6e-05
BRANCH_INDIRECT_CALL: 5.13333e-05
BRANCH_RETURN: 7e-05

