
*** ChampSim Multicore Out-of-Order Simulator ***

Warmup Instructions: 50000000
Simulation Instructions: 1500000000
Number of CPUs: 1
Off-chip DRAM Size: 4 GiB Channels: 1 Width: 64-bit Data Rate: 3200 MT/s

VirtualMemory physical capacity: 8588881920 num_ppages: 2096895
VirtualMemory page size: 4096 log2_page_size: 12

CPU 0 runs /s/traces/champsim_traces/482.sphinx3-1297B.champsimtrace.xz
CPU 0 Bimodal branch predictor
Basic BTB sets: 1024 ways: 8 indirect buffer size: 4096 RAS size: 64
Initializing LRU.
Initializing LRU.
Initializing LRU.
Initializing LRU.
Initializing rdLRU.
Initializing LRU.
Initializing LRU.
Heartbeat CPU 0 instructions: 2000001 cycles: 531108 heartbeat IPC: 3.76571 cumulative IPC: 3.76571 (Simulation time: 0 hr 1 min 1 sec) 
Heartbeat CPU 0 instructions: 4000002 cycles: 1031676 heartbeat IPC: 3.99546 cumulative IPC: 3.87719 (Simulation time: 0 hr 2 min 4 sec) 
Heartbeat CPU 0 instructions: 6000003 cycles: 1582430 heartbeat IPC: 3.63139 cumulative IPC: 3.79164 (Simulation time: 0 hr 3 min 15 sec) 
Heartbeat CPU 0 instructions: 8000003 cycles: 2103938 heartbeat IPC: 3.83503 cumulative IPC: 3.80239 (Simulation time: 0 hr 4 min 21 sec) 
Heartbeat CPU 0 instructions: 10000002 cycles: 2635115 heartbeat IPC: 3.76522 cumulative IPC: 3.7949 (Simulation time: 0 hr 5 min 19 sec) 
Heartbeat CPU 0 instructions: 12000004 cycles: 3136057 heartbeat IPC: 3.99248 cumulative IPC: 3.82646 (Simulation time: 0 hr 6 min 20 sec) 
Heartbeat CPU 0 instructions: 14000002 cycles: 3666039 heartbeat IPC: 3.77371 cumulative IPC: 3.81884 (Simulation time: 0 hr 7 min 25 sec) 
Heartbeat CPU 0 instructions: 16000003 cycles: 4175356 heartbeat IPC: 3.92683 cumulative IPC: 3.83201 (Simulation time: 0 hr 8 min 34 sec) 
Heartbeat CPU 0 instructions: 18000000 cycles: 4696959 heartbeat IPC: 3.83433 cumulative IPC: 3.83227 (Simulation time: 0 hr 9 min 41 sec) 
Heartbeat CPU 0 instructions: 20000002 cycles: 5227161 heartbeat IPC: 3.77215 cumulative IPC: 3.82617 (Simulation time: 0 hr 10 min 50 sec) 
Heartbeat CPU 0 instructions: 22000003 cycles: 5729085 heartbeat IPC: 3.98467 cumulative IPC: 3.84006 (Simulation time: 0 hr 11 min 45 sec) 
Heartbeat CPU 0 instructions: 24000003 cycles: 6267307 heartbeat IPC: 3.71594 cumulative IPC: 3.8294 (Simulation time: 0 hr 12 min 54 sec) 
Heartbeat CPU 0 instructions: 26000002 cycles: 6768792 heartbeat IPC: 3.98815 cumulative IPC: 3.84116 (Simulation time: 0 hr 13 min 59 sec) 
Heartbeat CPU 0 instructions: 28000002 cycles: 7309128 heartbeat IPC: 3.7014 cumulative IPC: 3.83083 (Simulation time: 0 hr 15 min 12 sec) 
Heartbeat CPU 0 instructions: 30000003 cycles: 7810556 heartbeat IPC: 3.98861 cumulative IPC: 3.84096 (Simulation time: 0 hr 16 min 14 sec) 
Heartbeat CPU 0 instructions: 32000001 cycles: 8351560 heartbeat IPC: 3.69683 cumulative IPC: 3.83162 (Simulation time: 0 hr 17 min 27 sec) 
Heartbeat CPU 0 instructions: 34000001 cycles: 8852807 heartbeat IPC: 3.99005 cumulative IPC: 3.84059 (Simulation time: 0 hr 18 min 30 sec) 
Heartbeat CPU 0 instructions: 36000003 cycles: 9396338 heartbeat IPC: 3.67965 cumulative IPC: 3.83128 (Simulation time: 0 hr 19 min 47 sec) 
Heartbeat CPU 0 instructions: 38000003 cycles: 9897291 heartbeat IPC: 3.99239 cumulative IPC: 3.83943 (Simulation time: 0 hr 20 min 50 sec) 
Heartbeat CPU 0 instructions: 40000001 cycles: 10439788 heartbeat IPC: 3.68665 cumulative IPC: 3.8315 (Simulation time: 0 hr 22 min 7 sec) 
Heartbeat CPU 0 instructions: 42000002 cycles: 10940562 heartbeat IPC: 3.99382 cumulative IPC: 3.83893 (Simulation time: 0 hr 23 min 9 sec) 
Heartbeat CPU 0 instructions: 44000001 cycles: 11482086 heartbeat IPC: 3.69328 cumulative IPC: 3.83206 (Simulation time: 0 hr 24 min 14 sec) 
Heartbeat CPU 0 instructions: 46000000 cycles: 11982748 heartbeat IPC: 3.99471 cumulative IPC: 3.83885 (Simulation time: 0 hr 25 min 4 sec) 
Heartbeat CPU 0 instructions: 48000002 cycles: 12520562 heartbeat IPC: 3.71876 cumulative IPC: 3.83369 (Simulation time: 0 hr 26 min 6 sec) 
Heartbeat CPU 0 instructions: 50000001 cycles: 13025062 heartbeat IPC: 3.96432 cumulative IPC: 3.83875 (Simulation time: 0 hr 27 min 2 sec) 

Warmup complete CPU 0 instructions: 50000001 cycles: 13025062 (Simulation time: 0 hr 27 min 2 sec) 

Heartbeat CPU 0 instructions: 52000000 cycles: 14364936 heartbeat IPC: 1.49268 cumulative IPC: 1.49268 (Simulation time: 0 hr 28 min 24 sec) 

Region of Interest Statistics
cpu0_DTLB TOTAL     ACCESS:     361818  HIT:     355310  MISS:       6508
cpu0_DTLB LOAD      ACCESS:     319659  HIT:     313577  MISS:       6082
cpu0_DTLB RFO       ACCESS:      42159  HIT:      41733  MISS:        426
cpu0_DTLB PREFETCH  ACCESS:          0  HIT:          0  MISS:          0
cpu0_DTLB WRITEBACK ACCESS:          0  HIT:          0  MISS:          0
cpu0_ITLB TOTAL     ACCESS:     176502  HIT:     176502  MISS:          0
cpu0_ITLB LOAD      ACCESS:     176502  HIT:     176502  MISS:          0
cpu0_ITLB RFO       ACCESS:          0  HIT:          0  MISS:          0
cpu0_ITLB PREFETCH  ACCESS:          0  HIT:          0  MISS:          0
cpu0_ITLB WRITEBACK ACCESS:          0  HIT:          0  MISS:          0
cpu0_L1I TOTAL     ACCESS:       3494  HIT:       3494  MISS:          0
cpu0_L1I LOAD      ACCESS:       3494  HIT:       3494  MISS:          0
cpu0_L1I RFO       ACCESS:          0  HIT:          0  MISS:          0
cpu0_L1I PREFETCH  ACCESS:          0  HIT:          0  MISS:          0
cpu0_L1I WRITEBACK ACCESS:          0  HIT:          0  MISS:          0
cpu0_STLB TOTAL     ACCESS:       6508  HIT:       4456  MISS:       2052
cpu0_STLB LOAD      ACCESS:       6082  HIT:       4080  MISS:       2002
cpu0_STLB RFO       ACCESS:        426  HIT:        376  MISS:         50
cpu0_STLB PREFETCH  ACCESS:          0  HIT:          0  MISS:          0
cpu0_STLB WRITEBACK ACCESS:          0  HIT:          0  MISS:          0
cpu0_L1D TOTAL     ACCESS:     306115  HIT:     263238  MISS:      42877
cpu0_L1D LOAD      ACCESS:     237266  HIT:     197898  MISS:      39368
cpu0_L1D RFO       ACCESS:      66891  HIT:      63399  MISS:       3492
cpu0_L1D PREFETCH  ACCESS:          0  HIT:          0  MISS:          0
cpu0_L1D WRITEBACK ACCESS:          0  HIT:          0  MISS:          0
cpu0_L2C TOTAL     ACCESS:      48864  HIT:      17802  MISS:      31062
cpu0_L2C LOAD      ACCESS:      39368  HIT:      11484  MISS:      27884
cpu0_L2C RFO       ACCESS:       3492  HIT:        336  MISS:       3156
cpu0_L2C PREFETCH  ACCESS:          0  HIT:          0  MISS:          0
cpu0_L2C WRITEBACK ACCESS:       5987  HIT:       5973  MISS:         14
LLC TOTAL     ACCESS:      33549  HIT:      31726  MISS:       1823
LLC LOAD      ACCESS:      27884  HIT:      26127  MISS:       1757
LLC RFO       ACCESS:       3156  HIT:       3090  MISS:         66
LLC PREFETCH  ACCESS:          0  HIT:          0  MISS:          0
LLC WRITEBACK ACCESS:       2501  HIT:       2501  MISS:          0
Heartbeat CPU 0 instructions: 54000000 cycles: 15181093 heartbeat IPC: 2.45051 cumulative IPC: 1.85526 (Simulation time: 0 hr 29 min 36 sec) 

Region of Interest Statistics
cpu0_DTLB TOTAL     ACCESS:     683312  HIT:     676273  MISS:       7039
cpu0_DTLB LOAD      ACCESS:     632162  HIT:     625571  MISS:       6591
cpu0_DTLB RFO       ACCESS:      51150  HIT:      50702  MISS:        448
cpu0_DTLB PREFETCH  ACCESS:          0  HIT:          0  MISS:          0
cpu0_DTLB WRITEBACK ACCESS:          0  HIT:          0  MISS:          0
cpu0_ITLB TOTAL     ACCESS:     371778  HIT:     371778  MISS:          0
cpu0_ITLB LOAD      ACCESS:     371778  HIT:     371778  MISS:          0
cpu0_ITLB RFO       ACCESS:          0  HIT:          0  MISS:          0
cpu0_ITLB PREFETCH  ACCESS:          0  HIT:          0  MISS:          0
cpu0_ITLB WRITEBACK ACCESS:          0  HIT:          0  MISS:          0
cpu0_L1I TOTAL     ACCESS:       3520  HIT:       3520  MISS:          0
cpu0_L1I LOAD      ACCESS:       3520  HIT:       3520  MISS:          0
cpu0_L1I RFO       ACCESS:          0  HIT:          0  MISS:          0
cpu0_L1I PREFETCH  ACCESS:          0  HIT:          0  MISS:          0
cpu0_L1I WRITEBACK ACCESS:          0  HIT:          0  MISS:          0
cpu0_STLB TOTAL     ACCESS:       7039  HIT:       4625  MISS:       2414
cpu0_STLB LOAD      ACCESS:       6591  HIT:       4229  MISS:       2362
cpu0_STLB RFO       ACCESS:        448  HIT:        396  MISS:         52
cpu0_STLB PREFETCH  ACCESS:          0  HIT:          0  MISS:          0
cpu0_STLB WRITEBACK ACCESS:          0  HIT:          0  MISS:          0
cpu0_L1D TOTAL     ACCESS:     529773  HIT:     461004  MISS:      68769
cpu0_L1D LOAD      ACCESS:     447899  HIT:     383595  MISS:      64304
cpu0_L1D RFO       ACCESS:      79580  HIT:      75133  MISS:       4447
cpu0_L1D PREFETCH  ACCESS:          0  HIT:          0  MISS:          0
cpu0_L1D WRITEBACK ACCESS:          0  HIT:          0  MISS:          0
cpu0_L2C TOTAL     ACCESS:      76022  HIT:      21032  MISS:      54990
cpu0_L2C LOAD      ACCESS:      64304  HIT:      13225  MISS:      51079
cpu0_L2C RFO       ACCESS:       4447  HIT:        558  MISS:       3889
cpu0_L2C PREFETCH  ACCESS:          0  HIT:          0  MISS:          0
cpu0_L2C WRITEBACK ACCESS:       7253  HIT:       7239  MISS:         14
LLC TOTAL     ACCESS:      61082  HIT:      58632  MISS:       2450
LLC LOAD      ACCESS:      51079  HIT:      48700  MISS:       2379
LLC RFO       ACCESS:       3889  HIT:       3818  MISS:         71
LLC PREFETCH  ACCESS:          0  HIT:          0  MISS:          0
LLC WRITEBACK ACCESS:       6106  HIT:       6106  MISS:          0
Heartbeat CPU 0 instructions: 56000004 cycles: 16519951 heartbeat IPC: 1.49381 cumulative IPC: 1.71679 (Simulation time: 0 hr 31 min 4 sec) 

Region of Interest Statistics
cpu0_DTLB TOTAL     ACCESS:    1067664  HIT:    1054883  MISS:      12781
cpu0_DTLB LOAD      ACCESS:     945554  HIT:     933562  MISS:      11992
cpu0_DTLB RFO       ACCESS:     122110  HIT:     121321  MISS:        789
cpu0_DTLB PREFETCH  ACCESS:          0  HIT:          0  MISS:          0
cpu0_DTLB WRITEBACK ACCESS:          0  HIT:          0  MISS:          0
cpu0_ITLB TOTAL     ACCESS:     542943  HIT:     542943  MISS:          0
cpu0_ITLB LOAD      ACCESS:     542943  HIT:     542943  MISS:          0
cpu0_ITLB RFO       ACCESS:          0  HIT:          0  MISS:          0
cpu0_ITLB PREFETCH  ACCESS:          0  HIT:          0  MISS:          0
cpu0_ITLB WRITEBACK ACCESS:          0  HIT:          0  MISS:          0
cpu0_L1I TOTAL     ACCESS:      17945  HIT:      17925  MISS:         20
cpu0_L1I LOAD      ACCESS:      17945  HIT:      17925  MISS:         20
cpu0_L1I RFO       ACCESS:          0  HIT:          0  MISS:          0
cpu0_L1I PREFETCH  ACCESS:          0  HIT:          0  MISS:          0
cpu0_L1I WRITEBACK ACCESS:          0  HIT:          0  MISS:          0
cpu0_STLB TOTAL     ACCESS:      12781  HIT:       8408  MISS:       4373
cpu0_STLB LOAD      ACCESS:      11992  HIT:       7698  MISS:       4294
cpu0_STLB RFO       ACCESS:        789  HIT:        710  MISS:         79
cpu0_STLB PREFETCH  ACCESS:          0  HIT:          0  MISS:          0
cpu0_STLB WRITEBACK ACCESS:          0  HIT:          0  MISS:          0
cpu0_L1D TOTAL     ACCESS:     920058  HIT:     817316  MISS:     102742
cpu0_L1D LOAD      ACCESS:     699249  HIT:     602788  MISS:      96461
cpu0_L1D RFO       ACCESS:     216646  HIT:     210398  MISS:       6248
cpu0_L1D PREFETCH  ACCESS:          0  HIT:          0  MISS:          0
cpu0_L1D WRITEBACK ACCESS:          0  HIT:          0  MISS:          0
cpu0_L2C TOTAL     ACCESS:     114201  HIT:      36282  MISS:      77919
cpu0_L2C LOAD      ACCESS:      96480  HIT:      23964  MISS:      72516
cpu0_L2C RFO       ACCESS:       6248  HIT:        887  MISS:       5361
cpu0_L2C PREFETCH  ACCESS:          0  HIT:          0  MISS:          0
cpu0_L2C WRITEBACK ACCESS:      11440  HIT:      11415  MISS:         25
LLC TOTAL     ACCESS:      84639  HIT:      80742  MISS:       3897
LLC LOAD      ACCESS:      72516  HIT:      68759  MISS:       3757
LLC RFO       ACCESS:       5361  HIT:       5221  MISS:        140
LLC PREFETCH  ACCESS:          0  HIT:          0  MISS:          0
LLC WRITEBACK ACCESS:       6745  HIT:       6745  MISS:          0
Heartbeat CPU 0 instructions: 58000004 cycles: 17409587 heartbeat IPC: 2.24811 cumulative IPC: 1.8246 (Simulation time: 0 hr 32 min 21 sec) 

Region of Interest Statistics
cpu0_DTLB TOTAL     ACCESS:    1404508  HIT:    1390765  MISS:      13743
cpu0_DTLB LOAD      ACCESS:    1245142  HIT:    1232301  MISS:      12841
cpu0_DTLB RFO       ACCESS:     159366  HIT:     158464  MISS:        902
cpu0_DTLB PREFETCH  ACCESS:          0  HIT:          0  MISS:          0
cpu0_DTLB WRITEBACK ACCESS:          0  HIT:          0  MISS:          0
cpu0_ITLB TOTAL     ACCESS:     716794  HIT:     716794  MISS:          0
cpu0_ITLB LOAD      ACCESS:     716794  HIT:     716794  MISS:          0
cpu0_ITLB RFO       ACCESS:          0  HIT:          0  MISS:          0
cpu0_ITLB PREFETCH  ACCESS:          0  HIT:          0  MISS:          0
cpu0_ITLB WRITEBACK ACCESS:          0  HIT:          0  MISS:          0
cpu0_L1I TOTAL     ACCESS:      27525  HIT:      27486  MISS:         39
cpu0_L1I LOAD      ACCESS:      27525  HIT:      27486  MISS:         39
cpu0_L1I RFO       ACCESS:          0  HIT:          0  MISS:          0
cpu0_L1I PREFETCH  ACCESS:          0  HIT:          0  MISS:          0
cpu0_L1I WRITEBACK ACCESS:          0  HIT:          0  MISS:          0
cpu0_STLB TOTAL     ACCESS:      13743  HIT:       9068  MISS:       4675
cpu0_STLB LOAD      ACCESS:      12841  HIT:       8278  MISS:       4563
cpu0_STLB RFO       ACCESS:        902  HIT:        790  MISS:        112
cpu0_STLB PREFETCH  ACCESS:          0  HIT:          0  MISS:          0
cpu0_STLB WRITEBACK ACCESS:          0  HIT:          0  MISS:          0
cpu0_L1D TOTAL     ACCESS:    1204291  HIT:    1077546  MISS:     126745
cpu0_L1D LOAD      ACCESS:     915881  HIT:     798832  MISS:     117049
cpu0_L1D RFO       ACCESS:     283961  HIT:     274309  MISS:       9652
cpu0_L1D PREFETCH  ACCESS:          0  HIT:          0  MISS:          0
cpu0_L1D WRITEBACK ACCESS:          0  HIT:          0  MISS:          0
cpu0_L2C TOTAL     ACCESS:     142003  HIT:      43444  MISS:      98559
cpu0_L2C LOAD      ACCESS:     117087  HIT:      26730  MISS:      90357
cpu0_L2C RFO       ACCESS:       9652  HIT:       1499  MISS:       8153
cpu0_L2C PREFETCH  ACCESS:          0  HIT:          0  MISS:          0
cpu0_L2C WRITEBACK ACCESS:      15220  HIT:      15190  MISS:         30
LLC TOTAL     ACCESS:     110693  HIT:     106186  MISS:       4507
LLC LOAD      ACCESS:      90358  HIT:      86041  MISS:       4317
LLC RFO       ACCESS:       8153  HIT:       7963  MISS:        190
LLC PREFETCH  ACCESS:          0  HIT:          0  MISS:          0
LLC WRITEBACK ACCESS:      12163  HIT:      12163  MISS:          0
Heartbeat CPU 0 instructions: 60000000 cycles: 18633716 heartbeat IPC: 1.63381 cumulative IPC: 1.78296 (Simulation time: 0 hr 33 min 44 sec) 

Region of Interest Statistics
cpu0_DTLB TOTAL     ACCESS:    1742279  HIT:    1724629  MISS:      17650
cpu0_DTLB LOAD      ACCESS:    1557166  HIT:    1540567  MISS:      16599
cpu0_DTLB RFO       ACCESS:     185113  HIT:     184062  MISS:       1051
cpu0_DTLB PREFETCH  ACCESS:          0  HIT:          0  MISS:          0
cpu0_DTLB WRITEBACK ACCESS:          0  HIT:          0  MISS:          0
cpu0_ITLB TOTAL     ACCESS:     902247  HIT:     902247  MISS:          0
cpu0_ITLB LOAD      ACCESS:     902247  HIT:     902247  MISS:          0
cpu0_ITLB RFO       ACCESS:          0  HIT:          0  MISS:          0
cpu0_ITLB PREFETCH  ACCESS:          0  HIT:          0  MISS:          0
cpu0_ITLB WRITEBACK ACCESS:          0  HIT:          0  MISS:          0
cpu0_L1I TOTAL     ACCESS:      27533  HIT:      27492  MISS:         41
cpu0_L1I LOAD      ACCESS:      27533  HIT:      27492  MISS:         41
cpu0_L1I RFO       ACCESS:          0  HIT:          0  MISS:          0
cpu0_L1I PREFETCH  ACCESS:          0  HIT:          0  MISS:          0
cpu0_L1I WRITEBACK ACCESS:          0  HIT:          0  MISS:          0
cpu0_STLB TOTAL     ACCESS:      17650  HIT:      11457  MISS:       6193
cpu0_STLB LOAD      ACCESS:      16599  HIT:      10526  MISS:       6073
cpu0_STLB RFO       ACCESS:       1051  HIT:        931  MISS:        120
cpu0_STLB PREFETCH  ACCESS:          0  HIT:          0  MISS:          0
cpu0_STLB WRITEBACK ACCESS:          0  HIT:          0  MISS:          0
cpu0_L1D TOTAL     ACCESS:    1476826  HIT:    1314411  MISS:     162415
cpu0_L1D LOAD      ACCESS:    1141919  HIT:     990111  MISS:     151808
cpu0_L1D RFO       ACCESS:     329008  HIT:     318448  MISS:      10560
cpu0_L1D PREFETCH  ACCESS:          0  HIT:          0  MISS:          0
cpu0_L1D WRITEBACK ACCESS:          0  HIT:          0  MISS:          0
cpu0_L2C TOTAL     ACCESS:     178610  HIT:      51321  MISS:     127289
cpu0_L2C LOAD      ACCESS:     151848  HIT:      33665  MISS:     118183
cpu0_L2C RFO       ACCESS:      10560  HIT:       1508  MISS:       9052
cpu0_L2C PREFETCH  ACCESS:          0  HIT:          0  MISS:          0
cpu0_L2C WRITEBACK ACCESS:      16155  HIT:      16123  MISS:         32
LLC TOTAL     ACCESS:     140397  HIT:     133460  MISS:       6937
LLC LOAD      ACCESS:     118183  HIT:     111440  MISS:       6743
LLC RFO       ACCESS:       9052  HIT:       8858  MISS:        194
LLC PREFETCH  ACCESS:          0  HIT:          0  MISS:          0
LLC WRITEBACK ACCESS:      13140  HIT:      13140  MISS:          0
Heartbeat CPU 0 instructions: 62000002 cycles: 19670143 heartbeat IPC: 1.92971 cumulative IPC: 1.80585 (Simulation time: 0 hr 35 min 0 sec) 

Region of Interest Statistics
cpu0_DTLB TOTAL     ACCESS:    2088762  HIT:    2068034  MISS:      20728
cpu0_DTLB LOAD      ACCESS:    1876849  HIT:    1857473  MISS:      19376
cpu0_DTLB RFO       ACCESS:     211913  HIT:     210561  MISS:       1352
cpu0_DTLB PREFETCH  ACCESS:          0  HIT:          0  MISS:          0
cpu0_DTLB WRITEBACK ACCESS:          0  HIT:          0  MISS:          0
cpu0_ITLB TOTAL     ACCESS:    1089275  HIT:    1089275  MISS:          0
cpu0_ITLB LOAD      ACCESS:    1089275  HIT:    1089275  MISS:          0
cpu0_ITLB RFO       ACCESS:          0  HIT:          0  MISS:          0
cpu0_ITLB PREFETCH  ACCESS:          0  HIT:          0  MISS:          0
cpu0_ITLB WRITEBACK ACCESS:          0  HIT:          0  MISS:          0
cpu0_L1I TOTAL     ACCESS:      31416  HIT:      31366  MISS:         50
cpu0_L1I LOAD      ACCESS:      31416  HIT:      31366  MISS:         50
cpu0_L1I RFO       ACCESS:          0  HIT:          0  MISS:          0
cpu0_L1I PREFETCH  ACCESS:          0  HIT:          0  MISS:          0
cpu0_L1I WRITEBACK ACCESS:          0  HIT:          0  MISS:          0
cpu0_STLB TOTAL     ACCESS:      20728  HIT:      13559  MISS:       7169
cpu0_STLB LOAD      ACCESS:      19376  HIT:      12381  MISS:       6995
cpu0_STLB RFO       ACCESS:       1352  HIT:       1178  MISS:        174
cpu0_STLB PREFETCH  ACCESS:          0  HIT:          0  MISS:          0
cpu0_STLB WRITEBACK ACCESS:          0  HIT:          0  MISS:          0
cpu0_L1D TOTAL     ACCESS:    1737408  HIT:    1541135  MISS:     196273
cpu0_L1D LOAD      ACCESS:    1364726  HIT:    1182694  MISS:     182032
cpu0_L1D RFO       ACCESS:     365852  HIT:     351675  MISS:      14177
cpu0_L1D PREFETCH  ACCESS:          0  HIT:          0  MISS:          0
cpu0_L1D WRITEBACK ACCESS:          0  HIT:          0  MISS:          0
cpu0_L2C TOTAL     ACCESS:     218841  HIT:      64914  MISS:     153927
cpu0_L2C LOAD      ACCESS:     182081  HIT:      40288  MISS:     141793
cpu0_L2C RFO       ACCESS:      14177  HIT:       2116  MISS:      12061
cpu0_L2C PREFETCH  ACCESS:          0  HIT:          0  MISS:          0
cpu0_L2C WRITEBACK ACCESS:      22519  HIT:      22476  MISS:         43
LLC TOTAL     ACCESS:     171824  HIT:     163945  MISS:       7879
LLC LOAD      ACCESS:     141793  HIT:     134169  MISS:       7624
LLC RFO       ACCESS:      12061  HIT:      11806  MISS:        255
LLC PREFETCH  ACCESS:          0  HIT:          0  MISS:          0
LLC WRITEBACK ACCESS:      17940  HIT:      17940  MISS:          0
Heartbeat CPU 0 instructions: 64000000 cycles: 20835895 heartbeat IPC: 1.71563 cumulative IPC: 1.79238 (Simulation time: 0 hr 36 min 21 sec) 

Region of Interest Statistics
cpu0_DTLB TOTAL     ACCESS:    2424366  HIT:    2399936  MISS:      24430
cpu0_DTLB LOAD      ACCESS:    2188435  HIT:    2165494  MISS:      22941
cpu0_DTLB RFO       ACCESS:     235931  HIT:     234442  MISS:       1489
cpu0_DTLB PREFETCH  ACCESS:          0  HIT:          0  MISS:          0
cpu0_DTLB WRITEBACK ACCESS:          0  HIT:          0  MISS:          0
cpu0_ITLB TOTAL     ACCESS:    1274412  HIT:    1274412  MISS:          0
cpu0_ITLB LOAD      ACCESS:    1274412  HIT:    1274412  MISS:          0
cpu0_ITLB RFO       ACCESS:          0  HIT:          0  MISS:          0
cpu0_ITLB PREFETCH  ACCESS:          0  HIT:          0  MISS:          0
cpu0_ITLB WRITEBACK ACCESS:          0  HIT:          0  MISS:          0
cpu0_L1I TOTAL     ACCESS:      31430  HIT:      31380  MISS:         50
cpu0_L1I LOAD      ACCESS:      31430  HIT:      31380  MISS:         50
cpu0_L1I RFO       ACCESS:          0  HIT:          0  MISS:          0
cpu0_L1I PREFETCH  ACCESS:          0  HIT:          0  MISS:          0
cpu0_L1I WRITEBACK ACCESS:          0  HIT:          0  MISS:          0
cpu0_STLB TOTAL     ACCESS:      24430  HIT:      15892  MISS:       8538
cpu0_STLB LOAD      ACCESS:      22941  HIT:      14584  MISS:       8357
cpu0_STLB RFO       ACCESS:       1489  HIT:       1308  MISS:        181
cpu0_STLB PREFETCH  ACCESS:          0  HIT:          0  MISS:          0
cpu0_STLB WRITEBACK ACCESS:          0  HIT:          0  MISS:          0
cpu0_L1D TOTAL     ACCESS:    2005079  HIT:    1774147  MISS:     230932
cpu0_L1D LOAD      ACCESS:    1589472  HIT:    1373668  MISS:     215804
cpu0_L1D RFO       ACCESS:     407468  HIT:     392407  MISS:      15061
cpu0_L1D PREFETCH  ACCESS:          0  HIT:          0  MISS:          0
cpu0_L1D WRITEBACK ACCESS:          0  HIT:          0  MISS:          0
cpu0_L2C TOTAL     ACCESS:     254412  HIT:      72023  MISS:     182389
cpu0_L2C LOAD      ACCESS:     215853  HIT:      46478  MISS:     169375
cpu0_L2C RFO       ACCESS:      15061  HIT:       2125  MISS:      12936
cpu0_L2C PREFETCH  ACCESS:          0  HIT:          0  MISS:          0
cpu0_L2C WRITEBACK ACCESS:      23431  HIT:      23386  MISS:         45
LLC TOTAL     ACCESS:     201474  HIT:     191567  MISS:       9907
LLC LOAD      ACCESS:     169375  HIT:     159727  MISS:       9648
LLC RFO       ACCESS:      12936  HIT:      12677  MISS:        259
LLC PREFETCH  ACCESS:          0  HIT:          0  MISS:          0
LLC WRITEBACK ACCESS:      19130  HIT:      19130  MISS:          0
Heartbeat CPU 0 instructions: 66000001 cycles: 21969744 heartbeat IPC: 1.7639 cumulative IPC: 1.78877 (Simulation time: 0 hr 37 min 40 sec) 

Region of Interest Statistics
cpu0_DTLB TOTAL     ACCESS:    2776004  HIT:    2747969  MISS:      28035
cpu0_DTLB LOAD      ACCESS:    2509506  HIT:    2483287  MISS:      26219
cpu0_DTLB RFO       ACCESS:     266498  HIT:     264682  MISS:       1816
cpu0_DTLB PREFETCH  ACCESS:          0  HIT:          0  MISS:          0
cpu0_DTLB WRITEBACK ACCESS:          0  HIT:          0  MISS:          0
cpu0_ITLB TOTAL     ACCESS:    1462836  HIT:    1462836  MISS:          0
cpu0_ITLB LOAD      ACCESS:    1462836  HIT:    1462836  MISS:          0
cpu0_ITLB RFO       ACCESS:          0  HIT:          0  MISS:          0
cpu0_ITLB PREFETCH  ACCESS:          0  HIT:          0  MISS:          0
cpu0_ITLB WRITEBACK ACCESS:          0  HIT:          0  MISS:          0
cpu0_L1I TOTAL     ACCESS:      34874  HIT:      34824  MISS:         50
cpu0_L1I LOAD      ACCESS:      34874  HIT:      34824  MISS:         50
cpu0_L1I RFO       ACCESS:          0  HIT:          0  MISS:          0
cpu0_L1I PREFETCH  ACCESS:          0  HIT:          0  MISS:          0
cpu0_L1I WRITEBACK ACCESS:          0  HIT:          0  MISS:          0
cpu0_STLB TOTAL     ACCESS:      28035  HIT:      18324  MISS:       9711
cpu0_STLB LOAD      ACCESS:      26219  HIT:      16732  MISS:       9487
cpu0_STLB RFO       ACCESS:       1816  HIT:       1592  MISS:        224
cpu0_STLB PREFETCH  ACCESS:          0  HIT:          0  MISS:          0
cpu0_STLB WRITEBACK ACCESS:          0  HIT:          0  MISS:          0
cpu0_L1D TOTAL     ACCESS:    2274869  HIT:    2007995  MISS:     266874
cpu0_L1D LOAD      ACCESS:    1814037  HIT:    1565989  MISS:     248048
cpu0_L1D RFO       ACCESS:     451570  HIT:     432829  MISS:      18741
cpu0_L1D PREFETCH  ACCESS:          0  HIT:          0  MISS:          0
cpu0_L1D WRITEBACK ACCESS:          0  HIT:          0  MISS:          0
cpu0_L2C TOTAL     ACCESS:     296993  HIT:      87161  MISS:     209832
cpu0_L2C LOAD      ACCESS:     248097  HIT:      54291  MISS:     193806
cpu0_L2C RFO       ACCESS:      18741  HIT:       2812  MISS:      15929
cpu0_L2C PREFETCH  ACCESS:          0  HIT:          0  MISS:          0
cpu0_L2C WRITEBACK ACCESS:      30070  HIT:      30013  MISS:         57
LLC TOTAL     ACCESS:     233580  HIT:     222157  MISS:      11423
LLC LOAD      ACCESS:     193806  HIT:     182691  MISS:      11115
LLC RFO       ACCESS:      15929  HIT:      15621  MISS:        308
LLC PREFETCH  ACCESS:          0  HIT:          0  MISS:          0
LLC WRITEBACK ACCESS:      23805  HIT:      23805  MISS:          0
Heartbeat CPU 0 instructions: 68000003 cycles: 23010998 heartbeat IPC: 1.92076 cumulative IPC: 1.80254 (Simulation time: 0 hr 38 min 59 sec) 

Region of Interest Statistics
cpu0_DTLB TOTAL     ACCESS:    3107056  HIT:    3075758  MISS:      31298
cpu0_DTLB LOAD      ACCESS:    2818423  HIT:    2789040  MISS:      29383
cpu0_DTLB RFO       ACCESS:     288633  HIT:     286718  MISS:       1915
cpu0_DTLB PREFETCH  ACCESS:          0  HIT:          0  MISS:          0
cpu0_DTLB WRITEBACK ACCESS:          0  HIT:          0  MISS:          0
cpu0_ITLB TOTAL     ACCESS:    1649765  HIT:    1649765  MISS:          0
cpu0_ITLB LOAD      ACCESS:    1649765  HIT:    1649765  MISS:          0
cpu0_ITLB RFO       ACCESS:          0  HIT:          0  MISS:          0
cpu0_ITLB PREFETCH  ACCESS:          0  HIT:          0  MISS:          0
cpu0_ITLB WRITEBACK ACCESS:          0  HIT:          0  MISS:          0
cpu0_L1I TOTAL     ACCESS:      34876  HIT:      34826  MISS:         50
cpu0_L1I LOAD      ACCESS:      34876  HIT:      34826  MISS:         50
cpu0_L1I RFO       ACCESS:          0  HIT:          0  MISS:          0
cpu0_L1I PREFETCH  ACCESS:          0  HIT:          0  MISS:          0
cpu0_L1I WRITEBACK ACCESS:          0  HIT:          0  MISS:          0
cpu0_STLB TOTAL     ACCESS:      31298  HIT:      20317  MISS:      10981
cpu0_STLB LOAD      ACCESS:      29383  HIT:      18631  MISS:      10752
cpu0_STLB RFO       ACCESS:       1915  HIT:       1686  MISS:        229
cpu0_STLB PREFETCH  ACCESS:          0  HIT:          0  MISS:          0
cpu0_STLB WRITEBACK ACCESS:          0  HIT:          0  MISS:          0
cpu0_L1D TOTAL     ACCESS:    2538020  HIT:    2237827  MISS:     300193
cpu0_L1D LOAD      ACCESS:    2038037  HIT:    1757585  MISS:     280452
cpu0_L1D RFO       ACCESS:     489508  HIT:     469854  MISS:      19654
cpu0_L1D PREFETCH  ACCESS:          0  HIT:          0  MISS:          0
cpu0_L1D WRITEBACK ACCESS:          0  HIT:          0  MISS:          0
cpu0_L2C TOTAL     ACCESS:     331250  HIT:      93275  MISS:     237975
cpu0_L2C LOAD      ACCESS:     280501  HIT:      59466  MISS:     221035
cpu0_L2C RFO       ACCESS:      19654  HIT:       2815  MISS:      16839
cpu0_L2C PREFETCH  ACCESS:          0  HIT:          0  MISS:          0
cpu0_L2C WRITEBACK ACCESS:      31008  HIT:      30949  MISS:         59
LLC TOTAL     ACCESS:     263358  HIT:     250646  MISS:      12712
LLC LOAD      ACCESS:     221035  HIT:     208636  MISS:      12399
LLC RFO       ACCESS:      16839  HIT:      16526  MISS:        313
LLC PREFETCH  ACCESS:          0  HIT:          0  MISS:          0
LLC WRITEBACK ACCESS:      25442  HIT:      25442  MISS:          0
Heartbeat CPU 0 instructions: 70000001 cycles: 24163885 heartbeat IPC: 1.73477 cumulative IPC: 1.79552 (Simulation time: 0 hr 40 min 21 sec) 

Region of Interest Statistics
cpu0_DTLB TOTAL     ACCESS:    3460942  HIT:    3425741  MISS:      35201
cpu0_DTLB LOAD      ACCESS:    3139019  HIT:    3106052  MISS:      32967
cpu0_DTLB RFO       ACCESS:     321923  HIT:     319689  MISS:       2234
cpu0_DTLB PREFETCH  ACCESS:          0  HIT:          0  MISS:          0
cpu0_DTLB WRITEBACK ACCESS:          0  HIT:          0  MISS:          0
cpu0_ITLB TOTAL     ACCESS:    1834428  HIT:    1834428  MISS:          0
cpu0_ITLB LOAD      ACCESS:    1834428  HIT:    1834428  MISS:          0
cpu0_ITLB RFO       ACCESS:          0  HIT:          0  MISS:          0
cpu0_ITLB PREFETCH  ACCESS:          0  HIT:          0  MISS:          0
cpu0_ITLB WRITEBACK ACCESS:          0  HIT:          0  MISS:          0
cpu0_L1I TOTAL     ACCESS:      39158  HIT:      39108  MISS:         50
cpu0_L1I LOAD      ACCESS:      39158  HIT:      39108  MISS:         50
cpu0_L1I RFO       ACCESS:          0  HIT:          0  MISS:          0
cpu0_L1I PREFETCH  ACCESS:          0  HIT:          0  MISS:          0
cpu0_L1I WRITEBACK ACCESS:          0  HIT:          0  MISS:          0
cpu0_STLB TOTAL     ACCESS:      35201  HIT:      22946  MISS:      12255
cpu0_STLB LOAD      ACCESS:      32967  HIT:      20988  MISS:      11979
cpu0_STLB RFO       ACCESS:       2234  HIT:       1958  MISS:        276
cpu0_STLB PREFETCH  ACCESS:          0  HIT:          0  MISS:          0
cpu0_STLB WRITEBACK ACCESS:          0  HIT:          0  MISS:          0
cpu0_L1D TOTAL     ACCESS:    2815245  HIT:    2478006  MISS:     337239
cpu0_L1D LOAD      ACCESS:    2264140  HIT:    1950514  MISS:     313626
cpu0_L1D RFO       ACCESS:     539407  HIT:     515900  MISS:      23507
cpu0_L1D PREFETCH  ACCESS:          0  HIT:          0  MISS:          0
cpu0_L1D WRITEBACK ACCESS:          0  HIT:          0  MISS:          0
cpu0_L2C TOTAL     ACCESS:     375553  HIT:     110358  MISS:     265195
cpu0_L2C LOAD      ACCESS:     313675  HIT:      68442  MISS:     245233
cpu0_L2C RFO       ACCESS:      23506  HIT:       3666  MISS:      19840
cpu0_L2C PREFETCH  ACCESS:          0  HIT:          0  MISS:          0
cpu0_L2C WRITEBACK ACCESS:      38266  HIT:      38194  MISS:         72
LLC TOTAL     ACCESS:     295353  HIT:     280982  MISS:      14371
LLC LOAD      ACCESS:     245233  HIT:     231225  MISS:      14008
LLC RFO       ACCESS:      19840  HIT:      19477  MISS:        363
LLC PREFETCH  ACCESS:          0  HIT:          0  MISS:          0
LLC WRITEBACK ACCESS:      30230  HIT:      30230  MISS:          0
Heartbeat CPU 0 instructions: 72000002 cycles: 25339581 heartbeat IPC: 1.70112 cumulative IPC: 1.78651 (Simulation time: 0 hr 41 min 37 sec) 

Region of Interest Statistics
cpu0_DTLB TOTAL     ACCESS:    3789474  HIT:    3751688  MISS:      37786
cpu0_DTLB LOAD      ACCESS:    3446787  HIT:    3411294  MISS:      35493
cpu0_DTLB RFO       ACCESS:     342687  HIT:     340394  MISS:       2293
cpu0_DTLB PREFETCH  ACCESS:          0  HIT:          0  MISS:          0
cpu0_DTLB WRITEBACK ACCESS:          0  HIT:          0  MISS:          0
cpu0_ITLB TOTAL     ACCESS:    2021277  HIT:    2021277  MISS:          0
cpu0_ITLB LOAD      ACCESS:    2021277  HIT:    2021277  MISS:          0
cpu0_ITLB RFO       ACCESS:          0  HIT:          0  MISS:          0
cpu0_ITLB PREFETCH  ACCESS:          0  HIT:          0  MISS:          0
cpu0_ITLB WRITEBACK ACCESS:          0  HIT:          0  MISS:          0
cpu0_L1I TOTAL     ACCESS:      39170  HIT:      39120  MISS:         50
cpu0_L1I LOAD      ACCESS:      39170  HIT:      39120  MISS:         50
cpu0_L1I RFO       ACCESS:          0  HIT:          0  MISS:          0
cpu0_L1I PREFETCH  ACCESS:          0  HIT:          0  MISS:          0
cpu0_L1I WRITEBACK ACCESS:          0  HIT:          0  MISS:          0
cpu0_STLB TOTAL     ACCESS:      37786  HIT:      24442  MISS:      13344
cpu0_STLB LOAD      ACCESS:      35493  HIT:      22431  MISS:      13062
cpu0_STLB RFO       ACCESS:       2293  HIT:       2011  MISS:        282
cpu0_STLB PREFETCH  ACCESS:          0  HIT:          0  MISS:          0
cpu0_STLB WRITEBACK ACCESS:          0  HIT:          0  MISS:          0
cpu0_L1D TOTAL     ACCESS:    3074074  HIT:    2704142  MISS:     369932
cpu0_L1D LOAD      ACCESS:    2486385  HIT:    2140922  MISS:     345463
cpu0_L1D RFO       ACCESS:     574955  HIT:     550595  MISS:      24360
cpu0_L1D PREFETCH  ACCESS:          0  HIT:          0  MISS:          0
cpu0_L1D WRITEBACK ACCESS:          0  HIT:          0  MISS:          0
cpu0_L2C TOTAL     ACCESS:     409121  HIT:     115971  MISS:     293150
cpu0_L2C LOAD      ACCESS:     345512  HIT:      73178  MISS:     272334
cpu0_L2C RFO       ACCESS:      24359  HIT:       3670  MISS:      20689
cpu0_L2C PREFETCH  ACCESS:          0  HIT:          0  MISS:          0
cpu0_L2C WRITEBACK ACCESS:      39141  HIT:      39067  MISS:         74
LLC TOTAL     ACCESS:     325017  HIT:     307584  MISS:      17433
LLC LOAD      ACCESS:     272334  HIT:     255271  MISS:      17063
LLC RFO       ACCESS:      20689  HIT:      20319  MISS:        370
LLC PREFETCH  ACCESS:          0  HIT:          0  MISS:          0
LLC WRITEBACK ACCESS:      31941  HIT:      31941  MISS:          0
Heartbeat CPU 0 instructions: 74000002 cycles: 26640149 heartbeat IPC: 1.53779 cumulative IPC: 1.76275 (Simulation time: 0 hr 42 min 57 sec) 

Region of Interest Statistics
cpu0_DTLB TOTAL     ACCESS:    4146448  HIT:    4103877  MISS:      42571
cpu0_DTLB LOAD      ACCESS:    3767645  HIT:    3727728  MISS:      39917
cpu0_DTLB RFO       ACCESS:     378803  HIT:     376149  MISS:       2654
cpu0_DTLB PREFETCH  ACCESS:          0  HIT:          0  MISS:          0
cpu0_DTLB WRITEBACK ACCESS:          0  HIT:          0  MISS:          0
cpu0_ITLB TOTAL     ACCESS:    2208927  HIT:    2208927  MISS:          0
cpu0_ITLB LOAD      ACCESS:    2208927  HIT:    2208927  MISS:          0
cpu0_ITLB RFO       ACCESS:          0  HIT:          0  MISS:          0
cpu0_ITLB PREFETCH  ACCESS:          0  HIT:          0  MISS:          0
cpu0_ITLB WRITEBACK ACCESS:          0  HIT:          0  MISS:          0
cpu0_L1I TOTAL     ACCESS:      43016  HIT:      42966  MISS:         50
cpu0_L1I LOAD      ACCESS:      43016  HIT:      42966  MISS:         50
cpu0_L1I RFO       ACCESS:          0  HIT:          0  MISS:          0
cpu0_L1I PREFETCH  ACCESS:          0  HIT:          0  MISS:          0
cpu0_L1I WRITEBACK ACCESS:          0  HIT:          0  MISS:          0
cpu0_STLB TOTAL     ACCESS:      42571  HIT:      27701  MISS:      14870
cpu0_STLB LOAD      ACCESS:      39917  HIT:      25384  MISS:      14533
cpu0_STLB RFO       ACCESS:       2654  HIT:       2317  MISS:        337
cpu0_STLB PREFETCH  ACCESS:          0  HIT:          0  MISS:          0
cpu0_STLB WRITEBACK ACCESS:          0  HIT:          0  MISS:          0
cpu0_L1D TOTAL     ACCESS:    3359683  HIT:    2951790  MISS:     407893
cpu0_L1D LOAD      ACCESS:    2714876  HIT:    2335245  MISS:     379631
cpu0_L1D RFO       ACCESS:     630606  HIT:     602474  MISS:      28132
cpu0_L1D PREFETCH  ACCESS:          0  HIT:          0  MISS:          0
cpu0_L1D WRITEBACK ACCESS:          0  HIT:          0  MISS:          0
cpu0_L2C TOTAL     ACCESS:     453654  HIT:     133457  MISS:     320197
cpu0_L2C LOAD      ACCESS:     379680  HIT:      83314  MISS:     296366
cpu0_L2C RFO       ACCESS:      28131  HIT:       4447  MISS:      23684
cpu0_L2C PREFETCH  ACCESS:          0  HIT:          0  MISS:          0
cpu0_L2C WRITEBACK ACCESS:      45713  HIT:      45627  MISS:         86
LLC TOTAL     ACCESS:     355260  HIT:     335062  MISS:      20198
LLC LOAD      ACCESS:     296366  HIT:     276615  MISS:      19751
LLC RFO       ACCESS:      23684  HIT:      23237  MISS:        447
LLC PREFETCH  ACCESS:          0  HIT:          0  MISS:          0
LLC WRITEBACK ACCESS:      35149  HIT:      35149  MISS:          0
Heartbeat CPU 0 instructions: 76000001 cycles: 27683428 heartbeat IPC: 1.91703 cumulative IPC: 1.77373 (Simulation time: 0 hr 44 min 12 sec) 

Region of Interest Statistics
cpu0_DTLB TOTAL     ACCESS:    4472052  HIT:    4427953  MISS:      44099
cpu0_DTLB LOAD      ACCESS:    4075861  HIT:    4034438  MISS:      41423
cpu0_DTLB RFO       ACCESS:     396191  HIT:     393515  MISS:       2676
cpu0_DTLB PREFETCH  ACCESS:          0  HIT:          0  MISS:          0
cpu0_DTLB WRITEBACK ACCESS:          0  HIT:          0  MISS:          0
cpu0_ITLB TOTAL     ACCESS:    2396731  HIT:    2396731  MISS:          0
cpu0_ITLB LOAD      ACCESS:    2396731  HIT:    2396731  MISS:          0
cpu0_ITLB RFO       ACCESS:          0  HIT:          0  MISS:          0
cpu0_ITLB PREFETCH  ACCESS:          0  HIT:          0  MISS:          0
cpu0_ITLB WRITEBACK ACCESS:          0  HIT:          0  MISS:          0
cpu0_L1I TOTAL     ACCESS:      43018  HIT:      42968  MISS:         50
cpu0_L1I LOAD      ACCESS:      43018  HIT:      42968  MISS:         50
cpu0_L1I RFO       ACCESS:          0  HIT:          0  MISS:          0
cpu0_L1I PREFETCH  ACCESS:          0  HIT:          0  MISS:          0
cpu0_L1I WRITEBACK ACCESS:          0  HIT:          0  MISS:          0
cpu0_STLB TOTAL     ACCESS:      44099  HIT:      28347  MISS:      15752
cpu0_STLB LOAD      ACCESS:      41423  HIT:      26013  MISS:      15410
cpu0_STLB RFO       ACCESS:       2676  HIT:       2334  MISS:        342
cpu0_STLB PREFETCH  ACCESS:          0  HIT:          0  MISS:          0
cpu0_STLB WRITEBACK ACCESS:          0  HIT:          0  MISS:          0
cpu0_L1D TOTAL     ACCESS:    3608844  HIT:    3170069  MISS:     438775
cpu0_L1D LOAD      ACCESS:    2934486  HIT:    2524811  MISS:     409675
cpu0_L1D RFO       ACCESS:     659318  HIT:     630351  MISS:      28967
cpu0_L1D PREFETCH  ACCESS:          0  HIT:          0  MISS:          0
cpu0_L1D WRITEBACK ACCESS:          0  HIT:          0  MISS:          0
cpu0_L2C TOTAL     ACCESS:     485391  HIT:     137565  MISS:     347826
cpu0_L2C LOAD      ACCESS:     409724  HIT:      86567  MISS:     323157
cpu0_L2C RFO       ACCESS:      28966  HIT:       4449  MISS:      24517
cpu0_L2C PREFETCH  ACCESS:          0  HIT:          0  MISS:          0
cpu0_L2C WRITEBACK ACCESS:      46568  HIT:      46480  MISS:         88
LLC TOTAL     ACCESS:     385652  HIT:     363319  MISS:      22333
LLC LOAD      ACCESS:     323157  HIT:     301287  MISS:      21870
LLC RFO       ACCESS:      24517  HIT:      24054  MISS:        463
LLC PREFETCH  ACCESS:          0  HIT:          0  MISS:          0
LLC WRITEBACK ACCESS:      37914  HIT:      37914  MISS:          0
Heartbeat CPU 0 instructions: 78000002 cycles: 28995944 heartbeat IPC: 1.52379 cumulative IPC: 1.75319 (Simulation time: 0 hr 45 min 37 sec) 

Region of Interest Statistics
cpu0_DTLB TOTAL     ACCESS:    4830420  HIT:    4780740  MISS:      49680
cpu0_DTLB LOAD      ACCESS:    4396545  HIT:    4349897  MISS:      46648
cpu0_DTLB RFO       ACCESS:     433875  HIT:     430843  MISS:       3032
cpu0_DTLB PREFETCH  ACCESS:          0  HIT:          0  MISS:          0
cpu0_DTLB WRITEBACK ACCESS:          0  HIT:          0  MISS:          0
cpu0_ITLB TOTAL     ACCESS:    2583486  HIT:    2583486  MISS:          0
cpu0_ITLB LOAD      ACCESS:    2583486  HIT:    2583486  MISS:          0
cpu0_ITLB RFO       ACCESS:          0  HIT:          0  MISS:          0
cpu0_ITLB PREFETCH  ACCESS:          0  HIT:          0  MISS:          0
cpu0_ITLB WRITEBACK ACCESS:          0  HIT:          0  MISS:          0
cpu0_L1I TOTAL     ACCESS:      46984  HIT:      46934  MISS:         50
cpu0_L1I LOAD      ACCESS:      46984  HIT:      46934  MISS:         50
cpu0_L1I RFO       ACCESS:          0  HIT:          0  MISS:          0
cpu0_L1I PREFETCH  ACCESS:          0  HIT:          0  MISS:          0
cpu0_L1I WRITEBACK ACCESS:          0  HIT:          0  MISS:          0
cpu0_STLB TOTAL     ACCESS:      49680  HIT:      32240  MISS:      17440
cpu0_STLB LOAD      ACCESS:      46648  HIT:      29598  MISS:      17050
cpu0_STLB RFO       ACCESS:       3032  HIT:       2642  MISS:        390
cpu0_STLB PREFETCH  ACCESS:          0  HIT:          0  MISS:          0
cpu0_STLB WRITEBACK ACCESS:          0  HIT:          0  MISS:          0
cpu0_L1D TOTAL     ACCESS:    3896630  HIT:    3419242  MISS:     477388
cpu0_L1D LOAD      ACCESS:    3161407  HIT:    2716720  MISS:     444687
cpu0_L1D RFO       ACCESS:     718569  HIT:     686018  MISS:      32551
cpu0_L1D PREFETCH  ACCESS:          0  HIT:          0  MISS:          0
cpu0_L1D WRITEBACK ACCESS:          0  HIT:          0  MISS:          0
cpu0_L2C TOTAL     ACCESS:     529670  HIT:     154868  MISS:     374802
cpu0_L2C LOAD      ACCESS:     444736  HIT:      97568  MISS:     347168
cpu0_L2C RFO       ACCESS:      32549  HIT:       5086  MISS:      27463
cpu0_L2C PREFETCH  ACCESS:          0  HIT:          0  MISS:          0
cpu0_L2C WRITEBACK ACCESS:      52235  HIT:      52135  MISS:        100
LLC TOTAL     ACCESS:     414596  HIT:     389846  MISS:      24750
LLC LOAD      ACCESS:     347168  HIT:     322941  MISS:      24227
LLC RFO       ACCESS:      27463  HIT:      26940  MISS:        523
LLC PREFETCH  ACCESS:          0  HIT:          0  MISS:          0
LLC WRITEBACK ACCESS:      39894  HIT:      39894  MISS:          0
Heartbeat CPU 0 instructions: 80000001 cycles: 29910698 heartbeat IPC: 2.18638 cumulative IPC: 1.77666 (Simulation time: 0 hr 46 min 50 sec) 

Region of Interest Statistics
cpu0_DTLB TOTAL     ACCESS:    5151798  HIT:    5101121  MISS:      50677
cpu0_DTLB LOAD      ACCESS:    4704237  HIT:    4656613  MISS:      47624
cpu0_DTLB RFO       ACCESS:     447561  HIT:     444508  MISS:       3053
cpu0_DTLB PREFETCH  ACCESS:          0  HIT:          0  MISS:          0
cpu0_DTLB WRITEBACK ACCESS:          0  HIT:          0  MISS:          0
cpu0_ITLB TOTAL     ACCESS:    2771658  HIT:    2771658  MISS:          0
cpu0_ITLB LOAD      ACCESS:    2771658  HIT:    2771658  MISS:          0
cpu0_ITLB RFO       ACCESS:          0  HIT:          0  MISS:          0
cpu0_ITLB PREFETCH  ACCESS:          0  HIT:          0  MISS:          0
cpu0_ITLB WRITEBACK ACCESS:          0  HIT:          0  MISS:          0
cpu0_L1I TOTAL     ACCESS:      46992  HIT:      46942  MISS:         50
cpu0_L1I LOAD      ACCESS:      46992  HIT:      46942  MISS:         50
cpu0_L1I RFO       ACCESS:          0  HIT:          0  MISS:          0
cpu0_L1I PREFETCH  ACCESS:          0  HIT:          0  MISS:          0
cpu0_L1I WRITEBACK ACCESS:          0  HIT:          0  MISS:          0
cpu0_STLB TOTAL     ACCESS:      50677  HIT:      32556  MISS:      18121
cpu0_STLB LOAD      ACCESS:      47624  HIT:      29897  MISS:      17727
cpu0_STLB RFO       ACCESS:       3053  HIT:       2659  MISS:        394
cpu0_STLB PREFETCH  ACCESS:          0  HIT:          0  MISS:          0
cpu0_STLB WRITEBACK ACCESS:          0  HIT:          0  MISS:          0
cpu0_L1D TOTAL     ACCESS:    4137008  HIT:    3630769  MISS:     506239
cpu0_L1D LOAD      ACCESS:    3379830  HIT:    2907139  MISS:     472691
cpu0_L1D RFO       ACCESS:     739876  HIT:     706481  MISS:      33395
cpu0_L1D PREFETCH  ACCESS:          0  HIT:          0  MISS:          0
cpu0_L1D WRITEBACK ACCESS:          0  HIT:          0  MISS:          0
cpu0_L2C TOTAL     ACCESS:     559397  HIT:     157410  MISS:     401987
cpu0_L2C LOAD      ACCESS:     472740  HIT:      99235  MISS:     373505
cpu0_L2C RFO       ACCESS:      33393  HIT:       5087  MISS:      28306
cpu0_L2C PREFETCH  ACCESS:          0  HIT:          0  MISS:          0
cpu0_L2C WRITEBACK ACCESS:      53111  HIT:      53009  MISS:        102
LLC TOTAL     ACCESS:     445224  HIT:     419175  MISS:      26049
LLC LOAD      ACCESS:     373505  HIT:     347991  MISS:      25514
LLC RFO       ACCESS:      28306  HIT:      27771  MISS:        535
LLC PREFETCH  ACCESS:          0  HIT:          0  MISS:          0
LLC WRITEBACK ACCESS:      43339  HIT:      43339  MISS:          0
Heartbeat CPU 0 instructions: 82000001 cycles: 31223904 heartbeat IPC: 1.52299 cumulative IPC: 1.75835 (Simulation time: 0 hr 48 min 17 sec) 

Region of Interest Statistics
cpu0_DTLB TOTAL     ACCESS:    5511583  HIT:    5455101  MISS:      56482
cpu0_DTLB LOAD      ACCESS:    5024754  HIT:    4971695  MISS:      53059
cpu0_DTLB RFO       ACCESS:     486829  HIT:     483406  MISS:       3423
cpu0_DTLB PREFETCH  ACCESS:          0  HIT:          0  MISS:          0
cpu0_DTLB WRITEBACK ACCESS:          0  HIT:          0  MISS:          0
cpu0_ITLB TOTAL     ACCESS:    2956008  HIT:    2956008  MISS:          0
cpu0_ITLB LOAD      ACCESS:    2956008  HIT:    2956008  MISS:          0
cpu0_ITLB RFO       ACCESS:          0  HIT:          0  MISS:          0
cpu0_ITLB PREFETCH  ACCESS:          0  HIT:          0  MISS:          0
cpu0_ITLB WRITEBACK ACCESS:          0  HIT:          0  MISS:          0
cpu0_L1I TOTAL     ACCESS:      50897  HIT:      50847  MISS:         50
cpu0_L1I LOAD      ACCESS:      50897  HIT:      50847  MISS:         50
cpu0_L1I RFO       ACCESS:          0  HIT:          0  MISS:          0
cpu0_L1I PREFETCH  ACCESS:          0  HIT:          0  MISS:          0
cpu0_L1I WRITEBACK ACCESS:          0  HIT:          0  MISS:          0
cpu0_STLB TOTAL     ACCESS:      56482  HIT:      36507  MISS:      19975
cpu0_STLB LOAD      ACCESS:      53059  HIT:      33528  MISS:      19531
cpu0_STLB RFO       ACCESS:       3423  HIT:       2979  MISS:        444
cpu0_STLB PREFETCH  ACCESS:          0  HIT:          0  MISS:          0
cpu0_STLB WRITEBACK ACCESS:          0  HIT:          0  MISS:          0
cpu0_L1D TOTAL     ACCESS:    4430338  HIT:    3884379  MISS:     545959
cpu0_L1D LOAD      ACCESS:    3608134  HIT:    3099291  MISS:     508843
cpu0_L1D RFO       ACCESS:     803133  HIT:     766189  MISS:      36944
cpu0_L1D PREFETCH  ACCESS:          0  HIT:          0  MISS:          0
cpu0_L1D WRITEBACK ACCESS:          0  HIT:          0  MISS:          0
cpu0_L2C TOTAL     ACCESS:     604571  HIT:     175049  MISS:     429522
cpu0_L2C LOAD      ACCESS:     508891  HIT:     110889  MISS:     398002
cpu0_L2C RFO       ACCESS:      36943  HIT:       5619  MISS:      31324
cpu0_L2C PREFETCH  ACCESS:          0  HIT:          0  MISS:          0
cpu0_L2C WRITEBACK ACCESS:      58565  HIT:      58451  MISS:        114
LLC TOTAL     ACCESS:     474564  HIT:     446276  MISS:      28288
LLC LOAD      ACCESS:     398002  HIT:     370317  MISS:      27685
LLC RFO       ACCESS:      31324  HIT:      30721  MISS:        603
LLC PREFETCH  ACCESS:          0  HIT:          0  MISS:          0
LLC WRITEBACK ACCESS:      45156  HIT:      45156  MISS:          0
Heartbeat CPU 0 instructions: 84000003 cycles: 32103005 heartbeat IPC: 2.27505 cumulative IPC: 1.78216 (Simulation time: 0 hr 49 min 20 sec) 

Region of Interest Statistics
cpu0_DTLB TOTAL     ACCESS:    5830520  HIT:    5773299  MISS:      57221
cpu0_DTLB LOAD      ACCESS:    5331677  HIT:    5277899  MISS:      53778
cpu0_DTLB RFO       ACCESS:     498843  HIT:     495400  MISS:       3443
cpu0_DTLB PREFETCH  ACCESS:          0  HIT:          0  MISS:          0
cpu0_DTLB WRITEBACK ACCESS:          0  HIT:          0  MISS:          0
cpu0_ITLB TOTAL     ACCESS:    3144481  HIT:    3144481  MISS:          0
cpu0_ITLB LOAD      ACCESS:    3144481  HIT:    3144481  MISS:          0
cpu0_ITLB RFO       ACCESS:          0  HIT:          0  MISS:          0
cpu0_ITLB PREFETCH  ACCESS:          0  HIT:          0  MISS:          0
cpu0_ITLB WRITEBACK ACCESS:          0  HIT:          0  MISS:          0
cpu0_L1I TOTAL     ACCESS:      50927  HIT:      50877  MISS:         50
cpu0_L1I LOAD      ACCESS:      50927  HIT:      50877  MISS:         50
cpu0_L1I RFO       ACCESS:          0  HIT:          0  MISS:          0
cpu0_L1I PREFETCH  ACCESS:          0  HIT:          0  MISS:          0
cpu0_L1I WRITEBACK ACCESS:          0  HIT:          0  MISS:          0
cpu0_STLB TOTAL     ACCESS:      57221  HIT:      36705  MISS:      20516
cpu0_STLB LOAD      ACCESS:      53778  HIT:      33707  MISS:      20071
cpu0_STLB RFO       ACCESS:       3443  HIT:       2998  MISS:        445
cpu0_STLB PREFETCH  ACCESS:          0  HIT:          0  MISS:          0
cpu0_STLB WRITEBACK ACCESS:          0  HIT:          0  MISS:          0
cpu0_L1D TOTAL     ACCESS:    4665664  HIT:    4092125  MISS:     573539
cpu0_L1D LOAD      ACCESS:    3825214  HIT:    3289717  MISS:     535497
cpu0_L1D RFO       ACCESS:     820872  HIT:     783005  MISS:      37867
cpu0_L1D PREFETCH  ACCESS:          0  HIT:          0  MISS:          0
cpu0_L1D WRITEBACK ACCESS:          0  HIT:          0  MISS:          0
cpu0_L2C TOTAL     ACCESS:     633170  HIT:     176819  MISS:     456351
cpu0_L2C LOAD      ACCESS:     535545  HIT:     111568  MISS:     423977
cpu0_L2C RFO       ACCESS:      37865  HIT:       5690  MISS:      32175
cpu0_L2C PREFETCH  ACCESS:          0  HIT:          0  MISS:          0
cpu0_L2C WRITEBACK ACCESS:      59585  HIT:      59470  MISS:        115
LLC TOTAL     ACCESS:     505162  HIT:     475777  MISS:      29385
LLC LOAD      ACCESS:     423977  HIT:     395204  MISS:      28773
LLC RFO       ACCESS:      32175  HIT:      31563  MISS:        612
LLC PREFETCH  ACCESS:          0  HIT:          0  MISS:          0
LLC WRITEBACK ACCESS:      48926  HIT:      48926  MISS:          0
Heartbeat CPU 0 instructions: 86000001 cycles: 33489203 heartbeat IPC: 1.44279 cumulative IPC: 1.75917 (Simulation time: 0 hr 50 min 47 sec) 

Region of Interest Statistics
cpu0_DTLB TOTAL     ACCESS:    6191551  HIT:    6127841  MISS:      63710
cpu0_DTLB LOAD      ACCESS:    5648139  HIT:    5588251  MISS:      59888
cpu0_DTLB RFO       ACCESS:     543412  HIT:     539590  MISS:       3822
cpu0_DTLB PREFETCH  ACCESS:          0  HIT:          0  MISS:          0
cpu0_DTLB WRITEBACK ACCESS:          0  HIT:          0  MISS:          0
cpu0_ITLB TOTAL     ACCESS:    3324180  HIT:    3324180  MISS:          0
cpu0_ITLB LOAD      ACCESS:    3324180  HIT:    3324180  MISS:          0
cpu0_ITLB RFO       ACCESS:          0  HIT:          0  MISS:          0
cpu0_ITLB PREFETCH  ACCESS:          0  HIT:          0  MISS:          0
cpu0_ITLB WRITEBACK ACCESS:          0  HIT:          0  MISS:          0
cpu0_L1I TOTAL     ACCESS:      56175  HIT:      56125  MISS:         50
cpu0_L1I LOAD      ACCESS:      56175  HIT:      56125  MISS:         50
cpu0_L1I RFO       ACCESS:          0  HIT:          0  MISS:          0
cpu0_L1I PREFETCH  ACCESS:          0  HIT:          0  MISS:          0
cpu0_L1I WRITEBACK ACCESS:          0  HIT:          0  MISS:          0
cpu0_STLB TOTAL     ACCESS:      63710  HIT:      41116  MISS:      22594
cpu0_STLB LOAD      ACCESS:      59888  HIT:      37789  MISS:      22099
cpu0_STLB RFO       ACCESS:       3822  HIT:       3327  MISS:        495
cpu0_STLB PREFETCH  ACCESS:          0  HIT:          0  MISS:          0
cpu0_STLB WRITEBACK ACCESS:          0  HIT:          0  MISS:          0
cpu0_L1D TOTAL     ACCESS:    4975233  HIT:    4358992  MISS:     616241
cpu0_L1D LOAD      ACCESS:    4060239  HIT:    3485564  MISS:     574675
cpu0_L1D RFO       ACCESS:     893418  HIT:     852049  MISS:      41369
cpu0_L1D PREFETCH  ACCESS:          0  HIT:          0  MISS:          0
cpu0_L1D WRITEBACK ACCESS:          0  HIT:          0  MISS:          0
cpu0_L2C TOTAL     ACCESS:     681958  HIT:     196052  MISS:     485906
cpu0_L2C LOAD      ACCESS:     574722  HIT:     124268  MISS:     450454
cpu0_L2C RFO       ACCESS:      41365  HIT:       6133  MISS:      35232
cpu0_L2C PREFETCH  ACCESS:          0  HIT:          0  MISS:          0
cpu0_L2C WRITEBACK ACCESS:      65674  HIT:      65546  MISS:        128
LLC TOTAL     ACCESS:     536856  HIT:     504991  MISS:      31865
LLC LOAD      ACCESS:     450454  HIT:     419264  MISS:      31190
LLC RFO       ACCESS:      35232  HIT:      34557  MISS:        675
LLC PREFETCH  ACCESS:          0  HIT:          0  MISS:          0
LLC WRITEBACK ACCESS:      51078  HIT:      51078  MISS:          0
Heartbeat CPU 0 instructions: 88000002 cycles: 34321868 heartbeat IPC: 2.40193 cumulative IPC: 1.78431 (Simulation time: 0 hr 51 min 52 sec) 

Region of Interest Statistics
cpu0_DTLB TOTAL     ACCESS:    6511091  HIT:    6446869  MISS:      64222
cpu0_DTLB LOAD      ACCESS:    5958496  HIT:    5898118  MISS:      60378
cpu0_DTLB RFO       ACCESS:     552595  HIT:     548751  MISS:       3844
cpu0_DTLB PREFETCH  ACCESS:          0  HIT:          0  MISS:          0
cpu0_DTLB WRITEBACK ACCESS:          0  HIT:          0  MISS:          0
cpu0_ITLB TOTAL     ACCESS:    3519112  HIT:    3519112  MISS:          0
cpu0_ITLB LOAD      ACCESS:    3519112  HIT:    3519112  MISS:          0
cpu0_ITLB RFO       ACCESS:          0  HIT:          0  MISS:          0
cpu0_ITLB PREFETCH  ACCESS:          0  HIT:          0  MISS:          0
cpu0_ITLB WRITEBACK ACCESS:          0  HIT:          0  MISS:          0
cpu0_L1I TOTAL     ACCESS:      56201  HIT:      56151  MISS:         50
cpu0_L1I LOAD      ACCESS:      56201  HIT:      56151  MISS:         50
cpu0_L1I RFO       ACCESS:          0  HIT:          0  MISS:          0
cpu0_L1I PREFETCH  ACCESS:          0  HIT:          0  MISS:          0
cpu0_L1I WRITEBACK ACCESS:          0  HIT:          0  MISS:          0
cpu0_STLB TOTAL     ACCESS:      64222  HIT:      41258  MISS:      22964
cpu0_STLB LOAD      ACCESS:      60378  HIT:      37910  MISS:      22468
cpu0_STLB RFO       ACCESS:       3844  HIT:       3348  MISS:        496
cpu0_STLB PREFETCH  ACCESS:          0  HIT:          0  MISS:          0
cpu0_STLB WRITEBACK ACCESS:          0  HIT:          0  MISS:          0
cpu0_L1D TOTAL     ACCESS:    5199947  HIT:    4557694  MISS:     642253
cpu0_L1D LOAD      ACCESS:    4271834  HIT:    3672129  MISS:     599705
cpu0_L1D RFO       ACCESS:     906192  HIT:     863842  MISS:      42350
cpu0_L1D PREFETCH  ACCESS:          0  HIT:          0  MISS:          0
cpu0_L1D WRITEBACK ACCESS:          0  HIT:          0  MISS:          0
cpu0_L2C TOTAL     ACCESS:     708977  HIT:     198616  MISS:     510361
cpu0_L2C LOAD      ACCESS:     599752  HIT:     125597  MISS:     474155
cpu0_L2C RFO       ACCESS:      42346  HIT:       6360  MISS:      35986
cpu0_L2C PREFETCH  ACCESS:          0  HIT:          0  MISS:          0
cpu0_L2C WRITEBACK ACCESS:      66681  HIT:      66553  MISS:        128
LLC TOTAL     ACCESS:     564952  HIT:     532153  MISS:      32799
LLC LOAD      ACCESS:     474155  HIT:     442042  MISS:      32113
LLC RFO       ACCESS:      35986  HIT:      35300  MISS:        686
LLC PREFETCH  ACCESS:          0  HIT:          0  MISS:          0
LLC WRITEBACK ACCESS:      54719  HIT:      54719  MISS:          0
Heartbeat CPU 0 instructions: 90000001 cycles: 35629547 heartbeat IPC: 1.52943 cumulative IPC: 1.76956 (Simulation time: 0 hr 53 min 10 sec) 

Region of Interest Statistics
cpu0_DTLB TOTAL     ACCESS:    6871443  HIT:    6800866  MISS:      70577
cpu0_DTLB LOAD      ACCESS:    6273341  HIT:    6206955  MISS:      66386
cpu0_DTLB RFO       ACCESS:     598102  HIT:     593911  MISS:       4191
cpu0_DTLB PREFETCH  ACCESS:          0  HIT:          0  MISS:          0
cpu0_DTLB WRITEBACK ACCESS:          0  HIT:          0  MISS:          0
cpu0_ITLB TOTAL     ACCESS:    3697979  HIT:    3697979  MISS:          0
cpu0_ITLB LOAD      ACCESS:    3697979  HIT:    3697979  MISS:          0
cpu0_ITLB RFO       ACCESS:          0  HIT:          0  MISS:          0
cpu0_ITLB PREFETCH  ACCESS:          0  HIT:          0  MISS:          0
cpu0_ITLB WRITEBACK ACCESS:          0  HIT:          0  MISS:          0
cpu0_L1I TOTAL     ACCESS:      59646  HIT:      59596  MISS:         50
cpu0_L1I LOAD      ACCESS:      59646  HIT:      59596  MISS:         50
cpu0_L1I RFO       ACCESS:          0  HIT:          0  MISS:          0
cpu0_L1I PREFETCH  ACCESS:          0  HIT:          0  MISS:          0
cpu0_L1I WRITEBACK ACCESS:          0  HIT:          0  MISS:          0
cpu0_STLB TOTAL     ACCESS:      70577  HIT:      45426  MISS:      25151
cpu0_STLB LOAD      ACCESS:      66386  HIT:      41780  MISS:      24606
cpu0_STLB RFO       ACCESS:       4191  HIT:       3646  MISS:        545
cpu0_STLB PREFETCH  ACCESS:          0  HIT:          0  MISS:          0
cpu0_STLB WRITEBACK ACCESS:          0  HIT:          0  MISS:          0
cpu0_L1D TOTAL     ACCESS:    5514325  HIT:    4829326  MISS:     684999
cpu0_L1D LOAD      ACCESS:    4509926  HIT:    3871014  MISS:     638912
cpu0_L1D RFO       ACCESS:     980383  HIT:     934516  MISS:      45867
cpu0_L1D PREFETCH  ACCESS:          0  HIT:          0  MISS:          0
cpu0_L1D WRITEBACK ACCESS:          0  HIT:          0  MISS:          0
cpu0_L2C TOTAL     ACCESS:     757150  HIT:     216396  MISS:     540754
cpu0_L2C LOAD      ACCESS:     638959  HIT:     137554  MISS:     501405
cpu0_L2C RFO       ACCESS:      45863  HIT:       6758  MISS:      39105
cpu0_L2C PREFETCH  ACCESS:          0  HIT:          0  MISS:          0
cpu0_L2C WRITEBACK ACCESS:      72108  HIT:      71966  MISS:        142
LLC TOTAL     ACCESS:     597329  HIT:     562986  MISS:      34343
LLC LOAD      ACCESS:     501405  HIT:     467804  MISS:      33601
LLC RFO       ACCESS:      39105  HIT:      38363  MISS:        742
LLC PREFETCH  ACCESS:          0  HIT:          0  MISS:          0
LLC WRITEBACK ACCESS:      56717  HIT:      56717  MISS:          0
Heartbeat CPU 0 instructions: 92000000 cycles: 36450274 heartbeat IPC: 2.43686 cumulative IPC: 1.79294 (Simulation time: 0 hr 54 min 19 sec) 

Region of Interest Statistics
cpu0_DTLB TOTAL     ACCESS:    7192201  HIT:    7121099  MISS:      71102
cpu0_DTLB LOAD      ACCESS:    6585255  HIT:    6518366  MISS:      66889
cpu0_DTLB RFO       ACCESS:     606946  HIT:     602733  MISS:       4213
cpu0_DTLB PREFETCH  ACCESS:          0  HIT:          0  MISS:          0
cpu0_DTLB WRITEBACK ACCESS:          0  HIT:          0  MISS:          0
cpu0_ITLB TOTAL     ACCESS:    3895865  HIT:    3895865  MISS:          0
cpu0_ITLB LOAD      ACCESS:    3895865  HIT:    3895865  MISS:          0
cpu0_ITLB RFO       ACCESS:          0  HIT:          0  MISS:          0
cpu0_ITLB PREFETCH  ACCESS:          0  HIT:          0  MISS:          0
cpu0_ITLB WRITEBACK ACCESS:          0  HIT:          0  MISS:          0
cpu0_L1I TOTAL     ACCESS:      59672  HIT:      59622  MISS:         50
cpu0_L1I LOAD      ACCESS:      59672  HIT:      59622  MISS:         50
cpu0_L1I RFO       ACCESS:          0  HIT:          0  MISS:          0
cpu0_L1I PREFETCH  ACCESS:          0  HIT:          0  MISS:          0
cpu0_L1I WRITEBACK ACCESS:          0  HIT:          0  MISS:          0
cpu0_STLB TOTAL     ACCESS:      71102  HIT:      45589  MISS:      25513
cpu0_STLB LOAD      ACCESS:      66889  HIT:      41923  MISS:      24966
cpu0_STLB RFO       ACCESS:       4213  HIT:       3666  MISS:        547
cpu0_STLB PREFETCH  ACCESS:          0  HIT:          0  MISS:          0
cpu0_STLB WRITEBACK ACCESS:          0  HIT:          0  MISS:          0
cpu0_L1D TOTAL     ACCESS:    5738031  HIT:    5027188  MISS:     710843
cpu0_L1D LOAD      ACCESS:    4720952  HIT:    4057176  MISS:     663776
cpu0_L1D RFO       ACCESS:     992726  HIT:     945880  MISS:      46846
cpu0_L1D PREFETCH  ACCESS:          0  HIT:          0  MISS:          0
cpu0_L1D WRITEBACK ACCESS:          0  HIT:          0  MISS:          0
cpu0_L2C TOTAL     ACCESS:     784254  HIT:     219629  MISS:     564625
cpu0_L2C LOAD      ACCESS:     663823  HIT:     139284  MISS:     524539
cpu0_L2C RFO       ACCESS:      46842  HIT:       7000  MISS:      39842
cpu0_L2C PREFETCH  ACCESS:          0  HIT:          0  MISS:          0
cpu0_L2C WRITEBACK ACCESS:      73368  HIT:      73226  MISS:        142
LLC TOTAL     ACCESS:     624748  HIT:     589644  MISS:      35104
LLC LOAD      ACCESS:     524539  HIT:     490186  MISS:      34353
LLC RFO       ACCESS:      39842  HIT:      39091  MISS:        751
LLC PREFETCH  ACCESS:          0  HIT:          0  MISS:          0
LLC WRITEBACK ACCESS:      60265  HIT:      60265  MISS:          0
Heartbeat CPU 0 instructions: 94000000 cycles: 37695024 heartbeat IPC: 1.60675 cumulative IPC: 1.78355 (Simulation time: 0 hr 55 min 44 sec) 

Region of Interest Statistics
cpu0_DTLB TOTAL     ACCESS:    7549388  HIT:    7472571  MISS:      76817
cpu0_DTLB LOAD      ACCESS:    6901457  HIT:    6829172  MISS:      72285
cpu0_DTLB RFO       ACCESS:     647931  HIT:     643399  MISS:       4532
cpu0_DTLB PREFETCH  ACCESS:          0  HIT:          0  MISS:          0
cpu0_DTLB WRITEBACK ACCESS:          0  HIT:          0  MISS:          0
cpu0_ITLB TOTAL     ACCESS:    4075990  HIT:    4075990  MISS:          0
cpu0_ITLB LOAD      ACCESS:    4075990  HIT:    4075990  MISS:          0
cpu0_ITLB RFO       ACCESS:          0  HIT:          0  MISS:          0
cpu0_ITLB PREFETCH  ACCESS:          0  HIT:          0  MISS:          0
cpu0_ITLB WRITEBACK ACCESS:          0  HIT:          0  MISS:          0
cpu0_L1I TOTAL     ACCESS:      63525  HIT:      63475  MISS:         50
cpu0_L1I LOAD      ACCESS:      63525  HIT:      63475  MISS:         50
cpu0_L1I RFO       ACCESS:          0  HIT:          0  MISS:          0
cpu0_L1I PREFETCH  ACCESS:          0  HIT:          0  MISS:          0
cpu0_L1I WRITEBACK ACCESS:          0  HIT:          0  MISS:          0
cpu0_STLB TOTAL     ACCESS:      76817  HIT:      49244  MISS:      27573
cpu0_STLB LOAD      ACCESS:      72285  HIT:      45310  MISS:      26975
cpu0_STLB RFO       ACCESS:       4532  HIT:       3934  MISS:        598
cpu0_STLB PREFETCH  ACCESS:          0  HIT:          0  MISS:          0
cpu0_STLB WRITEBACK ACCESS:          0  HIT:          0  MISS:          0
cpu0_L1D TOTAL     ACCESS:    6039984  HIT:    5288526  MISS:     751458
cpu0_L1D LOAD      ACCESS:    4954543  HIT:    4253611  MISS:     700932
cpu0_L1D RFO       ACCESS:    1059121  HIT:    1008835  MISS:      50286
cpu0_L1D PREFETCH  ACCESS:          0  HIT:          0  MISS:          0
cpu0_L1D WRITEBACK ACCESS:          0  HIT:          0  MISS:          0
cpu0_L2C TOTAL     ACCESS:     830059  HIT:     236171  MISS:     593888
cpu0_L2C LOAD      ACCESS:     700979  HIT:     150303  MISS:     550676
cpu0_L2C RFO       ACCESS:      50282  HIT:       7334  MISS:      42948
cpu0_L2C PREFETCH  ACCESS:          0  HIT:          0  MISS:          0
cpu0_L2C WRITEBACK ACCESS:      78558  HIT:      78404  MISS:        154
LLC TOTAL     ACCESS:     655762  HIT:     619434  MISS:      36328
LLC LOAD      ACCESS:     550676  HIT:     515129  MISS:      35547
LLC RFO       ACCESS:      42948  HIT:      42167  MISS:        781
LLC PREFETCH  ACCESS:          0  HIT:          0  MISS:          0
LLC WRITEBACK ACCESS:      62028  HIT:      62028  MISS:          0
Heartbeat CPU 0 instructions: 96000002 cycles: 38499406 heartbeat IPC: 2.48638 cumulative IPC: 1.80574 (Simulation time: 0 hr 56 min 41 sec) 

Region of Interest Statistics
cpu0_DTLB TOTAL     ACCESS:    7868189  HIT:    7790866  MISS:      77323
cpu0_DTLB LOAD      ACCESS:    7211300  HIT:    7138530  MISS:      72770
cpu0_DTLB RFO       ACCESS:     656889  HIT:     652336  MISS:       4553
cpu0_DTLB PREFETCH  ACCESS:          0  HIT:          0  MISS:          0
cpu0_DTLB WRITEBACK ACCESS:          0  HIT:          0  MISS:          0
cpu0_ITLB TOTAL     ACCESS:    4271131  HIT:    4271131  MISS:          0
cpu0_ITLB LOAD      ACCESS:    4271131  HIT:    4271131  MISS:          0
cpu0_ITLB RFO       ACCESS:          0  HIT:          0  MISS:          0
cpu0_ITLB PREFETCH  ACCESS:          0  HIT:          0  MISS:          0
cpu0_ITLB WRITEBACK ACCESS:          0  HIT:          0  MISS:          0
cpu0_L1I TOTAL     ACCESS:      63551  HIT:      63501  MISS:         50
cpu0_L1I LOAD      ACCESS:      63551  HIT:      63501  MISS:         50
cpu0_L1I RFO       ACCESS:          0  HIT:          0  MISS:          0
cpu0_L1I PREFETCH  ACCESS:          0  HIT:          0  MISS:          0
cpu0_L1I WRITEBACK ACCESS:          0  HIT:          0  MISS:          0
cpu0_STLB TOTAL     ACCESS:      77323  HIT:      49378  MISS:      27945
cpu0_STLB LOAD      ACCESS:      72770  HIT:      45424  MISS:      27346
cpu0_STLB RFO       ACCESS:       4553  HIT:       3954  MISS:        599
cpu0_STLB PREFETCH  ACCESS:          0  HIT:          0  MISS:          0
cpu0_STLB WRITEBACK ACCESS:          0  HIT:          0  MISS:          0
cpu0_L1D TOTAL     ACCESS:    6264899  HIT:    5487505  MISS:     777394
cpu0_L1D LOAD      ACCESS:    5166705  HIT:    4440788  MISS:     725917
cpu0_L1D RFO       ACCESS:    1071529  HIT:    1020293  MISS:      51236
cpu0_L1D PREFETCH  ACCESS:          0  HIT:          0  MISS:          0
cpu0_L1D WRITEBACK ACCESS:          0  HIT:          0  MISS:          0
cpu0_L2C TOTAL     ACCESS:     856977  HIT:     238548  MISS:     618429
cpu0_L2C LOAD      ACCESS:     725964  HIT:     151508  MISS:     574456
cpu0_L2C RFO       ACCESS:      51232  HIT:       7523  MISS:      43709
cpu0_L2C PREFETCH  ACCESS:          0  HIT:          0  MISS:          0
cpu0_L2C WRITEBACK ACCESS:      79540  HIT:      79386  MISS:        154
LLC TOTAL     ACCESS:     683798  HIT:     646953  MISS:      36845
LLC LOAD      ACCESS:     574456  HIT:     538396  MISS:      36060
LLC RFO       ACCESS:      43709  HIT:      42924  MISS:        785
LLC PREFETCH  ACCESS:          0  HIT:          0  MISS:          0
LLC WRITEBACK ACCESS:      65523  HIT:      65523  MISS:          0
Heartbeat CPU 0 instructions: 98000002 cycles: 39757868 heartbeat IPC: 1.58924 cumulative IPC: 1.79555 (Simulation time: 0 hr 58 min 6 sec) 

Region of Interest Statistics
cpu0_DTLB TOTAL     ACCESS:    8227861  HIT:    8144958  MISS:      82903
cpu0_DTLB LOAD      ACCESS:    7530884  HIT:    7452879  MISS:      78005
cpu0_DTLB RFO       ACCESS:     696977  HIT:     692079  MISS:       4898
cpu0_DTLB PREFETCH  ACCESS:          0  HIT:          0  MISS:          0
cpu0_DTLB WRITEBACK ACCESS:          0  HIT:          0  MISS:          0
cpu0_ITLB TOTAL     ACCESS:    4454479  HIT:    4454479  MISS:          0
cpu0_ITLB LOAD      ACCESS:    4454479  HIT:    4454479  MISS:          0
cpu0_ITLB RFO       ACCESS:          0  HIT:          0  MISS:          0
cpu0_ITLB PREFETCH  ACCESS:          0  HIT:          0  MISS:          0
cpu0_ITLB WRITEBACK ACCESS:          0  HIT:          0  MISS:          0
cpu0_L1I TOTAL     ACCESS:      67069  HIT:      67019  MISS:         50
cpu0_L1I LOAD      ACCESS:      67069  HIT:      67019  MISS:         50
cpu0_L1I RFO       ACCESS:          0  HIT:          0  MISS:          0
cpu0_L1I PREFETCH  ACCESS:          0  HIT:          0  MISS:          0
cpu0_L1I WRITEBACK ACCESS:          0  HIT:          0  MISS:          0
cpu0_STLB TOTAL     ACCESS:      82903  HIT:      52937  MISS:      29966
cpu0_STLB LOAD      ACCESS:      78005  HIT:      48688  MISS:      29317
cpu0_STLB RFO       ACCESS:       4898  HIT:       4249  MISS:        649
cpu0_STLB PREFETCH  ACCESS:          0  HIT:          0  MISS:          0
cpu0_STLB WRITEBACK ACCESS:          0  HIT:          0  MISS:          0
cpu0_L1D TOTAL     ACCESS:    6563285  HIT:    5745814  MISS:     817471
cpu0_L1D LOAD      ACCESS:    5398669  HIT:    4636150  MISS:     762519
cpu0_L1D RFO       ACCESS:    1136028  HIT:    1081337  MISS:      54691
cpu0_L1D PREFETCH  ACCESS:          0  HIT:          0  MISS:          0
cpu0_L1D WRITEBACK ACCESS:          0  HIT:          0  MISS:          0
cpu0_L2C TOTAL     ACCESS:     902288  HIT:     255240  MISS:     647048
cpu0_L2C LOAD      ACCESS:     762566  HIT:     162615  MISS:     599951
cpu0_L2C RFO       ACCESS:      54687  HIT:       7875  MISS:      46812
cpu0_L2C PREFETCH  ACCESS:          0  HIT:          0  MISS:          0
cpu0_L2C WRITEBACK ACCESS:      84774  HIT:      84608  MISS:        166
LLC TOTAL     ACCESS:     714219  HIT:     675670  MISS:      38549
LLC LOAD      ACCESS:     599951  HIT:     562229  MISS:      37722
LLC RFO       ACCESS:      46812  HIT:      45985  MISS:        827
LLC PREFETCH  ACCESS:          0  HIT:          0  MISS:          0
LLC WRITEBACK ACCESS:      67337  HIT:      67337  MISS:          0
Heartbeat CPU 0 instructions: 100000004 cycles: 40580433 heartbeat IPC: 2.43142 cumulative IPC: 1.81453 (Simulation time: 0 hr 59 min 16 sec) 

Region of Interest Statistics
cpu0_DTLB TOTAL     ACCESS:    8547043  HIT:    8463539  MISS:      83504
cpu0_DTLB LOAD      ACCESS:    7839516  HIT:    7760931  MISS:      78585
cpu0_DTLB RFO       ACCESS:     707527  HIT:     702608  MISS:       4919
cpu0_DTLB PREFETCH  ACCESS:          0  HIT:          0  MISS:          0
cpu0_DTLB WRITEBACK ACCESS:          0  HIT:          0  MISS:          0
cpu0_ITLB TOTAL     ACCESS:    4645763  HIT:    4645763  MISS:          0
cpu0_ITLB LOAD      ACCESS:    4645763  HIT:    4645763  MISS:          0
cpu0_ITLB RFO       ACCESS:          0  HIT:          0  MISS:          0
cpu0_ITLB PREFETCH  ACCESS:          0  HIT:          0  MISS:          0
cpu0_ITLB WRITEBACK ACCESS:          0  HIT:          0  MISS:          0
cpu0_L1I TOTAL     ACCESS:      67095  HIT:      67045  MISS:         50
cpu0_L1I LOAD      ACCESS:      67095  HIT:      67045  MISS:         50
cpu0_L1I RFO       ACCESS:          0  HIT:          0  MISS:          0
cpu0_L1I PREFETCH  ACCESS:          0  HIT:          0  MISS:          0
cpu0_L1I WRITEBACK ACCESS:          0  HIT:          0  MISS:          0
cpu0_STLB TOTAL     ACCESS:      83504  HIT:      53088  MISS:      30416
cpu0_STLB LOAD      ACCESS:      78585  HIT:      48819  MISS:      29766
cpu0_STLB RFO       ACCESS:       4919  HIT:       4269  MISS:        650
cpu0_STLB PREFETCH  ACCESS:          0  HIT:          0  MISS:          0
cpu0_STLB WRITEBACK ACCESS:          0  HIT:          0  MISS:          0
cpu0_L1D TOTAL     ACCESS:    6793620  HIT:    5949508  MISS:     844112
cpu0_L1D LOAD      ACCESS:    5613784  HIT:    4825605  MISS:     788179
cpu0_L1D RFO       ACCESS:    1150831  HIT:    1095162  MISS:      55669
cpu0_L1D PREFETCH  ACCESS:          0  HIT:          0  MISS:          0
cpu0_L1D WRITEBACK ACCESS:          0  HIT:          0  MISS:          0
cpu0_L2C TOTAL     ACCESS:     929934  HIT:     257140  MISS:     672794
cpu0_L2C LOAD      ACCESS:     788226  HIT:     163361  MISS:     624865
cpu0_L2C RFO       ACCESS:      55665  HIT:       8024  MISS:      47641
cpu0_L2C PREFETCH  ACCESS:          0  HIT:          0  MISS:          0
cpu0_L2C WRITEBACK ACCESS:      85779  HIT:      85612  MISS:        167
LLC TOTAL     ACCESS:     743659  HIT:     704471  MISS:      39188
LLC LOAD      ACCESS:     624865  HIT:     586509  MISS:      38356
LLC RFO       ACCESS:      47641  HIT:      46809  MISS:        832
LLC PREFETCH  ACCESS:          0  HIT:          0  MISS:          0
LLC WRITEBACK ACCESS:      71032  HIT:      71032  MISS:          0
Heartbeat CPU 0 instructions: 102000001 cycles: 41758197 heartbeat IPC: 1.69813 cumulative IPC: 1.80976 (Simulation time: 1 hr 0 min 35 sec) 

Region of Interest Statistics
cpu0_DTLB TOTAL     ACCESS:    8904887  HIT:    8815773  MISS:      89114
cpu0_DTLB LOAD      ACCESS:    8157606  HIT:    8073760  MISS:      83846
cpu0_DTLB RFO       ACCESS:     747281  HIT:     742013  MISS:       5268
cpu0_DTLB PREFETCH  ACCESS:          0  HIT:          0  MISS:          0
cpu0_DTLB WRITEBACK ACCESS:          0  HIT:          0  MISS:          0
cpu0_ITLB TOTAL     ACCESS:    4832900  HIT:    4832900  MISS:          0
cpu0_ITLB LOAD      ACCESS:    4832900  HIT:    4832900  MISS:          0
cpu0_ITLB RFO       ACCESS:          0  HIT:          0  MISS:          0
cpu0_ITLB PREFETCH  ACCESS:          0  HIT:          0  MISS:          0
cpu0_ITLB WRITEBACK ACCESS:          0  HIT:          0  MISS:          0
cpu0_L1I TOTAL     ACCESS:      70842  HIT:      70792  MISS:         50
cpu0_L1I LOAD      ACCESS:      70842  HIT:      70792  MISS:         50
cpu0_L1I RFO       ACCESS:          0  HIT:          0  MISS:          0
cpu0_L1I PREFETCH  ACCESS:          0  HIT:          0  MISS:          0
cpu0_L1I WRITEBACK ACCESS:          0  HIT:          0  MISS:          0
cpu0_STLB TOTAL     ACCESS:      89114  HIT:      56752  MISS:      32362
cpu0_STLB LOAD      ACCESS:      83846  HIT:      52185  MISS:      31661
cpu0_STLB RFO       ACCESS:       5268  HIT:       4567  MISS:        701
cpu0_STLB PREFETCH  ACCESS:          0  HIT:          0  MISS:          0
cpu0_STLB WRITEBACK ACCESS:          0  HIT:          0  MISS:          0
cpu0_L1D TOTAL     ACCESS:    7089936  HIT:    6205774  MISS:     884162
cpu0_L1D LOAD      ACCESS:    5844670  HIT:    5020066  MISS:     824604
cpu0_L1D RFO       ACCESS:    1214408  HIT:    1155136  MISS:      59272
cpu0_L1D PREFETCH  ACCESS:          0  HIT:          0  MISS:          0
cpu0_L1D WRITEBACK ACCESS:          0  HIT:          0  MISS:          0
cpu0_L2C TOTAL     ACCESS:     975850  HIT:     275717  MISS:     700133
cpu0_L2C LOAD      ACCESS:     824651  HIT:     175512  MISS:     649139
cpu0_L2C RFO       ACCESS:      59268  HIT:       8581  MISS:      50687
cpu0_L2C PREFETCH  ACCESS:          0  HIT:          0  MISS:          0
cpu0_L2C WRITEBACK ACCESS:      91645  HIT:      91467  MISS:        178
LLC TOTAL     ACCESS:     773094  HIT:     733007  MISS:      40087
LLC LOAD      ACCESS:     649138  HIT:     609898  MISS:      39240
LLC RFO       ACCESS:      50687  HIT:      49840  MISS:        847
LLC PREFETCH  ACCESS:          0  HIT:          0  MISS:          0
LLC WRITEBACK ACCESS:      73140  HIT:      73140  MISS:          0
Heartbeat CPU 0 instructions: 104000003 cycles: 42618851 heartbeat IPC: 2.32382 cumulative IPC: 1.82471 (Simulation time: 1 hr 1 min 39 sec) 

Region of Interest Statistics
cpu0_DTLB TOTAL     ACCESS:    9225572  HIT:    9135518  MISS:      90054
cpu0_DTLB LOAD      ACCESS:    8465319  HIT:    8380551  MISS:      84768
cpu0_DTLB RFO       ACCESS:     760253  HIT:     754967  MISS:       5286
cpu0_DTLB PREFETCH  ACCESS:          0  HIT:          0  MISS:          0
cpu0_DTLB WRITEBACK ACCESS:          0  HIT:          0  MISS:          0
cpu0_ITLB TOTAL     ACCESS:    5020936  HIT:    5020936  MISS:          0
cpu0_ITLB LOAD      ACCESS:    5020936  HIT:    5020936  MISS:          0
cpu0_ITLB RFO       ACCESS:          0  HIT:          0  MISS:          0
cpu0_ITLB PREFETCH  ACCESS:          0  HIT:          0  MISS:          0
cpu0_ITLB WRITEBACK ACCESS:          0  HIT:          0  MISS:          0
cpu0_L1I TOTAL     ACCESS:      70842  HIT:      70792  MISS:         50
cpu0_L1I LOAD      ACCESS:      70842  HIT:      70792  MISS:         50
cpu0_L1I RFO       ACCESS:          0  HIT:          0  MISS:          0
cpu0_L1I PREFETCH  ACCESS:          0  HIT:          0  MISS:          0
cpu0_L1I WRITEBACK ACCESS:          0  HIT:          0  MISS:          0
cpu0_STLB TOTAL     ACCESS:      90054  HIT:      57027  MISS:      33027
cpu0_STLB LOAD      ACCESS:      84768  HIT:      52445  MISS:      32323
cpu0_STLB RFO       ACCESS:       5286  HIT:       4582  MISS:        704
cpu0_STLB PREFETCH  ACCESS:          0  HIT:          0  MISS:          0
cpu0_STLB WRITEBACK ACCESS:          0  HIT:          0  MISS:          0
cpu0_L1D TOTAL     ACCESS:    7329485  HIT:    6417164  MISS:     912321
cpu0_L1D LOAD      ACCESS:    6063952  HIT:    5212075  MISS:     851877
cpu0_L1D RFO       ACCESS:    1234052  HIT:    1173896  MISS:      60156
cpu0_L1D PREFETCH  ACCESS:          0  HIT:          0  MISS:          0
cpu0_L1D WRITEBACK ACCESS:          0  HIT:          0  MISS:          0
cpu0_L2C TOTAL     ACCESS:    1004914  HIT:     277766  MISS:     727148
cpu0_L2C LOAD      ACCESS:     851924  HIT:     176657  MISS:     675267
cpu0_L2C RFO       ACCESS:      60152  HIT:       8581  MISS:      51571
cpu0_L2C PREFETCH  ACCESS:          0  HIT:          0  MISS:          0
cpu0_L2C WRITEBACK ACCESS:      92550  HIT:      92371  MISS:        179
LLC TOTAL     ACCESS:     803637  HIT:     762928  MISS:      40709
LLC LOAD      ACCESS:     675266  HIT:     635408  MISS:      39858
LLC RFO       ACCESS:      51571  HIT:      50720  MISS:        851
LLC PREFETCH  ACCESS:          0  HIT:          0  MISS:          0
LLC WRITEBACK ACCESS:      76669  HIT:      76669  MISS:          0
Heartbeat CPU 0 instructions: 106000002 cycles: 43810210 heartbeat IPC: 1.67875 cumulative IPC: 1.81906 (Simulation time: 1 hr 2 min 55 sec) 

Region of Interest Statistics
cpu0_DTLB TOTAL     ACCESS:    9624174  HIT:    9529926  MISS:      94248
cpu0_DTLB LOAD      ACCESS:    8765628  HIT:    8676891  MISS:      88737
cpu0_DTLB RFO       ACCESS:     858546  HIT:     853035  MISS:       5511
cpu0_DTLB PREFETCH  ACCESS:          0  HIT:          0  MISS:          0
cpu0_DTLB WRITEBACK ACCESS:          0  HIT:          0  MISS:          0
cpu0_ITLB TOTAL     ACCESS:    5181059  HIT:    5181059  MISS:          0
cpu0_ITLB LOAD      ACCESS:    5181059  HIT:    5181059  MISS:          0
cpu0_ITLB RFO       ACCESS:          0  HIT:          0  MISS:          0
cpu0_ITLB PREFETCH  ACCESS:          0  HIT:          0  MISS:          0
cpu0_ITLB WRITEBACK ACCESS:          0  HIT:          0  MISS:          0
cpu0_L1I TOTAL     ACCESS:      95182  HIT:      95097  MISS:         85
cpu0_L1I LOAD      ACCESS:      95182  HIT:      95097  MISS:         85
cpu0_L1I RFO       ACCESS:          0  HIT:          0  MISS:          0
cpu0_L1I PREFETCH  ACCESS:          0  HIT:          0  MISS:          0
cpu0_L1I WRITEBACK ACCESS:          0  HIT:          0  MISS:          0
cpu0_STLB TOTAL     ACCESS:      94248  HIT:      59702  MISS:      34546
cpu0_STLB LOAD      ACCESS:      88737  HIT:      54925  MISS:      33812
cpu0_STLB RFO       ACCESS:       5511  HIT:       4777  MISS:        734
cpu0_STLB PREFETCH  ACCESS:          0  HIT:          0  MISS:          0
cpu0_STLB WRITEBACK ACCESS:          0  HIT:          0  MISS:          0
cpu0_L1D TOTAL     ACCESS:    7776125  HIT:    6839930  MISS:     936195
cpu0_L1D LOAD      ACCESS:    6322036  HIT:    5448163  MISS:     873873
cpu0_L1D RFO       ACCESS:    1421167  HIT:    1359152  MISS:      62015
cpu0_L1D PREFETCH  ACCESS:          0  HIT:          0  MISS:          0
cpu0_L1D WRITEBACK ACCESS:          0  HIT:          0  MISS:          0
cpu0_L2C TOTAL     ACCESS:    1032340  HIT:     290492  MISS:     741848
cpu0_L2C LOAD      ACCESS:     873955  HIT:     185327  MISS:     688628
cpu0_L2C RFO       ACCESS:      62011  HIT:       9119  MISS:      52892
cpu0_L2C PREFETCH  ACCESS:          0  HIT:          0  MISS:          0
cpu0_L2C WRITEBACK ACCESS:      96067  HIT:      95878  MISS:        189
[...]
cpu0_DTLB PREFETCH  ACCESS:          0  HIT:          0  MISS:          0
cpu0_DTLB WRITEBACK ACCESS:          0  HIT:          0  MISS:          0
cpu0_DTLB TRANSLATION ACCESS:          0  HIT:          0  MISS:          0
cpu0_DTLB PREFETCH  REQUESTED:          0  ISSUED:          0  USEFUL:          0  USELESS:          0
cpu0_DTLB AVERAGE MISS LATENCY: 12.1394 cycles
cpu0_ITLB TOTAL     ACCESS:  138973762  HIT:  138973735  MISS:         27
cpu0_ITLB LOAD      ACCESS:  138973762  HIT:  138973735  MISS:         27
cpu0_ITLB RFO       ACCESS:          0  HIT:          0  MISS:          0
cpu0_ITLB PREFETCH  ACCESS:          0  HIT:          0  MISS:          0
cpu0_ITLB WRITEBACK ACCESS:          0  HIT:          0  MISS:          0
cpu0_ITLB TRANSLATION ACCESS:          0  HIT:          0  MISS:          0
cpu0_ITLB PREFETCH  REQUESTED:          0  ISSUED:          0  USEFUL:          0  USELESS:          0
cpu0_ITLB AVERAGE MISS LATENCY: 173.778 cycles
cpu0_L1I TOTAL     ACCESS:    1924883  HIT:    1922871  MISS:       2012
cpu0_L1I LOAD      ACCESS:    1924883  HIT:    1922871  MISS:       2012
cpu0_L1I RFO       ACCESS:          0  HIT:          0  MISS:          0
cpu0_L1I PREFETCH  ACCESS:          0  HIT:          0  MISS:          0
cpu0_L1I WRITEBACK ACCESS:          0  HIT:          0  MISS:          0
cpu0_L1I TRANSLATION ACCESS:          0  HIT:          0  MISS:          0
cpu0_L1I PREFETCH  REQUESTED:          0  ISSUED:          0  USEFUL:          0  USELESS:          0
cpu0_L1I AVERAGE MISS LATENCY: 84.6208 cycles
cpu0_STLB TOTAL     ACCESS:    2121793  HIT:    1344245  MISS:     777548
cpu0_STLB LOAD      ACCESS:    1986491  HIT:    1228459  MISS:     758032
cpu0_STLB RFO       ACCESS:     135302  HIT:     115786  MISS:      19516
cpu0_STLB PREFETCH  ACCESS:          0  HIT:          0  MISS:          0
cpu0_STLB WRITEBACK ACCESS:          0  HIT:          0  MISS:          0
cpu0_STLB TRANSLATION ACCESS:          0  HIT:          0  MISS:          0
cpu0_STLB PREFETCH  REQUESTED:          0  ISSUED:          0  USEFUL:          0  USELESS:          0
cpu0_STLB AVERAGE MISS LATENCY: 8.50047 cycles
cpu0_L1D TOTAL     ACCESS:  197663693  HIT:  173840339  MISS:   23823354
cpu0_L1D LOAD      ACCESS:  167106213  HIT:  144988202  MISS:   22118011
cpu0_L1D RFO       ACCESS:   29822102  HIT:   28123680  MISS:    1698422
cpu0_L1D PREFETCH  ACCESS:          0  HIT:          0  MISS:          0
cpu0_L1D WRITEBACK ACCESS:          0  HIT:          0  MISS:          0
cpu0_L1D TRANSLATION ACCESS:     735378  HIT:     728457  MISS:       6921
cpu0_L1D PREFETCH  REQUESTED:          0  ISSUED:          0  USEFUL:          0  USELESS:          0
cpu0_L1D AVERAGE MISS LATENCY: 31.8878 cycles
cpu0_L2C TOTAL     ACCESS:   26231819  HIT:    6596706  MISS:   19635113
cpu0_L2C LOAD      ACCESS:   22119864  HIT:    3993250  MISS:   18126614
cpu0_L2C RFO       ACCESS:    1698219  HIT:     197582  MISS:    1500637
cpu0_L2C PREFETCH  ACCESS:          0  HIT:          0  MISS:          0
cpu0_L2C WRITEBACK ACCESS:    2406815  HIT:    2402169  MISS:       4646
cpu0_L2C TRANSLATION ACCESS:       6921  HIT:       3705  MISS:       3216
cpu0_L2C PREFETCH  REQUESTED:          0  ISSUED:          0  USEFUL:          0  USELESS:          0
cpu0_L2C AVERAGE MISS LATENCY: 25.313 cycles
LLC TOTAL     ACCESS:   21709652  HIT:   21169384  MISS:     540268
LLC LOAD      ACCESS:   18126579  HIT:   17608072  MISS:     518507
LLC RFO       ACCESS:    1500637  HIT:    1478876  MISS:      21761
LLC PREFETCH  ACCESS:          0  HIT:          0  MISS:          0
LLC WRITEBACK ACCESS:    2079220  HIT:    2079220  MISS:          0
LLC TRANSLATION ACCESS:       3216  HIT:       3216  MISS:          0
LLC PREFETCH  REQUESTED:          0  ISSUED:          0  USEFUL:          0  USELESS:          0
LLC AVERAGE MISS LATENCY: 156.922 cycles
~~~~~~~~~~Reuse Distance Profiler output~~~~~~~~~~
0	27655504	14130128
1	24633424	22059264
2	23636528	21947248
3	19069328	17950128
4	15187312	14425728
5	9503056	8837072
6	8215744	7671952
7	5218224	4608112
8	3246096	3006224
9	2141824	1938224
10	1992080	1822976
11	1079952	887360
12	1256304	897184
13	643792	553168
14	580192	500864
15	528416	386256
16	616928	518976
17	466944	393776
18	538096	454896
19	344384	247840
20	534928	343856
21	481568	417504
22	362640	290096
23	576640	498992
24	403168	228848
25	527552	400768
26	420960	345104
27	623536	557488
28	546944	478896
29	855536	698672
30	674144	403648
31	903200	704464
32	758656	630608
33	1035808	758448
34	651952	563232
35	1009360	809024
36	1042576	855536
37	1271024	959072
38	903232	831104
39	601040	541456
40	731488	584960
41	587232	517536
42	683856	551216
43	466368	381728
44	348912	305696
45	329520	291312
46	312896	282080
47	316608	283344
48	278624	249344
49	265056	220384
50	226096	193856
51	196880	167264
52	175344	152704
53	157920	137760
54	148368	128176
55	165424	143312
56	186944	163200
57	181776	161616
58	171760	152192
59	152672	136160
60	130768	116272
61	117984	102448
62	117808	86944
63	146784	82608
64	310048	260656
66	237024	188800
68	275504	223920
70	336960	298064
72	245056	223104
74	249296	228736
76	224864	206240
78	216576	202208
80	235808	221472
82	224560	208544
84	253200	236896
86	256704	238896
88	255648	230368
90	217744	202272
92	193728	182896
94	181744	172064
96	176864	166624
98	176096	167520
100	165568	156576
102	170064	155536
104	161760	145760
106	151744	134656
108	136464	108016
110	129616	105472
112	116864	97104
114	104864	86144
116	101024	83568
118	91440	75552
120	87328	74064
122	78560	65456
124	74720	62288
126	124192	63632
128	221216	196736
132	191792	164768
136	267632	236912
140	373440	334160
144	456544	413024
148	471744	429920
152	398576	366160
156	307936	280080
160	219920	198912
164	163232	147840
168	144528	132464
172	131248	120480
176	116464	105040
180	111376	100368
184	121472	106928
188	136672	120784
192	160288	141808
196	170688	151168
200	161648	144080
204	137680	122912
208	110128	99088
212	103056	93072
216	91744	81776
220	81024	72368
224	75936	68096
228	69024	61584
232	61520	53856
236	62640	55008
240	65472	54944
244	75344	57280
248	83648	64256
252	93952	65744
256	189664	147632
264	102608	84848
272	68240	59040
280	62112	53648
288	64448	56176
296	78944	69344
304	81248	70672
312	69152	60208
320	55328	46384
328	48320	42448
336	49536	42512
344	50160	44336
352	49760	43728
360	49712	43904
368	42352	37008
376	37712	32496
384	39504	34928
392	48528	42208
400	63536	54240
408	78400	64240
416	84080	67632
424	73424	58144
432	59136	46256
440	47472	36656
448	42400	34288
456	35152	29792
464	36032	31040
472	32704	26048
480	32272	23760
488	31920	22816
496	28672	21168
504	25360	20032
512	51744	39952
528	47536	36784
544	48800	37664
560	48928	37680
576	45104	34432
592	46800	36992
608	43056	35728
624	41280	29408
640	38624	32400
656	35904	29888
672	32176	26784
688	29072	23504
704	30272	25760
720	31264	27184
736	27840	24432
752	27088	23440
768	27904	24000
784	30000	25968
800	29760	25952
816	35344	30336
832	35744	28992
848	28432	24352
864	27072	23824
880	32464	27904
896	28048	24624
912	24208	21248
928	25680	22016
944	25104	20576
960	22176	19040
976	22384	19088
992	23360	19984
1008	21648	19008
1024	46000	38800
1056	46144	39456
1088	41136	36448
1120	41472	36784
1152	40864	34720
1184	37456	32496
1216	35504	30448
1248	34128	29472
1280	34224	30432
1312	34400	30208
1344	33392	29536
1376	34384	30016
1408	31184	27888
1440	29696	26384
1472	28576	25200
1504	27584	24832
1536	26592	24432
1568	31968	29344
1600	30816	29216
1632	24752	23200
1664	24576	23040
1696	26944	25408
1728	26016	24880
1760	24624	23104
1792	28128	26528
1824	25104	23520
1856	24384	22944
1888	25616	24512
1920	25232	23776
1952	26896	25120
1984	28016	25728
2016	26032	24256
2048	53232	50288
2112	54672	52624
2176	45952	43840
2240	47152	45056
2304	48688	46240
2368	43968	40768
2432	44336	41760
2496	42160	38624
2560	43408	38720
2624	51648	39232
2688	50768	37296
2752	38480	33440
2816	37728	34928
2880	37152	34768
2944	37680	34864
3008	35152	32688
3072	37312	35392
3136	36576	34992
3200	32592	31344
3264	33232	32048
3328	30976	29968
3392	31664	31248
3456	31088	30736
3520	30464	30160
3584	31328	31088
3648	30816	30544
3712	30768	30576
3776	27952	27696
3840	30400	30160
3904	29456	29216
3968	28256	27936
4032	26640	26416
4096	56736	56000
4224	54032	52784
4352	55872	55216
4480	52992	52272
4608	54496	53392
4736	54512	53616
4864	51792	51296
4992	54432	54016
5120	49920	49088
5248	53184	52160
5376	50272	48896
5504	49104	48032
5632	51024	49920
5760	50976	50112
5888	50752	50272
6016	45952	45280
6144	46896	45872
6272	43296	42400
6400	41632	40688
6528	42032	41136
6656	41472	40448
6784	40496	39536
6912	40352	39312
7040	37232	36320
7168	37920	37168
7296	36032	35312
7424	36992	36352
7552	38416	36672
7680	38112	36080
7808	39360	38032
7936	40768	35712
8064	43344	35168
8192	73184	69840
8448	70400	65904
8704	72400	65056
8960	69984	64688
9216	63360	61984
9472	63616	61728
9728	61040	59488
9984	59424	56848
10240	55632	53536
10496	56768	53728
10752	68768	52592
11008	59280	51872
11264	51456	49776
11520	50592	47632
11776	54784	48400
12032	52304	46944
12288	46592	44496
12544	47248	45504
12800	45296	44176
13056	48096	45584
13312	48144	41600
13568	43056	41520
13824	40880	39728
14080	43824	42640
14336	45440	43936
14592	41504	40112
14848	38656	37792
15104	38144	37168
15360	38912	37584
15616	37712	36896
15872	36352	35616
16128	36032	34992
16384	69824	66944
16896	71776	68464
17408	83264	65472
17920	69744	62672
18432	78512	58896
18944	73280	62592
19456	61136	55584
19968	62832	57728
20480	89280	83408
20992	78736	71296
21504	39344	36496
22016	35776	33008
22528	30384	29088
23040	24688	23632
23552	24576	23872
24064	24336	23840
24576	20368	20048
25088	18576	18144
25600	18336	18016
26112	16832	16544
26624	17136	16784
27136	15760	15424
27648	15344	15104
28160	14320	14096
28672	13232	13056
29184	13744	13568
29696	12832	12624
30208	10624	10496
30720	11232	11120
31232	10736	10624
31744	9280	9232
32256	10608	10464
32768	18560	18448
33792	15808	15600
34816	15808	15584
35840	15168	15072
36864	13728	13488
37888	12224	12176
38912	12672	12528
39936	12944	12768
40960	14320	14096
41984	11376	11200
43008	10112	10000
44032	8640	8512
45056	8208	8048
46080	7744	7584
47104	7696	7648
48128	8464	8288
49152	7760	7376
50176	5536	5456
51200	5040	5040
52224	5568	5536
53248	5920	5920
54272	5376	5376
55296	4688	4688
56320	4848	4848
57344	4336	4336
58368	6368	6304
59392	7936	7664
60416	10864	10416
61440	16944	16640
62464	20896	20592
63488	22272	22144
64512	22592	22432
65536	46928	46832
67584	42432	42416
69632	31280	31280
71680	29104	29088
73728	16128	16080
75776	16800	16784
77824	16992	16704
79872	17136	16496
81920	17616	15904
83968	18064	15552
86016	20352	14704
88064	24784	16432
90112	24464	15616
92160	23088	13856
94208	23056	14016
96256	24096	13328
98304	21184	11728
100352	20640	11680
102400	20528	10640
104448	21184	11424
106496	17296	9584
108544	14848	9200
110592	12880	8864
112640	12224	8592
114688	10912	8000
116736	10256	7040
118784	10432	7344
120832	10624	7856
122880	10064	7344
124928	9696	7552
126976	9424	7472
129024	8640	6784
131072	17856	14368
135168	16224	11536
139264	15952	11808
143360	16480	12816
147456	15376	11184
151552	14640	10384
155648	15680	11136
159744	14160	9280
163840	14736	9872
167936	15424	11152
172032	15488	9952
176128	14688	8880
180224	15056	10016
184320	14928	9728
188416	15200	9712
192512	13568	7808
196608	13024	7696
200704	11776	6240
204800	12016	7040
208896	14448	8976
212992	16976	10912
217088	12752	6576
221184	11168	5952
225280	10736	5328
229376	10912	5472
233472	14048	8112
237568	19200	13472
241664	15984	10608
245760	12944	7456
249856	11984	6704
253952	11872	6496
258048	11136	5856
262144	24624	14208
270336	25824	14992
278528	25536	14656
286720	27200	15952
294912	25904	14464
303104	22752	11280
311296	24240	11024
319488	29504	16352
327680	27536	13536
335872	29936	17408
344064	37328	22576
352256	37664	23328
360448	128992	116224
368640	73152	63024
376832	61424	52784
385024	104112	96000
393216	34864	28160
401408	80544	61792
409600	81568	39504
417792	532304	475168
425984	1053872	1004448
434176	839552	791792
442368	475872	414752
450560	1010544	943072
458752	1171712	1109472
466944	925552	874656
475136	1005440	961680
483328	693232	641008
491520	693984	634608
499712	1198656	1140928
507904	925952	886032
516096	842352	809920
524288	1161360	1094032
540672	1167808	1127200
557056	526960	497632
573440	491344	468272
589824	407824	390032
606208	209040	192256
622592	269808	264912
638976	9280	7728
655360	8880	5424
671744	90944	84608
688128	44992	37248
704512	237488	225440
720896	101792	94928
737280	98960	88560
753664	213264	195392
770048	253584	240176
786432	124336	118704
802816	245104	238352
819200	70624	69184
835584	7104	6960
851968	9968	9056
868352	8480	7200
884736	17872	15296
901120	79648	77520
917504	23536	18656
933888	19456	14496
950272	102976	99840
966656	132096	130336
983040	48384	47968
999424	9088	9072
1015808	5872	5872
1032192	6960	6928
1048576	10416	10384
1081344	9104	7552
1114112	42832	41568
1146880	9584	9584
1179648	6272	6272
1212416	4000	3984
1245184	5232	5200
1277952	6480	6480
1310720	4224	4224
1343488	6000	5984
1376256	5936	5920
1409024	4720	4720
1441792	3856	3808
1474560	5216	5184
1507328	5824	5792
1540096	6208	6112
1572864	6320	6272
1605632	6256	6256
1638400	5712	5680
1671168	3872	3856
1703936	4336	4240
1736704	3952	3936
1769472	4512	4480
1802240	4160	4128
1835008	3616	3616
1867776	4048	4048
1900544	3728	3696
1933312	2992	2992
1966080	2160	2160
1998848	3472	3472
2031616	4064	4064
2064384	8704	8704
2097152	9152	9152
2162688	5104	5072
2228224	5424	5360
2293760	6192	6160
2359296	4576	4528
2424832	5696	5664
2490368	3328	3296
2555904	8400	8320
2621440	4928	4864
2686976	4208	4112
2752512	5248	5200
2818048	3984	3968
2883584	5232	5168
2949120	2912	2896
3014656	3168	3104
3080192	5152	5136
3145728	4736	4672
3211264	2992	2768
3276800	4832	4624
3342336	4624	4608
3407872	3728	3632
3473408	3120	3008
3538944	3680	3584
3604480	3936	3888
3670016	3520	3440
3735552	2768	2704
3801088	4224	4176
3866624	3456	3360
3932160	1856	1824
3997696	3056	2944
4063232	4544	4480
4128768	2256	2240
4194304	6064	5984
4325376	6576	6496
4456448	4080	4064
4587520	6000	5600
4718592	5296	5232
4849664	6752	6304
4980736	2848	2672
5111808	5168	4864
5242880	4080	3872
5373952	5344	4848
5505024	5104	3824
5636096	8016	6016
5767168	6000	4240
5898240	5920	4224
6029312	7088	5264
6160384	5136	3168
6291456	5808	4304
6422528	4944	3824
6553600	5056	3488
6684672	5536	3328
6815744	4144	3312
6946816	3328	2704
7077888	1920	1600
7208960	1680	1632
7340032	2224	1952
7471104	3296	2944
7602176	1696	1488
7733248	1264	1088
7864320	1792	1792
7995392	2320	2304
8126464	1360	1344
8257536	1712	1712
8388608	3856	3808
8650752	3344	3344
8912896	3392	3296
9175040	3152	3136
9437184	4992	4944
9699328	2896	2880
9961472	4224	4208
10223616	3136	3088
10485760	3616	3568
10747904	3184	3136
11010048	4880	4816
11272192	4640	4080
11534336	5280	4976
11796480	3312	3216
12058624	4752	4736
12320768	2656	2624
12582912	3840	3808
12845056	2928	2896
13107200	2912	2896
13369344	3664	3632
13631488	2176	2176
13893632	2928	2736
14155776	2448	2448
14417920	3136	3120
14680064	2128	2112
14942208	2768	2752
15204352	2032	2016
15466496	2464	2464
15728640	2384	2336
15990784	2128	2096
16252928	1840	1840
16515072	2512	2496
16777216	3920	3856
17301504	4032	4032
17825792	4672	4592
18350080	4160	4144
18874368	4032	3984
19398656	3568	3568
19922944	2928	2928
20447232	4144	4144
20971520	4160	4160
21495808	2160	2096
22020096	3216	3216
22544384	3008	2928
23068672	2000	2000
23592960	2480	2480
24117248	3536	3472
24641536	2960	2944
25165824	2944	2928
25690112	2944	2944
26214400	3376	3360
26738688	2368	2368
27262976	1296	1280
27787264	1648	1648
28311552	2048	2048
28835840	1856	1840
29360128	1968	1952
29884416	1520	1520
30408704	1088	1072
30932992	1184	1184
31457280	1568	1552
31981568	1328	1328
32505856	912	912
33030144	960	960
33554432	2016	2016
34603008	1664	1664
35651584	1904	1904
36700160	1392	1392
37748736	2512	2480
38797312	1984	1968
39845888	1728	1664
40894464	1824	1808
41943040	2544	2528
42991616	1472	1456
44040192	736	720
45088768	800	800
46137344	1136	1136
47185920	1632	1616
48234496	1312	1296
49283072	1104	1088
50331648	896	896
51380224	1104	1072
52428800	896	880
53477376	480	480
54525952	336	336
55574528	624	608
56623104	576	576
57671680	464	464
58720256	384	368
59768832	240	208
60817408	336	304
61865984	400	384
62914560	720	704
63963136	432	400
65011712	336	336
66060288	288	288
67108864	480	464
69206016	528	528
71303168	480	448
73400320	1296	1264
75497472	896	864
77594624	288	272
79691776	288	256
81788928	400	384
83886080	288	256
85983232	576	560
88080384	1232	1200
90177536	480	464
92274688	224	208
94371840	496	480
96468992	400	400
98566144	384	368
100663296	416	384
102760448	240	208
104857600	352	320
106954752	736	736
109051904	368	352
111149056	384	368
113246208	768	736
115343360	640	624
117440512	304	272
119537664	240	224
121634816	320	288
123731968	112	96
125829120	64	16
127926272	208	176
130023424	144	128
132120576	256	240
134217728	3024	3008
138412032	1152	1136
142606336	880	864
146800640	32	16
150994944	80	80
155189248	144	144
159383552	16	16
163577856	64	64
167772160	32	32
171966464	128	112
176160768	48	48
180355072	256	240
184549376	176	176
188743680	96	96
192937984	16	16
197132288	16	16
201326592	0	0
205520896	0	0
209715200	0	0
213909504	0	0
218103808	0	0
222298112	0	0
226492416	0	0
230686720	0	0
234881024	0	0
239075328	0	0
243269632	0	0
247463936	0	0
251658240	0	0
255852544	0	0
260046848	0	0
264241152	0	0
268435456	0	0
276824064	0	0
285212672	0	0
293601280	0	0
301989888	0	0
310378496	0	0
318767104	0	0
327155712	0	0
335544320	0	0
343932928	0	0
352321536	0	0
360710144	0	0
369098752	0	0
377487360	0	0
385875968	0	0
394264576	0	0
402653184	0	0
411041792	0	0
419430400	0	0
427819008	0	0
436207616	0	0
444596224	0	0
452984832	0	0
461373440	0	0
469762048	0	0
478150656	0	0
486539264	0	0
494927872	0	0
503316480	0	0
511705088	0	0
520093696	0	0
528482304	0	0
536870912	0	0
553648128	0	0
570425344	0	0
587202560	0	0
603979776	0	0
620756992	0	0
637534208	0	0
654311424	0	0
671088640	0	0
687865856	0	0
704643072	0	0
721420288	0	0
738197504	0	0
754974720	0	0
771751936	0	0
788529152	0	0
805306368	0	0
822083584	0	0
838860800	0	0
855638016	0	0
872415232	0	0
889192448	0	0
905969664	0	0
922746880	0	0
939524096	0	0
956301312	0	0
973078528	0	0
989855744	0	0
1006632960	0	0
1023410176	0	0
1040187392	0	0
1056964608	0	0
1073741824	0	0
1107296256	0	0
1140850688	0	0
1174405120	0	0
1207959552	0	0
1241513984	0	0
1275068416	0	0
1308622848	0	0
1342177280	0	0
1375731712	0	0
1409286144	0	0
1442840576	0	0
1476395008	0	0
1509949440	0	0
1543503872	0	0
1577058304	0	0
1610612736	0	0
1644167168	0	0
1677721600	0	0
1711276032	0	0
1744830464	0	0
1778384896	0	0
1811939328	0	0
1845493760	0	0
1879048192	0	0
1912602624	0	0
1946157056	0	0
1979711488	0	0
2013265920	0	0
2046820352	0	0
2080374784	0	0
2113929216	0	0
2147483648	0	0
2214592512	0	0
2281701376	0	0
2348810240	0	0
2415919104	0	0
2483027968	0	0
2550136832	0	0
2617245696	0	0
2684354560	0	0
2751463424	0	0
2818572288	0	0
2885681152	0	0
2952790016	0	0
3019898880	0	0
3087007744	0	0
3154116608	0	0
3221225472	0	0
3288334336	0	0
3355443200	0	0
3422552064	0	0
3489660928	0	0
3556769792	0	0
3623878656	0	0
3690987520	0	0
3758096384	0	0
3825205248	0	0
3892314112	0	0
3959422976	0	0
4026531840	0	0
4093640704	0	0
4160749568	0	0
4227858432	0	0
~~~~~~~~~~Reuse Distance Profiler output end~~~~~~~~~~

Sampler size:8454

DRAM Statistics
 CHANNEL 0
 RQ ROW_BUFFER_HIT:     127242  ROW_BUFFER_MISS:     413018
 DBUS AVG_CONGESTED_CYCLE:    3.70641
 WQ ROW_BUFFER_HIT:       6659  ROW_BUFFER_MISS:      26898  FULL:          0


CPU 0 Branch Prediction Accuracy: 92.5696% MPKI: 6.87149 Average ROB Occupancy at Mispredict: 157.797
Branch type MPKI
BRANCH_DIRECT_JUMP: 4.93333e-05
BRANCH_INDIRECT: 5.26667e-05
BRANCH_CONDITIONAL: 6.8712
BRANCH_DIRECT_CALL: 7.26667e-05
BRANCH_INDIRECT_CALL: 5.06667e-05
BRANCH_RETURN: 6.8e-05

