
*** ChampSim Multicore Out-of-Order Simulator ***

Warmup Instructions: 50000000
Simulation Instructions: 1500000000
Number of CPUs: 1
Off-chip DRAM Size: 4 GiB Channels: 1 Width: 64-bit Data Rate: 3200 MT/s

VirtualMemory physical capacity: 8588881920 num_ppages: 2096895
VirtualMemory page size: 4096 log2_page_size: 12

CPU 0 runs /s/traces/champsim_traces/482.sphinx3-1297B.champsimtrace.xz
CPU 0 Bimodal branch predictor
Basic BTB sets: 1024 ways: 8 indirect buffer size: 4096 RAS size: 64
Initializing LRU.
Initializing LRU.
Initializing LRU.
Initializing LRU.
Initializing rdLRU.
Initializing LRU.
Initializing LRU.
Heartbeat CPU 0 instructions: 2000003 cycles: 531110 heartbeat IPC: 3.7657 cumulative IPC: 3.7657 (Simulation time: 0 hr 1 min 3 sec) 
Heartbeat CPU 0 instructions: 4000003 cycles: 1031680 heartbeat IPC: 3.99545 cumulative IPC: 3.87717 (Simulation time: 0 hr 2 min 0 sec) 
Heartbeat CPU 0 instructions: 6000001 cycles: 1582439 heartbeat IPC: 3.63135 cumulative IPC: 3.79162 (Simulation time: 0 hr 3 min 7 sec) 
Heartbeat CPU 0 instructions: 8000002 cycles: 2103951 heartbeat IPC: 3.835 cumulative IPC: 3.80237 (Simulation time: 0 hr 4 min 8 sec) 
Heartbeat CPU 0 instructions: 10000003 cycles: 2635142 heartbeat IPC: 3.76513 cumulative IPC: 3.79486 (Simulation time: 0 hr 5 min 14 sec) 
Heartbeat CPU 0 instructions: 12000004 cycles: 3136086 heartbeat IPC: 3.99246 cumulative IPC: 3.82643 (Simulation time: 0 hr 6 min 12 sec) 
Heartbeat CPU 0 instructions: 14000003 cycles: 3666068 heartbeat IPC: 3.77371 cumulative IPC: 3.81881 (Simulation time: 0 hr 7 min 16 sec) 
Heartbeat CPU 0 instructions: 16000002 cycles: 4175388 heartbeat IPC: 3.9268 cumulative IPC: 3.83198 (Simulation time: 0 hr 8 min 16 sec) 
Heartbeat CPU 0 instructions: 18000001 cycles: 4696994 heartbeat IPC: 3.83431 cumulative IPC: 3.83224 (Simulation time: 0 hr 9 min 17 sec) 
Heartbeat CPU 0 instructions: 20000002 cycles: 5227196 heartbeat IPC: 3.77215 cumulative IPC: 3.82614 (Simulation time: 0 hr 10 min 16 sec) 
Heartbeat CPU 0 instructions: 22000003 cycles: 5729122 heartbeat IPC: 3.98465 cumulative IPC: 3.84003 (Simulation time: 0 hr 11 min 8 sec) 
Heartbeat CPU 0 instructions: 24000001 cycles: 6267345 heartbeat IPC: 3.71593 cumulative IPC: 3.82937 (Simulation time: 0 hr 12 min 18 sec) 
Heartbeat CPU 0 instructions: 26000002 cycles: 6768831 heartbeat IPC: 3.98815 cumulative IPC: 3.84114 (Simulation time: 0 hr 13 min 18 sec) 
Heartbeat CPU 0 instructions: 28000000 cycles: 7309169 heartbeat IPC: 3.70138 cumulative IPC: 3.8308 (Simulation time: 0 hr 14 min 25 sec) 
Heartbeat CPU 0 instructions: 30000003 cycles: 7810597 heartbeat IPC: 3.98861 cumulative IPC: 3.84094 (Simulation time: 0 hr 15 min 23 sec) 
Heartbeat CPU 0 instructions: 32000000 cycles: 8351605 heartbeat IPC: 3.6968 cumulative IPC: 3.8316 (Simulation time: 0 hr 16 min 34 sec) 
Heartbeat CPU 0 instructions: 34000001 cycles: 8852852 heartbeat IPC: 3.99005 cumulative IPC: 3.84057 (Simulation time: 0 hr 17 min 33 sec) 
Heartbeat CPU 0 instructions: 36000000 cycles: 9396383 heartbeat IPC: 3.67964 cumulative IPC: 3.83126 (Simulation time: 0 hr 18 min 45 sec) 
Heartbeat CPU 0 instructions: 38000003 cycles: 9897336 heartbeat IPC: 3.9924 cumulative IPC: 3.83942 (Simulation time: 0 hr 19 min 44 sec) 
Heartbeat CPU 0 instructions: 40000001 cycles: 10439837 heartbeat IPC: 3.68663 cumulative IPC: 3.83148 (Simulation time: 0 hr 20 min 55 sec) 
Heartbeat CPU 0 instructions: 42000002 cycles: 10940612 heartbeat IPC: 3.99381 cumulative IPC: 3.83891 (Simulation time: 0 hr 21 min 53 sec) 
Heartbeat CPU 0 instructions: 44000001 cycles: 11482136 heartbeat IPC: 3.69328 cumulative IPC: 3.83204 (Simulation time: 0 hr 23 min 3 sec) 
Heartbeat CPU 0 instructions: 46000000 cycles: 11982798 heartbeat IPC: 3.99471 cumulative IPC: 3.83884 (Simulation time: 0 hr 23 min 58 sec) 
Heartbeat CPU 0 instructions: 48000001 cycles: 12520617 heartbeat IPC: 3.71872 cumulative IPC: 3.83368 (Simulation time: 0 hr 25 min 7 sec) 
Heartbeat CPU 0 instructions: 50000000 cycles: 13025116 heartbeat IPC: 3.96433 cumulative IPC: 3.83874 (Simulation time: 0 hr 26 min 2 sec) 

Warmup complete CPU 0 instructions: 50000004 cycles: 13025117 (Simulation time: 0 hr 26 min 2 sec) 

Heartbeat CPU 0 instructions: 52000000 cycles: 16468053 heartbeat IPC: 0.580899 cumulative IPC: 0.580898 (Simulation time: 0 hr 28 min 40 sec) 

Region of Interest Statistics
cpu0_DTLB TOTAL     ACCESS:     368327  HIT:     361805  MISS:       6522
cpu0_DTLB LOAD      ACCESS:     326022  HIT:     319924  MISS:       6098
cpu0_DTLB RFO       ACCESS:      42305  HIT:      41881  MISS:        424
cpu0_DTLB PREFETCH  ACCESS:          0  HIT:          0  MISS:          0
cpu0_DTLB WRITEBACK ACCESS:          0  HIT:          0  MISS:          0
cpu0_ITLB TOTAL     ACCESS:     162481  HIT:     162481  MISS:          0
cpu0_ITLB LOAD      ACCESS:     162481  HIT:     162481  MISS:          0
cpu0_ITLB RFO       ACCESS:          0  HIT:          0  MISS:          0
cpu0_ITLB PREFETCH  ACCESS:          0  HIT:          0  MISS:          0
cpu0_ITLB WRITEBACK ACCESS:          0  HIT:          0  MISS:          0
cpu0_L1I TOTAL     ACCESS:       3689  HIT:       3689  MISS:          0
cpu0_L1I LOAD      ACCESS:       3689  HIT:       3689  MISS:          0
cpu0_L1I RFO       ACCESS:          0  HIT:          0  MISS:          0
cpu0_L1I PREFETCH  ACCESS:          0  HIT:          0  MISS:          0
cpu0_L1I WRITEBACK ACCESS:          0  HIT:          0  MISS:          0
cpu0_STLB TOTAL     ACCESS:       6522  HIT:       4470  MISS:       2052
cpu0_STLB LOAD      ACCESS:       6098  HIT:       4097  MISS:       2001
cpu0_STLB RFO       ACCESS:        424  HIT:        373  MISS:         51
cpu0_STLB PREFETCH  ACCESS:          0  HIT:          0  MISS:          0
cpu0_STLB WRITEBACK ACCESS:          0  HIT:          0  MISS:          0
cpu0_L1D TOTAL     ACCESS:     287506  HIT:     244628  MISS:      42878
cpu0_L1D LOAD      ACCESS:     220565  HIT:     181197  MISS:      39368
cpu0_L1D RFO       ACCESS:      64982  HIT:      61489  MISS:       3493
cpu0_L1D PREFETCH  ACCESS:          0  HIT:          0  MISS:          0
cpu0_L1D WRITEBACK ACCESS:          0  HIT:          0  MISS:          0
cpu0_L2C TOTAL     ACCESS:      48866  HIT:      17804  MISS:      31062
cpu0_L2C LOAD      ACCESS:      39368  HIT:      11484  MISS:      27884
cpu0_L2C RFO       ACCESS:       3493  HIT:        337  MISS:       3156
cpu0_L2C PREFETCH  ACCESS:          0  HIT:          0  MISS:          0
cpu0_L2C WRITEBACK ACCESS:       5988  HIT:       5974  MISS:         14
LLC TOTAL     ACCESS:      33549  HIT:       2995  MISS:      30554
LLC LOAD      ACCESS:      27884  HIT:        710  MISS:      27174
LLC RFO       ACCESS:       3156  HIT:        102  MISS:       3054
LLC PREFETCH  ACCESS:          0  HIT:          0  MISS:          0
LLC WRITEBACK ACCESS:       2501  HIT:       2183  MISS:        318
Heartbeat CPU 0 instructions: 54000000 cycles: 18790665 heartbeat IPC: 0.861099 cumulative IPC: 0.693776 (Simulation time: 0 hr 30 min 46 sec) 

Region of Interest Statistics
cpu0_DTLB TOTAL     ACCESS:     696933  HIT:     689880  MISS:       7053
cpu0_DTLB LOAD      ACCESS:     643012  HIT:     636405  MISS:       6607
cpu0_DTLB RFO       ACCESS:      53921  HIT:      53475  MISS:        446
cpu0_DTLB PREFETCH  ACCESS:          0  HIT:          0  MISS:          0
cpu0_DTLB WRITEBACK ACCESS:          0  HIT:          0  MISS:          0
cpu0_ITLB TOTAL     ACCESS:     355938  HIT:     355938  MISS:          0
cpu0_ITLB LOAD      ACCESS:     355938  HIT:     355938  MISS:          0
cpu0_ITLB RFO       ACCESS:          0  HIT:          0  MISS:          0
cpu0_ITLB PREFETCH  ACCESS:          0  HIT:          0  MISS:          0
cpu0_ITLB WRITEBACK ACCESS:          0  HIT:          0  MISS:          0
cpu0_L1I TOTAL     ACCESS:       3715  HIT:       3715  MISS:          0
cpu0_L1I LOAD      ACCESS:       3715  HIT:       3715  MISS:          0
cpu0_L1I RFO       ACCESS:          0  HIT:          0  MISS:          0
cpu0_L1I PREFETCH  ACCESS:          0  HIT:          0  MISS:          0
cpu0_L1I WRITEBACK ACCESS:          0  HIT:          0  MISS:          0
cpu0_STLB TOTAL     ACCESS:       7053  HIT:       4639  MISS:       2414
cpu0_STLB LOAD      ACCESS:       6607  HIT:       4246  MISS:       2361
cpu0_STLB RFO       ACCESS:        446  HIT:        393  MISS:         53
cpu0_STLB PREFETCH  ACCESS:          0  HIT:          0  MISS:          0
cpu0_STLB WRITEBACK ACCESS:          0  HIT:          0  MISS:          0
cpu0_L1D TOTAL     ACCESS:     482358  HIT:     413588  MISS:      68770
cpu0_L1D LOAD      ACCESS:     402363  HIT:     338059  MISS:      64304
cpu0_L1D RFO       ACCESS:      77685  HIT:      73237  MISS:       4448
cpu0_L1D PREFETCH  ACCESS:          0  HIT:          0  MISS:          0
cpu0_L1D WRITEBACK ACCESS:          0  HIT:          0  MISS:          0
cpu0_L2C TOTAL     ACCESS:      76025  HIT:      21035  MISS:      54990
cpu0_L2C LOAD      ACCESS:      64304  HIT:      13225  MISS:      51079
cpu0_L2C RFO       ACCESS:       4448  HIT:        559  MISS:       3889
cpu0_L2C PREFETCH  ACCESS:          0  HIT:          0  MISS:          0
cpu0_L2C WRITEBACK ACCESS:       7255  HIT:       7241  MISS:         14
LLC TOTAL     ACCESS:      61082  HIT:       6481  MISS:      54601
LLC LOAD      ACCESS:      51079  HIT:       1012  MISS:      50067
LLC RFO       ACCESS:       3889  HIT:        107  MISS:       3782
LLC PREFETCH  ACCESS:          0  HIT:          0  MISS:          0
LLC WRITEBACK ACCESS:       6106  HIT:       5362  MISS:        744
Heartbeat CPU 0 instructions: 56000004 cycles: 21746121 heartbeat IPC: 0.676716 cumulative IPC: 0.687994 (Simulation time: 0 hr 32 min 58 sec) 

Region of Interest Statistics
cpu0_DTLB TOTAL     ACCESS:    1084247  HIT:    1071451  MISS:      12796
cpu0_DTLB LOAD      ACCESS:     960117  HIT:     948097  MISS:      12020
cpu0_DTLB RFO       ACCESS:     124130  HIT:     123354  MISS:        776
cpu0_DTLB PREFETCH  ACCESS:          0  HIT:          0  MISS:          0
cpu0_DTLB WRITEBACK ACCESS:          0  HIT:          0  MISS:          0
cpu0_ITLB TOTAL     ACCESS:     521178  HIT:     521178  MISS:          0
cpu0_ITLB LOAD      ACCESS:     521178  HIT:     521178  MISS:          0
cpu0_ITLB RFO       ACCESS:          0  HIT:          0  MISS:          0
cpu0_ITLB PREFETCH  ACCESS:          0  HIT:          0  MISS:          0
cpu0_ITLB WRITEBACK ACCESS:          0  HIT:          0  MISS:          0
cpu0_L1I TOTAL     ACCESS:      18308  HIT:      18288  MISS:         20
cpu0_L1I LOAD      ACCESS:      18308  HIT:      18288  MISS:         20
cpu0_L1I RFO       ACCESS:          0  HIT:          0  MISS:          0
cpu0_L1I PREFETCH  ACCESS:          0  HIT:          0  MISS:          0
cpu0_L1I WRITEBACK ACCESS:          0  HIT:          0  MISS:          0
cpu0_STLB TOTAL     ACCESS:      12796  HIT:       8423  MISS:       4373
cpu0_STLB LOAD      ACCESS:      12020  HIT:       7729  MISS:       4291
cpu0_STLB RFO       ACCESS:        776  HIT:        694  MISS:         82
cpu0_STLB PREFETCH  ACCESS:          0  HIT:          0  MISS:          0
cpu0_STLB WRITEBACK ACCESS:          0  HIT:          0  MISS:          0
cpu0_L1D TOTAL     ACCESS:     861882  HIT:     759138  MISS:     102744
cpu0_L1D LOAD      ACCESS:     644752  HIT:     548290  MISS:      96462
cpu0_L1D RFO       ACCESS:     212951  HIT:     206702  MISS:       6249
cpu0_L1D PREFETCH  ACCESS:          0  HIT:          0  MISS:          0
cpu0_L1D WRITEBACK ACCESS:          0  HIT:          0  MISS:          0
cpu0_L2C TOTAL     ACCESS:     114206  HIT:      36287  MISS:      77919
cpu0_L2C LOAD      ACCESS:      96481  HIT:      23965  MISS:      72516
cpu0_L2C RFO       ACCESS:       6249  HIT:        888  MISS:       5361
cpu0_L2C PREFETCH  ACCESS:          0  HIT:          0  MISS:          0
cpu0_L2C WRITEBACK ACCESS:      11443  HIT:      11418  MISS:         25
LLC TOTAL     ACCESS:      84639  HIT:       7347  MISS:      77292
LLC LOAD      ACCESS:      72516  HIT:       1335  MISS:      71181
LLC RFO       ACCESS:       5361  HIT:        109  MISS:       5252
LLC PREFETCH  ACCESS:          0  HIT:          0  MISS:          0
LLC WRITEBACK ACCESS:       6745  HIT:       5901  MISS:        844
Heartbeat CPU 0 instructions: 58000004 cycles: 23917307 heartbeat IPC: 0.921156 cumulative IPC: 0.734471 (Simulation time: 0 hr 35 min 1 sec) 

Region of Interest Statistics
cpu0_DTLB TOTAL     ACCESS:    1429211  HIT:    1415434  MISS:      13777
cpu0_DTLB LOAD      ACCESS:    1265740  HIT:    1252852  MISS:      12888
cpu0_DTLB RFO       ACCESS:     163471  HIT:     162582  MISS:        889
cpu0_DTLB PREFETCH  ACCESS:          0  HIT:          0  MISS:          0
cpu0_DTLB WRITEBACK ACCESS:          0  HIT:          0  MISS:          0
cpu0_ITLB TOTAL     ACCESS:     683319  HIT:     683319  MISS:          0
cpu0_ITLB LOAD      ACCESS:     683319  HIT:     683319  MISS:          0
cpu0_ITLB RFO       ACCESS:          0  HIT:          0  MISS:          0
cpu0_ITLB PREFETCH  ACCESS:          0  HIT:          0  MISS:          0
cpu0_ITLB WRITEBACK ACCESS:          0  HIT:          0  MISS:          0
cpu0_L1I TOTAL     ACCESS:      27888  HIT:      27848  MISS:         40
cpu0_L1I LOAD      ACCESS:      27888  HIT:      27848  MISS:         40
cpu0_L1I RFO       ACCESS:          0  HIT:          0  MISS:          0
cpu0_L1I PREFETCH  ACCESS:          0  HIT:          0  MISS:          0
cpu0_L1I WRITEBACK ACCESS:          0  HIT:          0  MISS:          0
cpu0_STLB TOTAL     ACCESS:      13777  HIT:       9101  MISS:       4676
cpu0_STLB LOAD      ACCESS:      12888  HIT:       8327  MISS:       4561
cpu0_STLB RFO       ACCESS:        889  HIT:        774  MISS:        115
cpu0_STLB PREFETCH  ACCESS:          0  HIT:          0  MISS:          0
cpu0_STLB WRITEBACK ACCESS:          0  HIT:          0  MISS:          0
cpu0_L1D TOTAL     ACCESS:    1123994  HIT:     997244  MISS:     126750
cpu0_L1D LOAD      ACCESS:     839751  HIT:     722700  MISS:     117051
cpu0_L1D RFO       ACCESS:     279767  HIT:     270112  MISS:       9655
cpu0_L1D PREFETCH  ACCESS:          0  HIT:          0  MISS:          0
cpu0_L1D WRITEBACK ACCESS:          0  HIT:          0  MISS:          0
cpu0_L2C TOTAL     ACCESS:     142014  HIT:      43453  MISS:      98561
cpu0_L2C LOAD      ACCESS:     117090  HIT:      26731  MISS:      90359
cpu0_L2C RFO       ACCESS:       9655  HIT:       1502  MISS:       8153
cpu0_L2C PREFETCH  ACCESS:          0  HIT:          0  MISS:          0
cpu0_L2C WRITEBACK ACCESS:      15225  HIT:      15195  MISS:         30
LLC TOTAL     ACCESS:     110694  HIT:      12978  MISS:      97716
LLC LOAD      ACCESS:      90359  HIT:       1881  MISS:      88478
LLC RFO       ACCESS:       8153  HIT:        196  MISS:       7957
LLC PREFETCH  ACCESS:          0  HIT:          0  MISS:          0
LLC WRITEBACK ACCESS:      12163  HIT:      10899  MISS:       1264
Heartbeat CPU 0 instructions: 60000000 cycles: 27005622 heartbeat IPC: 0.647601 cumulative IPC: 0.715281 (Simulation time: 0 hr 37 min 20 sec) 

Region of Interest Statistics
cpu0_DTLB TOTAL     ACCESS:    1772225  HIT:    1754533  MISS:      17692
cpu0_DTLB LOAD      ACCESS:    1581803  HIT:    1565152  MISS:      16651
cpu0_DTLB RFO       ACCESS:     190422  HIT:     189381  MISS:       1041
cpu0_DTLB PREFETCH  ACCESS:          0  HIT:          0  MISS:          0
cpu0_DTLB WRITEBACK ACCESS:          0  HIT:          0  MISS:          0
cpu0_ITLB TOTAL     ACCESS:     865575  HIT:     865575  MISS:          0
cpu0_ITLB LOAD      ACCESS:     865575  HIT:     865575  MISS:          0
cpu0_ITLB RFO       ACCESS:          0  HIT:          0  MISS:          0
cpu0_ITLB PREFETCH  ACCESS:          0  HIT:          0  MISS:          0
cpu0_ITLB WRITEBACK ACCESS:          0  HIT:          0  MISS:          0
cpu0_L1I TOTAL     ACCESS:      27910  HIT:      27868  MISS:         42
cpu0_L1I LOAD      ACCESS:      27910  HIT:      27868  MISS:         42
cpu0_L1I RFO       ACCESS:          0  HIT:          0  MISS:          0
cpu0_L1I PREFETCH  ACCESS:          0  HIT:          0  MISS:          0
cpu0_L1I WRITEBACK ACCESS:          0  HIT:          0  MISS:          0
cpu0_STLB TOTAL     ACCESS:      17692  HIT:      11499  MISS:       6193
cpu0_STLB LOAD      ACCESS:      16651  HIT:      10581  MISS:       6070
cpu0_STLB RFO       ACCESS:       1041  HIT:        918  MISS:        123
cpu0_STLB PREFETCH  ACCESS:          0  HIT:          0  MISS:          0
cpu0_STLB WRITEBACK ACCESS:          0  HIT:          0  MISS:          0
cpu0_L1D TOTAL     ACCESS:    1374469  HIT:    1212048  MISS:     162421
cpu0_L1D LOAD      ACCESS:    1044538  HIT:     892727  MISS:     151811
cpu0_L1D RFO       ACCESS:     324003  HIT:     313440  MISS:      10563
cpu0_L1D PREFETCH  ACCESS:          0  HIT:          0  MISS:          0
cpu0_L1D WRITEBACK ACCESS:          0  HIT:          0  MISS:          0
cpu0_L2C TOTAL     ACCESS:     178622  HIT:      51332  MISS:     127290
cpu0_L2C LOAD      ACCESS:     151852  HIT:      33668  MISS:     118184
cpu0_L2C RFO       ACCESS:      10563  HIT:       1511  MISS:       9052
cpu0_L2C PREFETCH  ACCESS:          0  HIT:          0  MISS:          0
cpu0_L2C WRITEBACK ACCESS:      16160  HIT:      16128  MISS:         32
LLC TOTAL     ACCESS:     140398  HIT:      14079  MISS:     126319
LLC LOAD      ACCESS:     118184  HIT:       2038  MISS:     116146
LLC RFO       ACCESS:       9052  HIT:        196  MISS:       8856
LLC PREFETCH  ACCESS:          0  HIT:          0  MISS:          0
LLC WRITEBACK ACCESS:      13140  HIT:      11843  MISS:       1297
Heartbeat CPU 0 instructions: 62000002 cycles: 29688366 heartbeat IPC: 0.745506 cumulative IPC: 0.720148 (Simulation time: 0 hr 39 min 35 sec) 

Region of Interest Statistics
cpu0_DTLB TOTAL     ACCESS:    2126612  HIT:    2105828  MISS:      20784
cpu0_DTLB LOAD      ACCESS:    1908332  HIT:    1888882  MISS:      19450
cpu0_DTLB RFO       ACCESS:     218280  HIT:     216946  MISS:       1334
cpu0_DTLB PREFETCH  ACCESS:          0  HIT:          0  MISS:          0
cpu0_DTLB WRITEBACK ACCESS:          0  HIT:          0  MISS:          0
cpu0_ITLB TOTAL     ACCESS:    1039302  HIT:    1039302  MISS:          0
cpu0_ITLB LOAD      ACCESS:    1039302  HIT:    1039302  MISS:          0
cpu0_ITLB RFO       ACCESS:          0  HIT:          0  MISS:          0
cpu0_ITLB PREFETCH  ACCESS:          0  HIT:          0  MISS:          0
cpu0_ITLB WRITEBACK ACCESS:          0  HIT:          0  MISS:          0
cpu0_L1I TOTAL     ACCESS:      31932  HIT:      31881  MISS:         51
cpu0_L1I LOAD      ACCESS:      31932  HIT:      31881  MISS:         51
cpu0_L1I RFO       ACCESS:          0  HIT:          0  MISS:          0
cpu0_L1I PREFETCH  ACCESS:          0  HIT:          0  MISS:          0
cpu0_L1I WRITEBACK ACCESS:          0  HIT:          0  MISS:          0
cpu0_STLB TOTAL     ACCESS:      20784  HIT:      13615  MISS:       7169
cpu0_STLB LOAD      ACCESS:      19450  HIT:      12459  MISS:       6991
cpu0_STLB RFO       ACCESS:       1334  HIT:       1156  MISS:        178
cpu0_STLB PREFETCH  ACCESS:          0  HIT:          0  MISS:          0
cpu0_STLB WRITEBACK ACCESS:          0  HIT:          0  MISS:          0
cpu0_L1D TOTAL     ACCESS:    1609701  HIT:    1413421  MISS:     196280
cpu0_L1D LOAD      ACCESS:    1243061  HIT:    1061025  MISS:     182036
cpu0_L1D RFO       ACCESS:     359772  HIT:     345592  MISS:      14180
cpu0_L1D PREFETCH  ACCESS:          0  HIT:          0  MISS:          0
cpu0_L1D WRITEBACK ACCESS:          0  HIT:          0  MISS:          0
cpu0_L2C TOTAL     ACCESS:     218854  HIT:      64926  MISS:     153928
cpu0_L2C LOAD      ACCESS:     182086  HIT:      40292  MISS:     141794
cpu0_L2C RFO       ACCESS:      14180  HIT:       2119  MISS:      12061
cpu0_L2C PREFETCH  ACCESS:          0  HIT:          0  MISS:          0
cpu0_L2C WRITEBACK ACCESS:      22524  HIT:      22481  MISS:         43
LLC TOTAL     ACCESS:     171826  HIT:      19123  MISS:     152703
LLC LOAD      ACCESS:     141794  HIT:       2951  MISS:     138843
LLC RFO       ACCESS:      12061  HIT:        303  MISS:      11758
LLC PREFETCH  ACCESS:          0  HIT:          0  MISS:          0
LLC WRITEBACK ACCESS:      17941  HIT:      15865  MISS:       2076
Heartbeat CPU 0 instructions: 64000000 cycles: 32739820 heartbeat IPC: 0.655425 cumulative IPC: 0.71013 (Simulation time: 0 hr 41 min 55 sec) 

Region of Interest Statistics
cpu0_DTLB TOTAL     ACCESS:    2467972  HIT:    2443481  MISS:      24491
cpu0_DTLB LOAD      ACCESS:    2224411  HIT:    2201394  MISS:      23017
cpu0_DTLB RFO       ACCESS:     243561  HIT:     242087  MISS:       1474
cpu0_DTLB PREFETCH  ACCESS:          0  HIT:          0  MISS:          0
cpu0_DTLB WRITEBACK ACCESS:          0  HIT:          0  MISS:          0
cpu0_ITLB TOTAL     ACCESS:    1221492  HIT:    1221492  MISS:          0
cpu0_ITLB LOAD      ACCESS:    1221492  HIT:    1221492  MISS:          0
cpu0_ITLB RFO       ACCESS:          0  HIT:          0  MISS:          0
cpu0_ITLB PREFETCH  ACCESS:          0  HIT:          0  MISS:          0
cpu0_ITLB WRITEBACK ACCESS:          0  HIT:          0  MISS:          0
cpu0_L1I TOTAL     ACCESS:      31956  HIT:      31905  MISS:         51
cpu0_L1I LOAD      ACCESS:      31956  HIT:      31905  MISS:         51
cpu0_L1I RFO       ACCESS:          0  HIT:          0  MISS:          0
cpu0_L1I PREFETCH  ACCESS:          0  HIT:          0  MISS:          0
cpu0_L1I WRITEBACK ACCESS:          0  HIT:          0  MISS:          0
cpu0_STLB TOTAL     ACCESS:      24491  HIT:      15953  MISS:       8538
cpu0_STLB LOAD      ACCESS:      23017  HIT:      14664  MISS:       8353
cpu0_STLB RFO       ACCESS:       1474  HIT:       1289  MISS:        185
cpu0_STLB PREFETCH  ACCESS:          0  HIT:          0  MISS:          0
cpu0_STLB WRITEBACK ACCESS:          0  HIT:          0  MISS:          0
cpu0_L1D TOTAL     ACCESS:    1854668  HIT:    1623730  MISS:     230938
cpu0_L1D LOAD      ACCESS:    1445902  HIT:    1230095  MISS:     215807
cpu0_L1D RFO       ACCESS:     400586  HIT:     385522  MISS:      15064
cpu0_L1D PREFETCH  ACCESS:          0  HIT:          0  MISS:          0
cpu0_L1D WRITEBACK ACCESS:          0  HIT:          0  MISS:          0
cpu0_L2C TOTAL     ACCESS:     254424  HIT:      72034  MISS:     182390
cpu0_L2C LOAD      ACCESS:     215857  HIT:      46481  MISS:     169376
cpu0_L2C RFO       ACCESS:      15064  HIT:       2128  MISS:      12936
cpu0_L2C PREFETCH  ACCESS:          0  HIT:          0  MISS:          0
cpu0_L2C WRITEBACK ACCESS:      23436  HIT:      23391  MISS:         45
LLC TOTAL     ACCESS:     201475  HIT:      20422  MISS:     181053
LLC LOAD      ACCESS:     169376  HIT:       3113  MISS:     166263
LLC RFO       ACCESS:      12936  HIT:        303  MISS:      12633
LLC PREFETCH  ACCESS:          0  HIT:          0  MISS:          0
LLC WRITEBACK ACCESS:      19130  HIT:      17002  MISS:       2128
Heartbeat CPU 0 instructions: 66000001 cycles: 35573992 heartbeat IPC: 0.705674 cumulative IPC: 0.70957 (Simulation time: 0 hr 44 min 17 sec) 

Region of Interest Statistics
cpu0_DTLB TOTAL     ACCESS:    2826019  HIT:    2797912  MISS:      28107
cpu0_DTLB LOAD      ACCESS:    2551154  HIT:    2524850  MISS:      26304
cpu0_DTLB RFO       ACCESS:     274865  HIT:     273062  MISS:       1803
cpu0_DTLB PREFETCH  ACCESS:          0  HIT:          0  MISS:          0
cpu0_DTLB WRITEBACK ACCESS:          0  HIT:          0  MISS:          0
cpu0_ITLB TOTAL     ACCESS:    1396554  HIT:    1396554  MISS:          0
cpu0_ITLB LOAD      ACCESS:    1396554  HIT:    1396554  MISS:          0
cpu0_ITLB RFO       ACCESS:          0  HIT:          0  MISS:          0
cpu0_ITLB PREFETCH  ACCESS:          0  HIT:          0  MISS:          0
cpu0_ITLB WRITEBACK ACCESS:          0  HIT:          0  MISS:          0
cpu0_L1I TOTAL     ACCESS:      35546  HIT:      35495  MISS:         51
cpu0_L1I LOAD      ACCESS:      35546  HIT:      35495  MISS:         51
cpu0_L1I RFO       ACCESS:          0  HIT:          0  MISS:          0
cpu0_L1I PREFETCH  ACCESS:          0  HIT:          0  MISS:          0
cpu0_L1I WRITEBACK ACCESS:          0  HIT:          0  MISS:          0
cpu0_STLB TOTAL     ACCESS:      28107  HIT:      18396  MISS:       9711
cpu0_STLB LOAD      ACCESS:      26304  HIT:      16825  MISS:       9479
cpu0_STLB RFO       ACCESS:       1803  HIT:       1571  MISS:        232
cpu0_STLB PREFETCH  ACCESS:          0  HIT:          0  MISS:          0
cpu0_STLB WRITEBACK ACCESS:          0  HIT:          0  MISS:          0
cpu0_L1D TOTAL     ACCESS:    2100898  HIT:    1834018  MISS:     266880
cpu0_L1D LOAD      ACCESS:    1647992  HIT:    1399941  MISS:     248051
cpu0_L1D RFO       ACCESS:     443594  HIT:     424850  MISS:      18744
cpu0_L1D PREFETCH  ACCESS:          0  HIT:          0  MISS:          0
cpu0_L1D WRITEBACK ACCESS:          0  HIT:          0  MISS:          0
cpu0_L2C TOTAL     ACCESS:     297006  HIT:      87174  MISS:     209832
cpu0_L2C LOAD      ACCESS:     248101  HIT:      54295  MISS:     193806
cpu0_L2C RFO       ACCESS:      18744  HIT:       2815  MISS:      15929
cpu0_L2C PREFETCH  ACCESS:          0  HIT:          0  MISS:          0
cpu0_L2C WRITEBACK ACCESS:      30076  HIT:      30019  MISS:         57
LLC TOTAL     ACCESS:     233582  HIT:      25586  MISS:     207996
LLC LOAD      ACCESS:     193806  HIT:       3971  MISS:     189835
LLC RFO       ACCESS:      15929  HIT:        401  MISS:      15528
LLC PREFETCH  ACCESS:          0  HIT:          0  MISS:          0
LLC WRITEBACK ACCESS:      23807  HIT:      21208  MISS:       2599
Heartbeat CPU 0 instructions: 68000003 cycles: 38505748 heartbeat IPC: 0.682186 cumulative IPC: 0.706419 (Simulation time: 0 hr 46 min 32 sec) 

Region of Interest Statistics
cpu0_DTLB TOTAL     ACCESS:    3163677  HIT:    3132285  MISS:      31392
cpu0_DTLB LOAD      ACCESS:    2865030  HIT:    2835543  MISS:      29487
cpu0_DTLB RFO       ACCESS:     298647  HIT:     296742  MISS:       1905
cpu0_DTLB PREFETCH  ACCESS:          0  HIT:          0  MISS:          0
cpu0_DTLB WRITEBACK ACCESS:          0  HIT:          0  MISS:          0
cpu0_ITLB TOTAL     ACCESS:    1580883  HIT:    1580883  MISS:          0
cpu0_ITLB LOAD      ACCESS:    1580883  HIT:    1580883  MISS:          0
cpu0_ITLB RFO       ACCESS:          0  HIT:          0  MISS:          0
cpu0_ITLB PREFETCH  ACCESS:          0  HIT:          0  MISS:          0
cpu0_ITLB WRITEBACK ACCESS:          0  HIT:          0  MISS:          0
cpu0_L1I TOTAL     ACCESS:      35576  HIT:      35525  MISS:         51
cpu0_L1I LOAD      ACCESS:      35576  HIT:      35525  MISS:         51
cpu0_L1I RFO       ACCESS:          0  HIT:          0  MISS:          0
cpu0_L1I PREFETCH  ACCESS:          0  HIT:          0  MISS:          0
cpu0_L1I WRITEBACK ACCESS:          0  HIT:          0  MISS:          0
cpu0_STLB TOTAL     ACCESS:      31392  HIT:      20411  MISS:      10981
cpu0_STLB LOAD      ACCESS:      29487  HIT:      18743  MISS:      10744
cpu0_STLB RFO       ACCESS:       1905  HIT:       1668  MISS:        237
cpu0_STLB PREFETCH  ACCESS:          0  HIT:          0  MISS:          0
cpu0_STLB WRITEBACK ACCESS:          0  HIT:          0  MISS:          0
cpu0_L1D TOTAL     ACCESS:    2339720  HIT:    2039521  MISS:     300199
cpu0_L1D LOAD      ACCESS:    1848292  HIT:    1567837  MISS:     280455
cpu0_L1D RFO       ACCESS:     480899  HIT:     461242  MISS:      19657
cpu0_L1D PREFETCH  ACCESS:          0  HIT:          0  MISS:          0
cpu0_L1D WRITEBACK ACCESS:          0  HIT:          0  MISS:          0
cpu0_L2C TOTAL     ACCESS:     331263  HIT:      93287  MISS:     237976
cpu0_L2C LOAD      ACCESS:     280505  HIT:      59469  MISS:     221036
cpu0_L2C RFO       ACCESS:      19657  HIT:       2818  MISS:      16839
cpu0_L2C PREFETCH  ACCESS:          0  HIT:          0  MISS:          0
cpu0_L2C WRITEBACK ACCESS:      31014  HIT:      30955  MISS:         59
LLC TOTAL     ACCESS:     263359  HIT:      27252  MISS:     236107
LLC LOAD      ACCESS:     221036  HIT:       4097  MISS:     216939
LLC RFO       ACCESS:      16839  HIT:        401  MISS:      16438
LLC PREFETCH  ACCESS:          0  HIT:          0  MISS:          0
LLC WRITEBACK ACCESS:      25442  HIT:      22748  MISS:       2694
Heartbeat CPU 0 instructions: 70000001 cycles: 41353887 heartbeat IPC: 0.702212 cumulative IPC: 0.705996 (Simulation time: 0 hr 48 min 49 sec) 

Region of Interest Statistics
cpu0_DTLB TOTAL     ACCESS:    3523910  HIT:    3488605  MISS:      35305
cpu0_DTLB LOAD      ACCESS:    3191134  HIT:    3158054  MISS:      33080
cpu0_DTLB RFO       ACCESS:     332776  HIT:     330551  MISS:       2225
cpu0_DTLB PREFETCH  ACCESS:          0  HIT:          0  MISS:          0
cpu0_DTLB WRITEBACK ACCESS:          0  HIT:          0  MISS:          0
cpu0_ITLB TOTAL     ACCESS:    1753329  HIT:    1753329  MISS:          0
cpu0_ITLB LOAD      ACCESS:    1753329  HIT:    1753329  MISS:          0
cpu0_ITLB RFO       ACCESS:          0  HIT:          0  MISS:          0
cpu0_ITLB PREFETCH  ACCESS:          0  HIT:          0  MISS:          0
cpu0_ITLB WRITEBACK ACCESS:          0  HIT:          0  MISS:          0
cpu0_L1I TOTAL     ACCESS:      40086  HIT:      40035  MISS:         51
cpu0_L1I LOAD      ACCESS:      40086  HIT:      40035  MISS:         51
cpu0_L1I RFO       ACCESS:          0  HIT:          0  MISS:          0
cpu0_L1I PREFETCH  ACCESS:          0  HIT:          0  MISS:          0
cpu0_L1I WRITEBACK ACCESS:          0  HIT:          0  MISS:          0
cpu0_STLB TOTAL     ACCESS:      35305  HIT:      23050  MISS:      12255
cpu0_STLB LOAD      ACCESS:      33080  HIT:      21111  MISS:      11969
cpu0_STLB RFO       ACCESS:       2225  HIT:       1939  MISS:        286
cpu0_STLB PREFETCH  ACCESS:          0  HIT:          0  MISS:          0
cpu0_STLB WRITEBACK ACCESS:          0  HIT:          0  MISS:          0
cpu0_L1D TOTAL     ACCESS:    2594749  HIT:    2257507  MISS:     337242
cpu0_L1D LOAD      ACCESS:    2053433  HIT:    1739808  MISS:     313625
cpu0_L1D RFO       ACCESS:     529557  HIT:     506046  MISS:      23511
cpu0_L1D PREFETCH  ACCESS:          0  HIT:          0  MISS:          0
cpu0_L1D WRITEBACK ACCESS:          0  HIT:          0  MISS:          0
cpu0_L2C TOTAL     ACCESS:     375564  HIT:     110366  MISS:     265198
cpu0_L2C LOAD      ACCESS:     313675  HIT:      68439  MISS:     245236
cpu0_L2C RFO       ACCESS:      23510  HIT:       3670  MISS:      19840
cpu0_L2C PREFETCH  ACCESS:          0  HIT:          0  MISS:          0
cpu0_L2C WRITEBACK ACCESS:      38273  HIT:      38201  MISS:         72
LLC TOTAL     ACCESS:     295357  HIT:      32468  MISS:     262889
LLC LOAD      ACCESS:     245236  HIT:       4929  MISS:     240307
LLC RFO       ACCESS:      19840  HIT:        507  MISS:      19333
LLC PREFETCH  ACCESS:          0  HIT:          0  MISS:          0
LLC WRITEBACK ACCESS:      30231  HIT:      27025  MISS:       3206
Heartbeat CPU 0 instructions: 72000002 cycles: 44255797 heartbeat IPC: 0.689202 cumulative IPC: 0.704435 (Simulation time: 0 hr 51 min 9 sec) 

Region of Interest Statistics
cpu0_DTLB TOTAL     ACCESS:    3859353  HIT:    3821445  MISS:      37908
cpu0_DTLB LOAD      ACCESS:    3503936  HIT:    3468313  MISS:      35623
cpu0_DTLB RFO       ACCESS:     355417  HIT:     353132  MISS:       2285
cpu0_DTLB PREFETCH  ACCESS:          0  HIT:          0  MISS:          0
cpu0_DTLB WRITEBACK ACCESS:          0  HIT:          0  MISS:          0
cpu0_ITLB TOTAL     ACCESS:    1938476  HIT:    1938476  MISS:          0
cpu0_ITLB LOAD      ACCESS:    1938476  HIT:    1938476  MISS:          0
cpu0_ITLB RFO       ACCESS:          0  HIT:          0  MISS:          0
cpu0_ITLB PREFETCH  ACCESS:          0  HIT:          0  MISS:          0
cpu0_ITLB WRITEBACK ACCESS:          0  HIT:          0  MISS:          0
cpu0_L1I TOTAL     ACCESS:      40120  HIT:      40069  MISS:         51
cpu0_L1I LOAD      ACCESS:      40120  HIT:      40069  MISS:         51
cpu0_L1I RFO       ACCESS:          0  HIT:          0  MISS:          0
cpu0_L1I PREFETCH  ACCESS:          0  HIT:          0  MISS:          0
cpu0_L1I WRITEBACK ACCESS:          0  HIT:          0  MISS:          0
cpu0_STLB TOTAL     ACCESS:      37908  HIT:      24564  MISS:      13344
cpu0_STLB LOAD      ACCESS:      35623  HIT:      22571  MISS:      13052
cpu0_STLB RFO       ACCESS:       2285  HIT:       1993  MISS:        292
cpu0_STLB PREFETCH  ACCESS:          0  HIT:          0  MISS:          0
cpu0_STLB WRITEBACK ACCESS:          0  HIT:          0  MISS:          0
cpu0_L1D TOTAL     ACCESS:    2829439  HIT:    2459506  MISS:     369933
cpu0_L1D LOAD      ACCESS:    2251952  HIT:    1906492  MISS:     345460
cpu0_L1D RFO       ACCESS:     564685  HIT:     540321  MISS:      24364
cpu0_L1D PREFETCH  ACCESS:          0  HIT:          0  MISS:          0
cpu0_L1D WRITEBACK ACCESS:          0  HIT:          0  MISS:          0
cpu0_L2C TOTAL     ACCESS:     409130  HIT:     115978  MISS:     293152
cpu0_L2C LOAD      ACCESS:     345510  HIT:      73174  MISS:     272336
cpu0_L2C RFO       ACCESS:      24363  HIT:       3674  MISS:      20689
cpu0_L2C PREFETCH  ACCESS:          0  HIT:          0  MISS:          0
cpu0_L2C WRITEBACK ACCESS:      39148  HIT:      39074  MISS:         74
LLC TOTAL     ACCESS:     325019  HIT:      34185  MISS:     290834
LLC LOAD      ACCESS:     272336  HIT:       5040  MISS:     267296
LLC RFO       ACCESS:      20689  HIT:        507  MISS:      20182
LLC PREFETCH  ACCESS:          0  HIT:          0  MISS:          0
LLC WRITEBACK ACCESS:      31941  HIT:      28631  MISS:       3310
Heartbeat CPU 0 instructions: 74000002 cycles: 47157466 heartbeat IPC: 0.689259 cumulative IPC: 0.703145 (Simulation time: 0 hr 53 min 26 sec) 

Region of Interest Statistics
cpu0_DTLB TOTAL     ACCESS:    4222026  HIT:    4179318  MISS:      42708
cpu0_DTLB LOAD      ACCESS:    3830172  HIT:    3790116  MISS:      40056
cpu0_DTLB RFO       ACCESS:     391854  HIT:     389202  MISS:       2652
cpu0_DTLB PREFETCH  ACCESS:          0  HIT:          0  MISS:          0
cpu0_DTLB WRITEBACK ACCESS:          0  HIT:          0  MISS:          0
cpu0_ITLB TOTAL     ACCESS:    2113350  HIT:    2113350  MISS:          0
cpu0_ITLB LOAD      ACCESS:    2113350  HIT:    2113350  MISS:          0
cpu0_ITLB RFO       ACCESS:          0  HIT:          0  MISS:          0
cpu0_ITLB PREFETCH  ACCESS:          0  HIT:          0  MISS:          0
cpu0_ITLB WRITEBACK ACCESS:          0  HIT:          0  MISS:          0
cpu0_L1I TOTAL     ACCESS:      44174  HIT:      44123  MISS:         51
cpu0_L1I LOAD      ACCESS:      44174  HIT:      44123  MISS:         51
cpu0_L1I RFO       ACCESS:          0  HIT:          0  MISS:          0
cpu0_L1I PREFETCH  ACCESS:          0  HIT:          0  MISS:          0
cpu0_L1I WRITEBACK ACCESS:          0  HIT:          0  MISS:          0
cpu0_STLB TOTAL     ACCESS:      42708  HIT:      27838  MISS:      14870
cpu0_STLB LOAD      ACCESS:      40056  HIT:      25535  MISS:      14521
cpu0_STLB RFO       ACCESS:       2652  HIT:       2303  MISS:        349
cpu0_STLB PREFETCH  ACCESS:          0  HIT:          0  MISS:          0
cpu0_STLB WRITEBACK ACCESS:          0  HIT:          0  MISS:          0
cpu0_L1D TOTAL     ACCESS:    3094701  HIT:    2686811  MISS:     407890
cpu0_L1D LOAD      ACCESS:    2461364  HIT:    2081740  MISS:     379624
cpu0_L1D RFO       ACCESS:     619062  HIT:     590926  MISS:      28136
cpu0_L1D PREFETCH  ACCESS:          0  HIT:          0  MISS:          0
cpu0_L1D WRITEBACK ACCESS:          0  HIT:          0  MISS:          0
cpu0_L2C TOTAL     ACCESS:     453659  HIT:     133461  MISS:     320198
cpu0_L2C LOAD      ACCESS:     379674  HIT:      83307  MISS:     296367
cpu0_L2C RFO       ACCESS:      28135  HIT:       4451  MISS:      23684
cpu0_L2C PREFETCH  ACCESS:          0  HIT:          0  MISS:          0
cpu0_L2C WRITEBACK ACCESS:      45720  HIT:      45634  MISS:         86
LLC TOTAL     ACCESS:     355260  HIT:      37817  MISS:     317443
LLC LOAD      ACCESS:     296367  HIT:       5772  MISS:     290595
LLC RFO       ACCESS:      23684  HIT:        610  MISS:      23074
LLC PREFETCH  ACCESS:          0  HIT:          0  MISS:          0
LLC WRITEBACK ACCESS:      35148  HIT:      31427  MISS:       3721
Heartbeat CPU 0 instructions: 76000001 cycles: 49965466 heartbeat IPC: 0.71225 cumulative IPC: 0.703837 (Simulation time: 0 hr 55 min 39 sec) 

Region of Interest Statistics
cpu0_DTLB TOTAL     ACCESS:    4554659  HIT:    4510421  MISS:      44238
cpu0_DTLB LOAD      ACCESS:    4143289  HIT:    4101725  MISS:      41564
cpu0_DTLB RFO       ACCESS:     411370  HIT:     408696  MISS:       2674
cpu0_DTLB PREFETCH  ACCESS:          0  HIT:          0  MISS:          0
cpu0_DTLB WRITEBACK ACCESS:          0  HIT:          0  MISS:          0
cpu0_ITLB TOTAL     ACCESS:    2299730  HIT:    2299730  MISS:          0
cpu0_ITLB LOAD      ACCESS:    2299730  HIT:    2299730  MISS:          0
cpu0_ITLB RFO       ACCESS:          0  HIT:          0  MISS:          0
cpu0_ITLB PREFETCH  ACCESS:          0  HIT:          0  MISS:          0
cpu0_ITLB WRITEBACK ACCESS:          0  HIT:          0  MISS:          0
cpu0_L1I TOTAL     ACCESS:      44200  HIT:      44149  MISS:         51
cpu0_L1I LOAD      ACCESS:      44200  HIT:      44149  MISS:         51
cpu0_L1I RFO       ACCESS:          0  HIT:          0  MISS:          0
cpu0_L1I PREFETCH  ACCESS:          0  HIT:          0  MISS:          0
cpu0_L1I WRITEBACK ACCESS:          0  HIT:          0  MISS:          0
cpu0_STLB TOTAL     ACCESS:      44238  HIT:      28486  MISS:      15752
cpu0_STLB LOAD      ACCESS:      41564  HIT:      26166  MISS:      15398
cpu0_STLB RFO       ACCESS:       2674  HIT:       2320  MISS:        354
cpu0_STLB PREFETCH  ACCESS:          0  HIT:          0  MISS:          0
cpu0_STLB WRITEBACK ACCESS:          0  HIT:          0  MISS:          0
cpu0_L1D TOTAL     ACCESS:    3317290  HIT:    2878523  MISS:     438767
cpu0_L1D LOAD      ACCESS:    2654699  HIT:    2245036  MISS:     409663
cpu0_L1D RFO       ACCESS:     647467  HIT:     618496  MISS:      28971
cpu0_L1D PREFETCH  ACCESS:          0  HIT:          0  MISS:          0
cpu0_L1D WRITEBACK ACCESS:          0  HIT:          0  MISS:          0
cpu0_L2C TOTAL     ACCESS:     485391  HIT:     137565  MISS:     347826
cpu0_L2C LOAD      ACCESS:     409713  HIT:      86556  MISS:     323157
cpu0_L2C RFO       ACCESS:      28970  HIT:       4453  MISS:      24517
cpu0_L2C PREFETCH  ACCESS:          0  HIT:          0  MISS:          0
cpu0_L2C WRITEBACK ACCESS:      46575  HIT:      46487  MISS:         88
LLC TOTAL     ACCESS:     385652  HIT:      40478  MISS:     345174
LLC LOAD      ACCESS:     323157  HIT:       5888  MISS:     317269
LLC RFO       ACCESS:      24517  HIT:        610  MISS:      23907
LLC PREFETCH  ACCESS:          0  HIT:          0  MISS:          0
LLC WRITEBACK ACCESS:      37914  HIT:      33972  MISS:       3942
Heartbeat CPU 0 instructions: 78000000 cycles: 52949771 heartbeat IPC: 0.670172 cumulative IPC: 0.701321 (Simulation time: 0 hr 58 min 0 sec) 

Region of Interest Statistics
cpu0_DTLB TOTAL     ACCESS:    4918122  HIT:    4868278  MISS:      49844
cpu0_DTLB LOAD      ACCESS:    4468837  HIT:    4422029  MISS:      46808
cpu0_DTLB RFO       ACCESS:     449285  HIT:     446249  MISS:       3036
cpu0_DTLB PREFETCH  ACCESS:          0  HIT:          0  MISS:          0
cpu0_DTLB WRITEBACK ACCESS:          0  HIT:          0  MISS:          0
cpu0_ITLB TOTAL     ACCESS:    2473907  HIT:    2473907  MISS:          0
cpu0_ITLB LOAD      ACCESS:    2473907  HIT:    2473907  MISS:          0
cpu0_ITLB RFO       ACCESS:          0  HIT:          0  MISS:          0
cpu0_ITLB PREFETCH  ACCESS:          0  HIT:          0  MISS:          0
cpu0_ITLB WRITEBACK ACCESS:          0  HIT:          0  MISS:          0
cpu0_L1I TOTAL     ACCESS:      48336  HIT:      48285  MISS:         51
cpu0_L1I LOAD      ACCESS:      48336  HIT:      48285  MISS:         51
cpu0_L1I RFO       ACCESS:          0  HIT:          0  MISS:          0
cpu0_L1I PREFETCH  ACCESS:          0  HIT:          0  MISS:          0
cpu0_L1I WRITEBACK ACCESS:          0  HIT:          0  MISS:          0
cpu0_STLB TOTAL     ACCESS:      49844  HIT:      32404  MISS:      17440
cpu0_STLB LOAD      ACCESS:      46808  HIT:      29772  MISS:      17036
cpu0_STLB RFO       ACCESS:       3036  HIT:       2632  MISS:        404
cpu0_STLB PREFETCH  ACCESS:          0  HIT:          0  MISS:          0
cpu0_STLB WRITEBACK ACCESS:          0  HIT:          0  MISS:          0
cpu0_L1D TOTAL     ACCESS:    3586962  HIT:    3109580  MISS:     477382
cpu0_L1D LOAD      ACCESS:    2864985  HIT:    2420309  MISS:     444676
cpu0_L1D RFO       ACCESS:     705233  HIT:     672678  MISS:      32555
cpu0_L1D PREFETCH  ACCESS:          0  HIT:          0  MISS:          0
cpu0_L1D WRITEBACK ACCESS:          0  HIT:          0  MISS:          0
cpu0_L2C TOTAL     ACCESS:     529672  HIT:     154871  MISS:     374801
cpu0_L2C LOAD      ACCESS:     444726  HIT:      97558  MISS:     347168
cpu0_L2C RFO       ACCESS:      32553  HIT:       5090  MISS:      27463
cpu0_L2C PREFETCH  ACCESS:          0  HIT:          0  MISS:          0
cpu0_L2C WRITEBACK ACCESS:      52242  HIT:      52142  MISS:        100
LLC TOTAL     ACCESS:     414595  HIT:      42971  MISS:     371624
LLC LOAD      ACCESS:     347168  HIT:       6609  MISS:     340559
LLC RFO       ACCESS:      27463  HIT:        710  MISS:      26753
LLC PREFETCH  ACCESS:          0  HIT:          0  MISS:          0
LLC WRITEBACK ACCESS:      39894  HIT:      35643  MISS:       4251
Heartbeat CPU 0 instructions: 80000000 cycles: 55599623 heartbeat IPC: 0.754759 cumulative IPC: 0.704647 (Simulation time: 1 hr 0 min 13 sec) 

Region of Interest Statistics
cpu0_DTLB TOTAL     ACCESS:    5246871  HIT:    5196031  MISS:      50840
cpu0_DTLB LOAD      ACCESS:    4781411  HIT:    4733628  MISS:      47783
cpu0_DTLB RFO       ACCESS:     465460  HIT:     462403  MISS:       3057
cpu0_DTLB PREFETCH  ACCESS:          0  HIT:          0  MISS:          0
cpu0_DTLB WRITEBACK ACCESS:          0  HIT:          0  MISS:          0
cpu0_ITLB TOTAL     ACCESS:    2661331  HIT:    2661331  MISS:          0
cpu0_ITLB LOAD      ACCESS:    2661331  HIT:    2661331  MISS:          0
cpu0_ITLB RFO       ACCESS:          0  HIT:          0  MISS:          0
cpu0_ITLB PREFETCH  ACCESS:          0  HIT:          0  MISS:          0
cpu0_ITLB WRITEBACK ACCESS:          0  HIT:          0  MISS:          0
cpu0_L1I TOTAL     ACCESS:      48340  HIT:      48289  MISS:         51
cpu0_L1I LOAD      ACCESS:      48340  HIT:      48289  MISS:         51
cpu0_L1I RFO       ACCESS:          0  HIT:          0  MISS:          0
cpu0_L1I PREFETCH  ACCESS:          0  HIT:          0  MISS:          0
cpu0_L1I WRITEBACK ACCESS:          0  HIT:          0  MISS:          0
cpu0_STLB TOTAL     ACCESS:      50840  HIT:      32719  MISS:      18121
cpu0_STLB LOAD      ACCESS:      47783  HIT:      30070  MISS:      17713
cpu0_STLB RFO       ACCESS:       3057  HIT:       2649  MISS:        408
cpu0_STLB PREFETCH  ACCESS:          0  HIT:          0  MISS:          0
cpu0_STLB WRITEBACK ACCESS:          0  HIT:          0  MISS:          0
cpu0_L1D TOTAL     ACCESS:    3797755  HIT:    3291523  MISS:     506232
cpu0_L1D LOAD      ACCESS:    3053988  HIT:    2581309  MISS:     472679
cpu0_L1D RFO       ACCESS:     726365  HIT:     692966  MISS:      33399
cpu0_L1D PREFETCH  ACCESS:          0  HIT:          0  MISS:          0
cpu0_L1D WRITEBACK ACCESS:          0  HIT:          0  MISS:          0
cpu0_L2C TOTAL     ACCESS:     559398  HIT:     157412  MISS:     401986
cpu0_L2C LOAD      ACCESS:     472729  HIT:      99224  MISS:     373505
cpu0_L2C RFO       ACCESS:      33397  HIT:       5091  MISS:      28306
cpu0_L2C PREFETCH  ACCESS:          0  HIT:          0  MISS:          0
cpu0_L2C WRITEBACK ACCESS:      53118  HIT:      53016  MISS:        102
LLC TOTAL     ACCESS:     445223  HIT:      46219  MISS:     399004
LLC LOAD      ACCESS:     373505  HIT:       6704  MISS:     366801
LLC RFO       ACCESS:      28306  HIT:        711  MISS:      27595
LLC PREFETCH  ACCESS:          0  HIT:          0  MISS:          0
LLC WRITEBACK ACCESS:      43339  HIT:      38795  MISS:       4544
Heartbeat CPU 0 instructions: 82000000 cycles: 58670204 heartbeat IPC: 0.651343 cumulative IPC: 0.701061 (Simulation time: 1 hr 2 min 35 sec) 

Region of Interest Statistics
cpu0_DTLB TOTAL     ACCESS:    5613224  HIT:    5556560  MISS:      56664
cpu0_DTLB LOAD      ACCESS:    5108233  HIT:    5054999  MISS:      53234
cpu0_DTLB RFO       ACCESS:     504991  HIT:     501561  MISS:       3430
cpu0_DTLB PREFETCH  ACCESS:          0  HIT:          0  MISS:          0
cpu0_DTLB WRITEBACK ACCESS:          0  HIT:          0  MISS:          0
cpu0_ITLB TOTAL     ACCESS:    2831368  HIT:    2831368  MISS:          0
cpu0_ITLB LOAD      ACCESS:    2831368  HIT:    2831368  MISS:          0
cpu0_ITLB RFO       ACCESS:          0  HIT:          0  MISS:          0
cpu0_ITLB PREFETCH  ACCESS:          0  HIT:          0  MISS:          0
cpu0_ITLB WRITEBACK ACCESS:          0  HIT:          0  MISS:          0
cpu0_L1I TOTAL     ACCESS:      52309  HIT:      52258  MISS:         51
cpu0_L1I LOAD      ACCESS:      52309  HIT:      52258  MISS:         51
cpu0_L1I RFO       ACCESS:          0  HIT:          0  MISS:          0
cpu0_L1I PREFETCH  ACCESS:          0  HIT:          0  MISS:          0
cpu0_L1I WRITEBACK ACCESS:          0  HIT:          0  MISS:          0
cpu0_STLB TOTAL     ACCESS:      56664  HIT:      36689  MISS:      19975
cpu0_STLB LOAD      ACCESS:      53234  HIT:      33717  MISS:      19517
cpu0_STLB RFO       ACCESS:       3430  HIT:       2972  MISS:        458
cpu0_STLB PREFETCH  ACCESS:          0  HIT:          0  MISS:          0
cpu0_STLB WRITEBACK ACCESS:          0  HIT:          0  MISS:          0
cpu0_L1D TOTAL     ACCESS:    4074900  HIT:    3528949  MISS:     545951
cpu0_L1D LOAD      ACCESS:    3267823  HIT:    2758994  MISS:     508829
cpu0_L1D RFO       ACCESS:     787900  HIT:     750951  MISS:      36949
cpu0_L1D PREFETCH  ACCESS:          0  HIT:          0  MISS:          0
cpu0_L1D WRITEBACK ACCESS:          0  HIT:          0  MISS:          0
cpu0_L2C TOTAL     ACCESS:     604572  HIT:     175050  MISS:     429522
cpu0_L2C LOAD      ACCESS:     508879  HIT:     110876  MISS:     398003
cpu0_L2C RFO       ACCESS:      36948  HIT:       5624  MISS:      31324
cpu0_L2C PREFETCH  ACCESS:          0  HIT:          0  MISS:          0
cpu0_L2C WRITEBACK ACCESS:      58572  HIT:      58458  MISS:        114
LLC TOTAL     ACCESS:     474564  HIT:      48452  MISS:     426112
LLC LOAD      ACCESS:     398003  HIT:       7287  MISS:     390716
LLC RFO       ACCESS:      31324  HIT:        818  MISS:      30506
LLC PREFETCH  ACCESS:          0  HIT:          0  MISS:          0
LLC WRITEBACK ACCESS:      45156  HIT:      40338  MISS:       4818
Heartbeat CPU 0 instructions: 84000000 cycles: 61233731 heartbeat IPC: 0.780175 cumulative IPC: 0.705268 (Simulation time: 1 hr 4 min 44 sec) 

Region of Interest Statistics
cpu0_DTLB TOTAL     ACCESS:    5939829  HIT:    5882426  MISS:      57403
cpu0_DTLB LOAD      ACCESS:    5420110  HIT:    5366157  MISS:      53953
cpu0_DTLB RFO       ACCESS:     519719  HIT:     516269  MISS:       3450
cpu0_DTLB PREFETCH  ACCESS:          0  HIT:          0  MISS:          0
cpu0_DTLB WRITEBACK ACCESS:          0  HIT:          0  MISS:          0
cpu0_ITLB TOTAL     ACCESS:    3019331  HIT:    3019331  MISS:          0
cpu0_ITLB LOAD      ACCESS:    3019331  HIT:    3019331  MISS:          0
cpu0_ITLB RFO       ACCESS:          0  HIT:          0  MISS:          0
cpu0_ITLB PREFETCH  ACCESS:          0  HIT:          0  MISS:          0
cpu0_ITLB WRITEBACK ACCESS:          0  HIT:          0  MISS:          0
cpu0_L1I TOTAL     ACCESS:      52327  HIT:      52276  MISS:         51
cpu0_L1I LOAD      ACCESS:      52327  HIT:      52276  MISS:         51
cpu0_L1I RFO       ACCESS:          0  HIT:          0  MISS:          0
cpu0_L1I PREFETCH  ACCESS:          0  HIT:          0  MISS:          0
cpu0_L1I WRITEBACK ACCESS:          0  HIT:          0  MISS:          0
cpu0_STLB TOTAL     ACCESS:      57403  HIT:      36887  MISS:      20516
cpu0_STLB LOAD      ACCESS:      53953  HIT:      33896  MISS:      20057
cpu0_STLB RFO       ACCESS:       3450  HIT:       2991  MISS:        459
cpu0_STLB PREFETCH  ACCESS:          0  HIT:          0  MISS:          0
cpu0_STLB WRITEBACK ACCESS:          0  HIT:          0  MISS:          0
cpu0_L1D TOTAL     ACCESS:    4279044  HIT:    3705513  MISS:     573531
cpu0_L1D LOAD      ACCESS:    3453862  HIT:    2918378  MISS:     535484
cpu0_L1D RFO       ACCESS:     805484  HIT:     767613  MISS:      37871
cpu0_L1D PREFETCH  ACCESS:          0  HIT:          0  MISS:          0
cpu0_L1D WRITEBACK ACCESS:          0  HIT:          0  MISS:          0
cpu0_L2C TOTAL     ACCESS:     633171  HIT:     176820  MISS:     456351
cpu0_L2C LOAD      ACCESS:     535534  HIT:     111556  MISS:     423978
cpu0_L2C RFO       ACCESS:      37869  HIT:       5694  MISS:      32175
cpu0_L2C PREFETCH  ACCESS:          0  HIT:          0  MISS:          0
cpu0_L2C WRITEBACK ACCESS:      59592  HIT:      59477  MISS:        115
LLC TOTAL     ACCESS:     505162  HIT:      52107  MISS:     453055
LLC LOAD      ACCESS:     423978  HIT:       7404  MISS:     416574
LLC RFO       ACCESS:      32175  HIT:        821  MISS:      31354
LLC PREFETCH  ACCESS:          0  HIT:          0  MISS:          0
LLC WRITEBACK ACCESS:      48926  HIT:      43873  MISS:       5053
Heartbeat CPU 0 instructions: 86000001 cycles: 64545632 heartbeat IPC: 0.603883 cumulative IPC: 0.698751 (Simulation time: 1 hr 7 min 13 sec) 

Region of Interest Statistics
cpu0_DTLB TOTAL     ACCESS:    6305873  HIT:    6241956  MISS:      63917
cpu0_DTLB LOAD      ACCESS:    5741842  HIT:    5681759  MISS:      60083
cpu0_DTLB RFO       ACCESS:     564031  HIT:     560197  MISS:       3834
cpu0_DTLB PREFETCH  ACCESS:          0  HIT:          0  MISS:          0
cpu0_DTLB WRITEBACK ACCESS:          0  HIT:          0  MISS:          0
cpu0_ITLB TOTAL     ACCESS:    3185454  HIT:    3185454  MISS:          0
cpu0_ITLB LOAD      ACCESS:    3185454  HIT:    3185454  MISS:          0
cpu0_ITLB RFO       ACCESS:          0  HIT:          0  MISS:          0
cpu0_ITLB PREFETCH  ACCESS:          0  HIT:          0  MISS:          0
cpu0_ITLB WRITEBACK ACCESS:          0  HIT:          0  MISS:          0
cpu0_L1I TOTAL     ACCESS:      57815  HIT:      57764  MISS:         51
cpu0_L1I LOAD      ACCESS:      57815  HIT:      57764  MISS:         51
cpu0_L1I RFO       ACCESS:          0  HIT:          0  MISS:          0
cpu0_L1I PREFETCH  ACCESS:          0  HIT:          0  MISS:          0
cpu0_L1I WRITEBACK ACCESS:          0  HIT:          0  MISS:          0
cpu0_STLB TOTAL     ACCESS:      63917  HIT:      41323  MISS:      22594
cpu0_STLB LOAD      ACCESS:      60083  HIT:      37998  MISS:      22085
cpu0_STLB RFO       ACCESS:       3834  HIT:       3325  MISS:        509
cpu0_STLB PREFETCH  ACCESS:          0  HIT:          0  MISS:          0
cpu0_STLB WRITEBACK ACCESS:          0  HIT:          0  MISS:          0
cpu0_L1D TOTAL     ACCESS:    4572536  HIT:    3956311  MISS:     616225
cpu0_L1D LOAD      ACCESS:    3674445  HIT:    3099790  MISS:     574655
cpu0_L1D RFO       ACCESS:     876389  HIT:     835017  MISS:      41372
cpu0_L1D PREFETCH  ACCESS:          0  HIT:          0  MISS:          0
cpu0_L1D WRITEBACK ACCESS:          0  HIT:          0  MISS:          0
cpu0_L2C TOTAL     ACCESS:     681956  HIT:     196048  MISS:     485908
cpu0_L2C LOAD      ACCESS:     574705  HIT:     124248  MISS:     450457
cpu0_L2C RFO       ACCESS:      41370  HIT:       6138  MISS:      35232
cpu0_L2C PREFETCH  ACCESS:          0  HIT:          0  MISS:          0
cpu0_L2C WRITEBACK ACCESS:      65683  HIT:      65555  MISS:        128
LLC TOTAL     ACCESS:     536858  HIT:      54636  MISS:     482222
LLC LOAD      ACCESS:     450457  HIT:       7988  MISS:     442469
LLC RFO       ACCESS:      35232  HIT:        915  MISS:      34317
LLC PREFETCH  ACCESS:          0  HIT:          0  MISS:          0
LLC WRITEBACK ACCESS:      51078  HIT:      45724  MISS:       5354
Heartbeat CPU 0 instructions: 88000002 cycles: 66890360 heartbeat IPC: 0.852978 cumulative IPC: 0.705464 (Simulation time: 1 hr 9 min 18 sec) 

Region of Interest Statistics
cpu0_DTLB TOTAL     ACCESS:    6633001  HIT:    6568572  MISS:      64429
cpu0_DTLB LOAD      ACCESS:    6057120  HIT:    5996547  MISS:      60573
cpu0_DTLB RFO       ACCESS:     575881  HIT:     572025  MISS:       3856
cpu0_DTLB PREFETCH  ACCESS:          0  HIT:          0  MISS:          0
cpu0_DTLB WRITEBACK ACCESS:          0  HIT:          0  MISS:          0
cpu0_ITLB TOTAL     ACCESS:    3379522  HIT:    3379522  MISS:          0
cpu0_ITLB LOAD      ACCESS:    3379522  HIT:    3379522  MISS:          0
cpu0_ITLB RFO       ACCESS:          0  HIT:          0  MISS:          0
cpu0_ITLB PREFETCH  ACCESS:          0  HIT:          0  MISS:          0
cpu0_ITLB WRITEBACK ACCESS:          0  HIT:          0  MISS:          0
cpu0_L1I TOTAL     ACCESS:      57841  HIT:      57790  MISS:         51
cpu0_L1I LOAD      ACCESS:      57841  HIT:      57790  MISS:         51
cpu0_L1I RFO       ACCESS:          0  HIT:          0  MISS:          0
cpu0_L1I PREFETCH  ACCESS:          0  HIT:          0  MISS:          0
cpu0_L1I WRITEBACK ACCESS:          0  HIT:          0  MISS:          0
cpu0_STLB TOTAL     ACCESS:      64429  HIT:      41465  MISS:      22964
cpu0_STLB LOAD      ACCESS:      60573  HIT:      38119  MISS:      22454
cpu0_STLB RFO       ACCESS:       3856  HIT:       3346  MISS:        510
cpu0_STLB PREFETCH  ACCESS:          0  HIT:          0  MISS:          0
cpu0_STLB WRITEBACK ACCESS:          0  HIT:          0  MISS:          0
cpu0_L1D TOTAL     ACCESS:    4767353  HIT:    4125118  MISS:     642235
cpu0_L1D LOAD      ACCESS:    3856114  HIT:    3256431  MISS:     599683
cpu0_L1D RFO       ACCESS:     889179  HIT:     846826  MISS:      42353
cpu0_L1D PREFETCH  ACCESS:          0  HIT:          0  MISS:          0
cpu0_L1D WRITEBACK ACCESS:          0  HIT:          0  MISS:          0
cpu0_L2C TOTAL     ACCESS:     708973  HIT:     198612  MISS:     510361
cpu0_L2C LOAD      ACCESS:     599733  HIT:     125577  MISS:     474156
cpu0_L2C RFO       ACCESS:      42351  HIT:       6365  MISS:      35986
cpu0_L2C PREFETCH  ACCESS:          0  HIT:          0  MISS:          0
cpu0_L2C WRITEBACK ACCESS:      66690  HIT:      66562  MISS:        128
LLC TOTAL     ACCESS:     564952  HIT:      58108  MISS:     506844
LLC LOAD      ACCESS:     474156  HIT:       8204  MISS:     465952
LLC RFO       ACCESS:      35986  HIT:        915  MISS:      35071
LLC PREFETCH  ACCESS:          0  HIT:          0  MISS:          0
LLC WRITEBACK ACCESS:      54719  HIT:      48980  MISS:       5739
Heartbeat CPU 0 instructions: 90000001 cycles: 70237845 heartbeat IPC: 0.597463 cumulative IPC: 0.699145 (Simulation time: 1 hr 11 min 54 sec) 

Region of Interest Statistics
cpu0_DTLB TOTAL     ACCESS:    6999220  HIT:    6928406  MISS:      70814
cpu0_DTLB LOAD      ACCESS:    6378151  HIT:    6311536  MISS:      66615
cpu0_DTLB RFO       ACCESS:     621069  HIT:     616870  MISS:       4199
cpu0_DTLB PREFETCH  ACCESS:          0  HIT:          0  MISS:          0
cpu0_DTLB WRITEBACK ACCESS:          0  HIT:          0  MISS:          0
cpu0_ITLB TOTAL     ACCESS:    3544734  HIT:    3544734  MISS:          0
cpu0_ITLB LOAD      ACCESS:    3544734  HIT:    3544734  MISS:          0
cpu0_ITLB RFO       ACCESS:          0  HIT:          0  MISS:          0
cpu0_ITLB PREFETCH  ACCESS:          0  HIT:          0  MISS:          0
cpu0_ITLB WRITEBACK ACCESS:          0  HIT:          0  MISS:          0
cpu0_L1I TOTAL     ACCESS:      61423  HIT:      61372  MISS:         51
cpu0_L1I LOAD      ACCESS:      61423  HIT:      61372  MISS:         51
cpu0_L1I RFO       ACCESS:          0  HIT:          0  MISS:          0
cpu0_L1I PREFETCH  ACCESS:          0  HIT:          0  MISS:          0
cpu0_L1I WRITEBACK ACCESS:          0  HIT:          0  MISS:          0
cpu0_STLB TOTAL     ACCESS:      70814  HIT:      45663  MISS:      25151
cpu0_STLB LOAD      ACCESS:      66615  HIT:      42023  MISS:      24592
cpu0_STLB RFO       ACCESS:       4199  HIT:       3640  MISS:        559
cpu0_STLB PREFETCH  ACCESS:          0  HIT:          0  MISS:          0
cpu0_STLB WRITEBACK ACCESS:          0  HIT:          0  MISS:          0
cpu0_L1D TOTAL     ACCESS:    5064215  HIT:    4379226  MISS:     684989
cpu0_L1D LOAD      ACCESS:    4078509  HIT:    3439610  MISS:     638899
cpu0_L1D RFO       ACCESS:     961546  HIT:     915677  MISS:      45869
cpu0_L1D PREFETCH  ACCESS:          0  HIT:          0  MISS:          0
cpu0_L1D WRITEBACK ACCESS:          0  HIT:          0  MISS:          0
cpu0_L2C TOTAL     ACCESS:     757154  HIT:     216398  MISS:     540756
cpu0_L2C LOAD      ACCESS:     638949  HIT:     137541  MISS:     501408
cpu0_L2C RFO       ACCESS:      45867  HIT:       6762  MISS:      39105
cpu0_L2C PREFETCH  ACCESS:          0  HIT:          0  MISS:          0
cpu0_L2C WRITEBACK ACCESS:      72117  HIT:      71975  MISS:        142
LLC TOTAL     ACCESS:     597331  HIT:      60476  MISS:     536855
LLC LOAD      ACCESS:     501408  HIT:       8778  MISS:     492630
LLC RFO       ACCESS:      39105  HIT:       1005  MISS:      38100
LLC PREFETCH  ACCESS:          0  HIT:          0  MISS:          0
LLC WRITEBACK ACCESS:      56717  HIT:      50684  MISS:       6033
Heartbeat CPU 0 instructions: 92000000 cycles: 72540677 heartbeat IPC: 0.868495 cumulative IPC: 0.705698 (Simulation time: 1 hr 13 min 57 sec) 

Region of Interest Statistics
cpu0_DTLB TOTAL     ACCESS:    7327262  HIT:    7255923  MISS:      71339
cpu0_DTLB LOAD      ACCESS:    6694709  HIT:    6627591  MISS:      67118
cpu0_DTLB RFO       ACCESS:     632553  HIT:     628332  MISS:       4221
cpu0_DTLB PREFETCH  ACCESS:          0  HIT:          0  MISS:          0
cpu0_DTLB WRITEBACK ACCESS:          0  HIT:          0  MISS:          0
cpu0_ITLB TOTAL     ACCESS:    3741725  HIT:    3741725  MISS:          0
cpu0_ITLB LOAD      ACCESS:    3741725  HIT:    3741725  MISS:          0
cpu0_ITLB RFO       ACCESS:          0  HIT:          0  MISS:          0
cpu0_ITLB PREFETCH  ACCESS:          0  HIT:          0  MISS:          0
cpu0_ITLB WRITEBACK ACCESS:          0  HIT:          0  MISS:          0
cpu0_L1I TOTAL     ACCESS:      61449  HIT:      61398  MISS:         51
cpu0_L1I LOAD      ACCESS:      61449  HIT:      61398  MISS:         51
cpu0_L1I RFO       ACCESS:          0  HIT:          0  MISS:          0
cpu0_L1I PREFETCH  ACCESS:          0  HIT:          0  MISS:          0
cpu0_L1I WRITEBACK ACCESS:          0  HIT:          0  MISS:          0
cpu0_STLB TOTAL     ACCESS:      71339  HIT:      45826  MISS:      25513
cpu0_STLB LOAD      ACCESS:      67118  HIT:      42166  MISS:      24952
cpu0_STLB RFO       ACCESS:       4221  HIT:       3660  MISS:        561
cpu0_STLB PREFETCH  ACCESS:          0  HIT:          0  MISS:          0
cpu0_STLB WRITEBACK ACCESS:          0  HIT:          0  MISS:          0
cpu0_L1D TOTAL     ACCESS:    5258490  HIT:    4547657  MISS:     710833
cpu0_L1D LOAD      ACCESS:    4260074  HIT:    3596311  MISS:     663763
cpu0_L1D RFO       ACCESS:     973905  HIT:     927057  MISS:      46848
cpu0_L1D PREFETCH  ACCESS:          0  HIT:          0  MISS:          0
cpu0_L1D WRITEBACK ACCESS:          0  HIT:          0  MISS:          0
cpu0_L2C TOTAL     ACCESS:     784258  HIT:     219631  MISS:     564627
cpu0_L2C LOAD      ACCESS:     663813  HIT:     139271  MISS:     524542
cpu0_L2C RFO       ACCESS:      46846  HIT:       7004  MISS:      39842
cpu0_L2C PREFETCH  ACCESS:          0  HIT:          0  MISS:          0
cpu0_L2C WRITEBACK ACCESS:      73377  HIT:      73235  MISS:        142
LLC TOTAL     ACCESS:     624749  HIT:      63845  MISS:     560904
LLC LOAD      ACCESS:     524542  HIT:       8968  MISS:     515574
LLC RFO       ACCESS:      39842  HIT:       1006  MISS:      38836
LLC PREFETCH  ACCESS:          0  HIT:          0  MISS:          0
LLC WRITEBACK ACCESS:      60264  HIT:      53862  MISS:       6402
Heartbeat CPU 0 instructions: 94000000 cycles: 75742044 heartbeat IPC: 0.624733 cumulative IPC: 0.701565 (Simulation time: 1 hr 16 min 30 sec) 

Region of Interest Statistics
cpu0_DTLB TOTAL     ACCESS:    7691402  HIT:    7614334  MISS:      77068
cpu0_DTLB LOAD      ACCESS:    7017644  HIT:    6945118  MISS:      72526
cpu0_DTLB RFO       ACCESS:     673758  HIT:     669216  MISS:       4542
cpu0_DTLB PREFETCH  ACCESS:          0  HIT:          0  MISS:          0
cpu0_DTLB WRITEBACK ACCESS:          0  HIT:          0  MISS:          0
cpu0_ITLB TOTAL     ACCESS:    3907042  HIT:    3907042  MISS:          0
cpu0_ITLB LOAD      ACCESS:    3907042  HIT:    3907042  MISS:          0
cpu0_ITLB RFO       ACCESS:          0  HIT:          0  MISS:          0
cpu0_ITLB PREFETCH  ACCESS:          0  HIT:          0  MISS:          0
cpu0_ITLB WRITEBACK ACCESS:          0  HIT:          0  MISS:          0
cpu0_L1I TOTAL     ACCESS:      65425  HIT:      65374  MISS:         51
cpu0_L1I LOAD      ACCESS:      65425  HIT:      65374  MISS:         51
cpu0_L1I RFO       ACCESS:          0  HIT:          0  MISS:          0
cpu0_L1I PREFETCH  ACCESS:          0  HIT:          0  MISS:          0
cpu0_L1I WRITEBACK ACCESS:          0  HIT:          0  MISS:          0
cpu0_STLB TOTAL     ACCESS:      77068  HIT:      49495  MISS:      27573
cpu0_STLB LOAD      ACCESS:      72526  HIT:      45565  MISS:      26961
cpu0_STLB RFO       ACCESS:       4542  HIT:       3930  MISS:        612
cpu0_STLB PREFETCH  ACCESS:          0  HIT:          0  MISS:          0
cpu0_STLB WRITEBACK ACCESS:          0  HIT:          0  MISS:          0
cpu0_L1D TOTAL     ACCESS:    5542263  HIT:    4790817  MISS:     751446
cpu0_L1D LOAD      ACCESS:    4477387  HIT:    3776469  MISS:     700918
cpu0_L1D RFO       ACCESS:    1038396  HIT:     988109  MISS:      50287
cpu0_L1D PREFETCH  ACCESS:          0  HIT:          0  MISS:          0
cpu0_L1D WRITEBACK ACCESS:          0  HIT:          0  MISS:          0
cpu0_L2C TOTAL     ACCESS:     830059  HIT:     236168  MISS:     593891
cpu0_L2C LOAD      ACCESS:     700968  HIT:     150288  MISS:     550680
cpu0_L2C RFO       ACCESS:      50285  HIT:       7337  MISS:      42948
cpu0_L2C PREFETCH  ACCESS:          0  HIT:          0  MISS:          0
cpu0_L2C WRITEBACK ACCESS:      78565  HIT:      78411  MISS:        154
LLC TOTAL     ACCESS:     655765  HIT:      66028  MISS:     589737
LLC LOAD      ACCESS:     550680  HIT:       9573  MISS:     541107
LLC RFO       ACCESS:      42948  HIT:       1091  MISS:      41857
LLC PREFETCH  ACCESS:          0  HIT:          0  MISS:          0
LLC WRITEBACK ACCESS:      62028  HIT:      55353  MISS:       6675
Heartbeat CPU 0 instructions: 96000002 cycles: 78082911 heartbeat IPC: 0.854385 cumulative IPC: 0.707064 (Simulation time: 1 hr 18 min 35 sec) 

Region of Interest Statistics
cpu0_DTLB TOTAL     ACCESS:    8017786  HIT:    7940212  MISS:      77574
cpu0_DTLB LOAD      ACCESS:    7332320  HIT:    7259309  MISS:      73011
cpu0_DTLB RFO       ACCESS:     685466  HIT:     680903  MISS:       4563
cpu0_DTLB PREFETCH  ACCESS:          0  HIT:          0  MISS:          0
cpu0_DTLB WRITEBACK ACCESS:          0  HIT:          0  MISS:          0
cpu0_ITLB TOTAL     ACCESS:    4101371  HIT:    4101371  MISS:          0
cpu0_ITLB LOAD      ACCESS:    4101371  HIT:    4101371  MISS:          0
cpu0_ITLB RFO       ACCESS:          0  HIT:          0  MISS:          0
cpu0_ITLB PREFETCH  ACCESS:          0  HIT:          0  MISS:          0
cpu0_ITLB WRITEBACK ACCESS:          0  HIT:          0  MISS:          0
cpu0_L1I TOTAL     ACCESS:      65451  HIT:      65400  MISS:         51
cpu0_L1I LOAD      ACCESS:      65451  HIT:      65400  MISS:         51
cpu0_L1I RFO       ACCESS:          0  HIT:          0  MISS:          0
cpu0_L1I PREFETCH  ACCESS:          0  HIT:          0  MISS:          0
cpu0_L1I WRITEBACK ACCESS:          0  HIT:          0  MISS:          0
cpu0_STLB TOTAL     ACCESS:      77574  HIT:      49629  MISS:      27945
cpu0_STLB LOAD      ACCESS:      73011  HIT:      45679  MISS:      27332
cpu0_STLB RFO       ACCESS:       4563  HIT:       3950  MISS:        613
cpu0_STLB PREFETCH  ACCESS:          0  HIT:          0  MISS:          0
cpu0_STLB WRITEBACK ACCESS:          0  HIT:          0  MISS:          0
cpu0_L1D TOTAL     ACCESS:    5736582  HIT:    4959199  MISS:     777383
cpu0_L1D LOAD      ACCESS:    4658924  HIT:    3933020  MISS:     725904
cpu0_L1D RFO       ACCESS:    1050818  HIT:     999581  MISS:      51237
cpu0_L1D PREFETCH  ACCESS:          0  HIT:          0  MISS:          0
cpu0_L1D WRITEBACK ACCESS:          0  HIT:          0  MISS:          0
cpu0_L2C TOTAL     ACCESS:     856978  HIT:     238545  MISS:     618433
cpu0_L2C LOAD      ACCESS:     725954  HIT:     151493  MISS:     574461
cpu0_L2C RFO       ACCESS:      51235  HIT:       7526  MISS:      43709
cpu0_L2C PREFETCH  ACCESS:          0  HIT:          0  MISS:          0
cpu0_L2C WRITEBACK ACCESS:      79547  HIT:      79393  MISS:        154
LLC TOTAL     ACCESS:     683800  HIT:      69273  MISS:     614527
LLC LOAD      ACCESS:     574461  HIT:       9712  MISS:     564749
LLC RFO       ACCESS:      43709  HIT:       1093  MISS:      42616
LLC PREFETCH  ACCESS:          0  HIT:          0  MISS:          0
LLC WRITEBACK ACCESS:      65521  HIT:      58457  MISS:       7064
Heartbeat CPU 0 instructions: 98000001 cycles: 81225636 heartbeat IPC: 0.63639 cumulative IPC: 0.703807 (Simulation time: 1 hr 21 min 9 sec) 

Region of Interest Statistics
cpu0_DTLB TOTAL     ACCESS:    8383482  HIT:    8300307  MISS:      83175
cpu0_DTLB LOAD      ACCESS:    7657871  HIT:    7579605  MISS:      78266
cpu0_DTLB RFO       ACCESS:     725611  HIT:     720702  MISS:       4909
cpu0_DTLB PREFETCH  ACCESS:          0  HIT:          0  MISS:          0
cpu0_DTLB WRITEBACK ACCESS:          0  HIT:          0  MISS:          0
cpu0_ITLB TOTAL     ACCESS:    4267500  HIT:    4267500  MISS:          0
cpu0_ITLB LOAD      ACCESS:    4267500  HIT:    4267500  MISS:          0
cpu0_ITLB RFO       ACCESS:          0  HIT:          0  MISS:          0
cpu0_ITLB PREFETCH  ACCESS:          0  HIT:          0  MISS:          0
cpu0_ITLB WRITEBACK ACCESS:          0  HIT:          0  MISS:          0
cpu0_L1I TOTAL     ACCESS:      69075  HIT:      69024  MISS:         51
cpu0_L1I LOAD      ACCESS:      69075  HIT:      69024  MISS:         51
cpu0_L1I RFO       ACCESS:          0  HIT:          0  MISS:          0
cpu0_L1I PREFETCH  ACCESS:          0  HIT:          0  MISS:          0
cpu0_L1I WRITEBACK ACCESS:          0  HIT:          0  MISS:          0
cpu0_STLB TOTAL     ACCESS:      83175  HIT:      53209  MISS:      29966
cpu0_STLB LOAD      ACCESS:      78266  HIT:      48963  MISS:      29303
cpu0_STLB RFO       ACCESS:       4909  HIT:       4246  MISS:        663
cpu0_STLB PREFETCH  ACCESS:          0  HIT:          0  MISS:          0
cpu0_STLB WRITEBACK ACCESS:          0  HIT:          0  MISS:          0
cpu0_L1D TOTAL     ACCESS:    6017448  HIT:    5199990  MISS:     817458
cpu0_L1D LOAD      ACCESS:    4875389  HIT:    4112884  MISS:     762505
cpu0_L1D RFO       ACCESS:    1113293  HIT:    1058602  MISS:      54691
cpu0_L1D PREFETCH  ACCESS:          0  HIT:          0  MISS:          0
cpu0_L1D WRITEBACK ACCESS:          0  HIT:          0  MISS:          0
cpu0_L2C TOTAL     ACCESS:     902286  HIT:     255235  MISS:     647051
cpu0_L2C LOAD      ACCESS:     762555  HIT:     162600  MISS:     599955
cpu0_L2C RFO       ACCESS:      54689  HIT:       7877  MISS:      46812
cpu0_L2C PREFETCH  ACCESS:          0  HIT:          0  MISS:          0
cpu0_L2C WRITEBACK ACCESS:      84780  HIT:      84614  MISS:        166
LLC TOTAL     ACCESS:     714220  HIT:      71513  MISS:     642707
LLC LOAD      ACCESS:     599955  HIT:      10310  MISS:     589645
LLC RFO       ACCESS:      46812  HIT:       1184  MISS:      45628
LLC PREFETCH  ACCESS:          0  HIT:          0  MISS:          0
LLC WRITEBACK ACCESS:      67335  HIT:      60006  MISS:       7329
Heartbeat CPU 0 instructions: 100000004 cycles: 83667596 heartbeat IPC: 0.819015 cumulative IPC: 0.707789 (Simulation time: 1 hr 23 min 21 sec) 

Region of Interest Statistics
cpu0_DTLB TOTAL     ACCESS:    8710398  HIT:    8626622  MISS:      83776
cpu0_DTLB LOAD      ACCESS:    7971508  HIT:    7892662  MISS:      78846
cpu0_DTLB RFO       ACCESS:     738890  HIT:     733960  MISS:       4930
cpu0_DTLB PREFETCH  ACCESS:          0  HIT:          0  MISS:          0
cpu0_DTLB WRITEBACK ACCESS:          0  HIT:          0  MISS:          0
cpu0_ITLB TOTAL     ACCESS:    4457616  HIT:    4457616  MISS:          0
cpu0_ITLB LOAD      ACCESS:    4457616  HIT:    4457616  MISS:          0
cpu0_ITLB RFO       ACCESS:          0  HIT:          0  MISS:          0
cpu0_ITLB PREFETCH  ACCESS:          0  HIT:          0  MISS:          0
cpu0_ITLB WRITEBACK ACCESS:          0  HIT:          0  MISS:          0
cpu0_L1I TOTAL     ACCESS:      69101  HIT:      69050  MISS:         51
cpu0_L1I LOAD      ACCESS:      69101  HIT:      69050  MISS:         51
cpu0_L1I RFO       ACCESS:          0  HIT:          0  MISS:          0
cpu0_L1I PREFETCH  ACCESS:          0  HIT:          0  MISS:          0
cpu0_L1I WRITEBACK ACCESS:          0  HIT:          0  MISS:          0
cpu0_STLB TOTAL     ACCESS:      83776  HIT:      53360  MISS:      30416
cpu0_STLB LOAD      ACCESS:      78846  HIT:      49094  MISS:      29752
cpu0_STLB RFO       ACCESS:       4930  HIT:       4266  MISS:        664
cpu0_STLB PREFETCH  ACCESS:          0  HIT:          0  MISS:          0
cpu0_STLB WRITEBACK ACCESS:          0  HIT:          0  MISS:          0
cpu0_L1D TOTAL     ACCESS:    6216338  HIT:    5372240  MISS:     844098
cpu0_L1D LOAD      ACCESS:    5059213  HIT:    4271050  MISS:     788163
cpu0_L1D RFO       ACCESS:    1127927  HIT:    1072257  MISS:      55670
cpu0_L1D PREFETCH  ACCESS:          0  HIT:          0  MISS:          0
cpu0_L1D WRITEBACK ACCESS:          0  HIT:          0  MISS:          0
cpu0_L2C TOTAL     ACCESS:     929931  HIT:     257134  MISS:     672797
cpu0_L2C LOAD      ACCESS:     788213  HIT:     163344  MISS:     624869
cpu0_L2C RFO       ACCESS:      55668  HIT:       8027  MISS:      47641
cpu0_L2C PREFETCH  ACCESS:          0  HIT:          0  MISS:          0
cpu0_L2C WRITEBACK ACCESS:      85785  HIT:      85618  MISS:        167
LLC TOTAL     ACCESS:     743659  HIT:      75078  MISS:     668581
LLC LOAD      ACCESS:     624869  HIT:      10451  MISS:     614418
LLC RFO       ACCESS:      47641  HIT:       1186  MISS:      46455
LLC PREFETCH  ACCESS:          0  HIT:          0  MISS:          0
LLC WRITEBACK ACCESS:      71029  HIT:      63428  MISS:       7601
Heartbeat CPU 0 instructions: 102000001 cycles: 86666948 heartbeat IPC: 0.66681 cumulative IPC: 0.70612 (Simulation time: 1 hr 25 min 51 sec) 

Region of Interest Statistics
cpu0_DTLB TOTAL     ACCESS:    9075092  HIT:    8985683  MISS:      89409
cpu0_DTLB LOAD      ACCESS:    8296038  HIT:    8211909  MISS:      84129
cpu0_DTLB RFO       ACCESS:     779054  HIT:     773774  MISS:       5280
cpu0_DTLB PREFETCH  ACCESS:          0  HIT:          0  MISS:          0
cpu0_DTLB WRITEBACK ACCESS:          0  HIT:          0  MISS:          0
cpu0_ITLB TOTAL     ACCESS:    4627331  HIT:    4627331  MISS:          0
cpu0_ITLB LOAD      ACCESS:    4627331  HIT:    4627331  MISS:          0
cpu0_ITLB RFO       ACCESS:          0  HIT:          0  MISS:          0
cpu0_ITLB PREFETCH  ACCESS:          0  HIT:          0  MISS:          0
cpu0_ITLB WRITEBACK ACCESS:          0  HIT:          0  MISS:          0
cpu0_L1I TOTAL     ACCESS:      73142  HIT:      73091  MISS:         51
cpu0_L1I LOAD      ACCESS:      73142  HIT:      73091  MISS:         51
cpu0_L1I RFO       ACCESS:          0  HIT:          0  MISS:          0
cpu0_L1I PREFETCH  ACCESS:          0  HIT:          0  MISS:          0
cpu0_L1I WRITEBACK ACCESS:          0  HIT:          0  MISS:          0
cpu0_STLB TOTAL     ACCESS:      89409  HIT:      57047  MISS:      32362
cpu0_STLB LOAD      ACCESS:      84129  HIT:      52483  MISS:      31646
cpu0_STLB RFO       ACCESS:       5280  HIT:       4564  MISS:        716
cpu0_STLB PREFETCH  ACCESS:          0  HIT:          0  MISS:          0
cpu0_STLB WRITEBACK ACCESS:          0  HIT:          0  MISS:          0
cpu0_L1D TOTAL     ACCESS:    6495035  HIT:    5610890  MISS:     884145
cpu0_L1D LOAD      ACCESS:    5274369  HIT:    4449784  MISS:     824585
cpu0_L1D RFO       ACCESS:    1189611  HIT:    1130338  MISS:      59273
cpu0_L1D PREFETCH  ACCESS:          0  HIT:          0  MISS:          0
cpu0_L1D WRITEBACK ACCESS:          0  HIT:          0  MISS:          0
cpu0_L2C TOTAL     ACCESS:     975844  HIT:     275708  MISS:     700136
cpu0_L2C LOAD      ACCESS:     824635  HIT:     175492  MISS:     649143
cpu0_L2C RFO       ACCESS:      59271  HIT:       8584  MISS:      50687
cpu0_L2C PREFETCH  ACCESS:          0  HIT:          0  MISS:          0
cpu0_L2C WRITEBACK ACCESS:      91651  HIT:      91473  MISS:        178
LLC TOTAL     ACCESS:     773095  HIT:      77714  MISS:     695381
LLC LOAD      ACCESS:     649143  HIT:      11181  MISS:     637962
LLC RFO       ACCESS:      50687  HIT:       1269  MISS:      49418
LLC PREFETCH  ACCESS:          0  HIT:          0  MISS:          0
LLC WRITEBACK ACCESS:      73137  HIT:      65248  MISS:       7889
Heartbeat CPU 0 instructions: 104000003 cycles: 89269038 heartbeat IPC: 0.768614 cumulative IPC: 0.708253 (Simulation time: 1 hr 28 min 6 sec) 

Region of Interest Statistics
cpu0_DTLB TOTAL     ACCESS:    9403368  HIT:    9313016  MISS:      90352
cpu0_DTLB LOAD      ACCESS:    8608831  HIT:    8523777  MISS:      85054
cpu0_DTLB RFO       ACCESS:     794537  HIT:     789239  MISS:       5298
cpu0_DTLB PREFETCH  ACCESS:          0  HIT:          0  MISS:          0
cpu0_DTLB WRITEBACK ACCESS:          0  HIT:          0  MISS:          0
cpu0_ITLB TOTAL     ACCESS:    4814546  HIT:    4814546  MISS:          0
cpu0_ITLB LOAD      ACCESS:    4814546  HIT:    4814546  MISS:          0
cpu0_ITLB RFO       ACCESS:          0  HIT:          0  MISS:          0
cpu0_ITLB PREFETCH  ACCESS:          0  HIT:          0  MISS:          0
cpu0_ITLB WRITEBACK ACCESS:          0  HIT:          0  MISS:          0
cpu0_L1I TOTAL     ACCESS:      73148  HIT:      73097  MISS:         51
cpu0_L1I LOAD      ACCESS:      73148  HIT:      73097  MISS:         51
cpu0_L1I RFO       ACCESS:          0  HIT:          0  MISS:          0
cpu0_L1I PREFETCH  ACCESS:          0  HIT:          0  MISS:          0
cpu0_L1I WRITEBACK ACCESS:          0  HIT:          0  MISS:          0
cpu0_STLB TOTAL     ACCESS:      90352  HIT:      57325  MISS:      33027
cpu0_STLB LOAD      ACCESS:      85054  HIT:      52746  MISS:      32308
cpu0_STLB RFO       ACCESS:       5298  HIT:       4579  MISS:        719
cpu0_STLB PREFETCH  ACCESS:          0  HIT:          0  MISS:          0
cpu0_STLB WRITEBACK ACCESS:          0  HIT:          0  MISS:          0
cpu0_L1D TOTAL     ACCESS:    6703413  HIT:    5791111  MISS:     912302
cpu0_L1D LOAD      ACCESS:    5462794  HIT:    4610938  MISS:     851856
cpu0_L1D RFO       ACCESS:    1208926  HIT:    1148769  MISS:      60157
cpu0_L1D PREFETCH  ACCESS:          0  HIT:          0  MISS:          0
cpu0_L1D WRITEBACK ACCESS:          0  HIT:          0  MISS:          0
cpu0_L2C TOTAL     ACCESS:    1004906  HIT:     277755  MISS:     727151
cpu0_L2C LOAD      ACCESS:     851906  HIT:     176635  MISS:     675271
cpu0_L2C RFO       ACCESS:      60155  HIT:       8584  MISS:      51571
cpu0_L2C PREFETCH  ACCESS:          0  HIT:          0  MISS:          0
cpu0_L2C WRITEBACK ACCESS:      92556  HIT:      92377  MISS:        179
LLC TOTAL     ACCESS:     803638  HIT:      80968  MISS:     722670
LLC LOAD      ACCESS:     675271  HIT:      11282  MISS:     663989
LLC RFO       ACCESS:      51571  HIT:       1271  MISS:      50300
LLC PREFETCH  ACCESS:          0  HIT:          0  MISS:          0
LLC WRITEBACK ACCESS:      76666  HIT:      68399  MISS:       8267
Heartbeat CPU 0 instructions: 106000002 cycles: 91488642 heartbeat IPC: 0.901061 cumulative IPC: 0.713707 (Simulation time: 1 hr 30 min 2 sec) 

Region of Interest Statistics
cpu0_DTLB TOTAL     ACCESS:    9803107  HIT:    9708549  MISS:      94558
cpu0_DTLB LOAD      ACCESS:    8910957  HIT:    8821919  MISS:      89038
cpu0_DTLB RFO       ACCESS:     892150  HIT:     886630  MISS:       5520
cpu0_DTLB PREFETCH  ACCESS:          0  HIT:          0  MISS:          0
cpu0_DTLB WRITEBACK ACCESS:          0  HIT:          0  MISS:          0
cpu0_ITLB TOTAL     ACCESS:    4969171  HIT:    4969171  MISS:          0
cpu0_ITLB LOAD      ACCESS:    4969171  HIT:    4969171  MISS:          0
cpu0_ITLB RFO       ACCESS:          0  HIT:          0  MISS:          0
cpu0_ITLB PREFETCH  ACCESS:          0  HIT:          0  MISS:          0
cpu0_ITLB WRITEBACK ACCESS:          0  HIT:          0  MISS:          0
cpu0_L1I TOTAL     ACCESS:      97659  HIT:      97573  MISS:         86
cpu0_L1I LOAD      ACCESS:      97659  HIT:      97573  MISS:         86
cpu0_L1I RFO       ACCESS:          0  HIT:          0  MISS:          0
cpu0_L1I PREFETCH  ACCESS:          0  HIT:          0  MISS:          0
cpu0_L1I WRITEBACK ACCESS:          0  HIT:          0  MISS:          0
cpu0_STLB TOTAL     ACCESS:      94558  HIT:      60012  MISS:      34546
cpu0_STLB LOAD      ACCESS:      89038  HIT:      55241  MISS:      33797
cpu0_STLB RFO       ACCESS:       5520  HIT:       4771  MISS:        749
cpu0_STLB PREFETCH  ACCESS:          0  HIT:          0  MISS:          0
cpu0_STLB WRITEBACK ACCESS:          0  HIT:          0  MISS:          0
cpu0_L1D TOTAL     ACCESS:    7142899  HIT:    6206723  MISS:     936176
cpu0_L1D LOAD      ACCESS:    5715424  HIT:    4841572  MISS:     873852
cpu0_L1D RFO       ACCESS:    1394340  HIT:    1332324  MISS:      62016
cpu0_L1D PREFETCH  ACCESS:          0  HIT:          0  MISS:          0
cpu0_L1D WRITEBACK ACCESS:          0  HIT:          0  MISS:          0
cpu0_L2C TOTAL     ACCESS:    1032332  HIT:     290481  MISS:     741851
cpu0_L2C LOAD      ACCESS:     873937  HIT:     185305  MISS:     688632
cpu0_L2C RFO       ACCESS:      62014  HIT:       9122  MISS:      52892
cpu0_L2C PREFETCH  ACCESS:          0  HIT:          0  MISS:          0
[...]
cpu0_DTLB LOAD      ACCESS:  239633978  HIT:  237642588  MISS:    1991390
cpu0_DTLB RFO       ACCESS:   20078407  HIT:   19943512  MISS:     134895
cpu0_DTLB PREFETCH  ACCESS:          0  HIT:          0  MISS:          0
cpu0_DTLB WRITEBACK ACCESS:          0  HIT:          0  MISS:          0
cpu0_ITLB TOTAL     ACCESS:  132416068  HIT:  132416041  MISS:         27
cpu0_ITLB LOAD      ACCESS:  132416068  HIT:  132416041  MISS:         27
cpu0_ITLB RFO       ACCESS:          0  HIT:          0  MISS:          0
cpu0_ITLB PREFETCH  ACCESS:          0  HIT:          0  MISS:          0
cpu0_ITLB WRITEBACK ACCESS:          0  HIT:          0  MISS:          0
cpu0_L1I TOTAL     ACCESS:    1970798  HIT:    1968705  MISS:       2093
cpu0_L1I LOAD      ACCESS:    1970798  HIT:    1968705  MISS:       2093
cpu0_L1I RFO       ACCESS:          0  HIT:          0  MISS:          0
cpu0_L1I PREFETCH  ACCESS:          0  HIT:          0  MISS:          0
cpu0_L1I WRITEBACK ACCESS:          0  HIT:          0  MISS:          0
cpu0_STLB TOTAL     ACCESS:    2126312  HIT:    1349115  MISS:     777197
cpu0_STLB LOAD      ACCESS:    1991417  HIT:    1233876  MISS:     757541
cpu0_STLB RFO       ACCESS:     134895  HIT:     115239  MISS:      19656
cpu0_STLB PREFETCH  ACCESS:          0  HIT:          0  MISS:          0
cpu0_STLB WRITEBACK ACCESS:          0  HIT:          0  MISS:          0
cpu0_L1D TOTAL     ACCESS:  178691694  HIT:  154894420  MISS:   23797274
cpu0_L1D LOAD      ACCESS:  148967693  HIT:  126874817  MISS:   22092876
cpu0_L1D RFO       ACCESS:   28983264  HIT:   27285793  MISS:    1697471
cpu0_L1D PREFETCH  ACCESS:          0  HIT:          0  MISS:          0
cpu0_L1D WRITEBACK ACCESS:          0  HIT:          0  MISS:          0
cpu0_L2C TOTAL     ACCESS:   26204537  HIT:    6593315  MISS:   19611222
cpu0_L2C LOAD      ACCESS:   22094865  HIT:    3991432  MISS:   18103433
cpu0_L2C RFO       ACCESS:    1697329  HIT:     197405  MISS:    1499924
cpu0_L2C PREFETCH  ACCESS:          0  HIT:          0  MISS:          0
cpu0_L2C WRITEBACK ACCESS:    2405416  HIT:    2400771  MISS:       4645
LLC TOTAL     ACCESS:   21681948  HIT:    2173396  MISS:   19508552
LLC LOAD      ACCESS:   18103414  HIT:     289702  MISS:   17813712
LLC RFO       ACCESS:    1499924  HIT:      33080  MISS:    1466844
LLC PREFETCH  ACCESS:          0  HIT:          0  MISS:          0
LLC WRITEBACK ACCESS:    2075390  HIT:    1850201  MISS:     225189
Heartbeat CPU 0 instructions: 1550000003 cycles: 2040354614 heartbeat IPC: 0.856555 cumulative IPC: 0.73989 (Simulation time: 20 hr 40 min 8 sec) 

Region of Interest Statistics
cpu0_DTLB TOTAL     ACCESS:  260042953  HIT:  257916130  MISS:    2126823
cpu0_DTLB LOAD      ACCESS:  239952608  HIT:  237960701  MISS:    1991907
cpu0_DTLB RFO       ACCESS:   20090345  HIT:   19955429  MISS:     134916
cpu0_DTLB PREFETCH  ACCESS:          0  HIT:          0  MISS:          0
cpu0_DTLB WRITEBACK ACCESS:          0  HIT:          0  MISS:          0
cpu0_ITLB TOTAL     ACCESS:  132608704  HIT:  132608677  MISS:         27
cpu0_ITLB LOAD      ACCESS:  132608704  HIT:  132608677  MISS:         27
cpu0_ITLB RFO       ACCESS:          0  HIT:          0  MISS:          0
cpu0_ITLB PREFETCH  ACCESS:          0  HIT:          0  MISS:          0
cpu0_ITLB WRITEBACK ACCESS:          0  HIT:          0  MISS:          0
cpu0_L1I TOTAL     ACCESS:    1970824  HIT:    1968731  MISS:       2093
cpu0_L1I LOAD      ACCESS:    1970824  HIT:    1968731  MISS:       2093
cpu0_L1I RFO       ACCESS:          0  HIT:          0  MISS:          0
cpu0_L1I PREFETCH  ACCESS:          0  HIT:          0  MISS:          0
cpu0_L1I WRITEBACK ACCESS:          0  HIT:          0  MISS:          0
cpu0_STLB TOTAL     ACCESS:    2126850  HIT:    1349297  MISS:     777553
cpu0_STLB LOAD      ACCESS:    1991934  HIT:    1234038  MISS:     757896
cpu0_STLB RFO       ACCESS:     134916  HIT:     115259  MISS:      19657
cpu0_STLB PREFETCH  ACCESS:          0  HIT:          0  MISS:          0
cpu0_STLB WRITEBACK ACCESS:          0  HIT:          0  MISS:          0
cpu0_L1D TOTAL     ACCESS:  178887697  HIT:  155064356  MISS:   23823341
cpu0_L1D LOAD      ACCESS:  149149845  HIT:  127031880  MISS:   22117965
cpu0_L1D RFO       ACCESS:   28996770  HIT:   27298322  MISS:    1698448
cpu0_L1D PREFETCH  ACCESS:          0  HIT:          0  MISS:          0
cpu0_L1D WRITEBACK ACCESS:          0  HIT:          0  MISS:          0
cpu0_L2C TOTAL     ACCESS:   26231995  HIT:    6596795  MISS:   19635200
cpu0_L2C LOAD      ACCESS:   22119954  HIT:    3993265  MISS:   18126689
cpu0_L2C RFO       ACCESS:    1698306  HIT:     197660  MISS:    1500646
cpu0_L2C PREFETCH  ACCESS:          0  HIT:          0  MISS:          0
cpu0_L2C WRITEBACK ACCESS:    2406807  HIT:    2402162  MISS:       4645
LLC TOTAL     ACCESS:   21709712  HIT:    2177074  MISS:   19532638
LLC LOAD      ACCESS:   18126670  HIT:     290192  MISS:   17836478
LLC RFO       ACCESS:    1500646  HIT:      33080  MISS:    1467566
LLC PREFETCH  ACCESS:          0  HIT:          0  MISS:          0
LLC WRITEBACK ACCESS:    2079176  HIT:    1853389  MISS:     225787
Finished CPU 0 instructions: 1500000004 cycles: 2027329498 cumulative IPC: 0.73989 (Simulation time: 20 hr 40 min 8 sec) 

ChampSim completed all CPUs

Region of Interest Statistics

CPU 0 cumulative IPC: 0.73989 instructions: 1500000004 cycles: 2027329498
cpu0_DTLB TOTAL     ACCESS:  260042953  HIT:  257916130  MISS:    2126823
cpu0_DTLB LOAD      ACCESS:  239952608  HIT:  237960701  MISS:    1991907
cpu0_DTLB RFO       ACCESS:   20090345  HIT:   19955429  MISS:     134916
cpu0_DTLB PREFETCH  ACCESS:          0  HIT:          0  MISS:          0
cpu0_DTLB WRITEBACK ACCESS:          0  HIT:          0  MISS:          0
cpu0_DTLB TRANSLATION ACCESS:          0  HIT:          0  MISS:          0
cpu0_DTLB PREFETCH  REQUESTED:          0  ISSUED:          0  USEFUL:          0  USELESS:          0
cpu0_DTLB AVERAGE MISS LATENCY: 12.3944 cycles
cpu0_ITLB TOTAL     ACCESS:  132608704  HIT:  132608677  MISS:         27
cpu0_ITLB LOAD      ACCESS:  132608704  HIT:  132608677  MISS:         27
cpu0_ITLB RFO       ACCESS:          0  HIT:          0  MISS:          0
cpu0_ITLB PREFETCH  ACCESS:          0  HIT:          0  MISS:          0
cpu0_ITLB WRITEBACK ACCESS:          0  HIT:          0  MISS:          0
cpu0_ITLB TRANSLATION ACCESS:          0  HIT:          0  MISS:          0
cpu0_ITLB PREFETCH  REQUESTED:          0  ISSUED:          0  USEFUL:          0  USELESS:          0
cpu0_ITLB AVERAGE MISS LATENCY: 173.778 cycles
cpu0_L1I TOTAL     ACCESS:    1970824  HIT:    1968731  MISS:       2093
cpu0_L1I LOAD      ACCESS:    1970824  HIT:    1968731  MISS:       2093
cpu0_L1I RFO       ACCESS:          0  HIT:          0  MISS:          0
cpu0_L1I PREFETCH  ACCESS:          0  HIT:          0  MISS:          0
cpu0_L1I WRITEBACK ACCESS:          0  HIT:          0  MISS:          0
cpu0_L1I TRANSLATION ACCESS:          0  HIT:          0  MISS:          0
cpu0_L1I PREFETCH  REQUESTED:          0  ISSUED:          0  USEFUL:          0  USELESS:          0
cpu0_L1I AVERAGE MISS LATENCY: 226.662 cycles
cpu0_STLB TOTAL     ACCESS:    2126850  HIT:    1349297  MISS:     777553
cpu0_STLB LOAD      ACCESS:    1991934  HIT:    1234038  MISS:     757896
cpu0_STLB RFO       ACCESS:     134916  HIT:     115259  MISS:      19657
cpu0_STLB PREFETCH  ACCESS:          0  HIT:          0  MISS:          0
cpu0_STLB WRITEBACK ACCESS:          0  HIT:          0  MISS:          0
cpu0_STLB TRANSLATION ACCESS:          0  HIT:          0  MISS:          0
cpu0_STLB PREFETCH  REQUESTED:          0  ISSUED:          0  USEFUL:          0  USELESS:          0
cpu0_STLB AVERAGE MISS LATENCY: 9.22387 cycles
cpu0_L1D TOTAL     ACCESS:  178887697  HIT:  155064356  MISS:   23823341
cpu0_L1D LOAD      ACCESS:  149149845  HIT:  127031880  MISS:   22117965
cpu0_L1D RFO       ACCESS:   28996770  HIT:   27298322  MISS:    1698448
cpu0_L1D PREFETCH  ACCESS:          0  HIT:          0  MISS:          0
cpu0_L1D WRITEBACK ACCESS:          0  HIT:          0  MISS:          0
cpu0_L1D TRANSLATION ACCESS:     741082  HIT:     734154  MISS:       6928
cpu0_L1D PREFETCH  REQUESTED:          0  ISSUED:          0  USEFUL:          0  USELESS:          0
cpu0_L1D AVERAGE MISS LATENCY: 221.375 cycles
cpu0_L2C TOTAL     ACCESS:   26231995  HIT:    6596795  MISS:   19635200
cpu0_L2C LOAD      ACCESS:   22119954  HIT:    3993265  MISS:   18126689
cpu0_L2C RFO       ACCESS:    1698306  HIT:     197660  MISS:    1500646
cpu0_L2C PREFETCH  ACCESS:          0  HIT:          0  MISS:          0
cpu0_L2C WRITEBACK ACCESS:    2406807  HIT:    2402162  MISS:       4645
cpu0_L2C TRANSLATION ACCESS:       6928  HIT:       3708  MISS:       3220
cpu0_L2C PREFETCH  REQUESTED:          0  ISSUED:          0  USEFUL:          0  USELESS:          0
cpu0_L2C AVERAGE MISS LATENCY: 255.23 cycles
LLC TOTAL     ACCESS:   21709712  HIT:    2177074  MISS:   19532638
LLC LOAD      ACCESS:   18126670  HIT:     290192  MISS:   17836478
LLC RFO       ACCESS:    1500646  HIT:      33080  MISS:    1467566
LLC PREFETCH  ACCESS:          0  HIT:          0  MISS:          0
LLC WRITEBACK ACCESS:    2079176  HIT:    1853389  MISS:     225787
LLC TRANSLATION ACCESS:       3220  HIT:        413  MISS:       2807
LLC PREFETCH  REQUESTED:          0  ISSUED:          0  USEFUL:          0  USELESS:          0
LLC AVERAGE MISS LATENCY: 235.465 cycles
~~~~~~~~~~Reuse Distance Profiler output~~~~~~~~~~
0	0	0
1	0	0
2	0	0
3	0	0
4	0	0
5	0	0
6	0	0
7	0	0
8	0	0
9	0	0
10	0	0
11	0	0
12	0	0
13	0	0
14	0	0
15	0	0
16	0	0
17	0	0
18	0	0
19	0	0
20	0	0
21	0	0
22	0	0
23	0	0
24	0	0
25	0	0
26	0	0
27	0	0
28	0	0
29	0	0
30	0	0
31	0	0
32	0	0
33	0	0
34	0	0
35	0	0
36	0	0
37	0	0
38	0	0
39	0	0
40	0	0
41	0	0
42	0	0
43	0	0
44	0	0
45	0	0
46	0	0
47	0	0
48	0	0
49	0	0
50	0	0
51	0	0
52	0	0
53	0	0
54	0	0
55	0	0
56	0	0
57	0	0
58	0	0
59	0	0
60	0	0
61	0	0
62	0	0
63	0	0
64	0	0
66	0	0
68	0	0
70	0	0
72	0	0
74	0	0
76	0	0
78	0	0
80	0	0
82	0	0
84	0	0
86	0	0
88	0	0
90	0	0
92	0	0
94	0	0
96	0	0
98	0	0
100	0	0
102	0	0
104	0	0
106	0	0
108	0	0
110	0	0
112	0	0
114	0	0
116	0	0
118	0	0
120	0	0
122	0	0
124	0	0
126	0	0
128	0	0
132	0	0
136	0	0
140	0	0
144	0	0
148	0	0
152	0	0
156	0	0
160	0	0
164	0	0
168	0	0
172	0	0
176	0	0
180	0	0
184	0	0
188	0	0
192	0	0
196	0	0
200	0	0
204	0	0
208	0	0
212	0	0
216	0	0
220	0	0
224	0	0
228	0	0
232	0	0
236	0	0
240	0	0
244	0	0
248	0	0
252	0	0
256	0	0
264	0	0
272	0	0
280	0	0
288	0	0
296	0	0
304	0	0
312	0	0
320	0	0
328	0	0
336	0	0
344	0	0
352	0	0
360	0	0
368	0	0
376	0	0
384	0	0
392	0	0
400	0	0
408	0	0
416	0	0
424	0	0
432	0	0
440	0	0
448	0	0
456	0	0
464	0	0
472	0	0
480	0	0
488	0	0
496	0	0
504	0	0
512	0	0
528	0	0
544	0	0
560	0	0
576	0	0
592	0	0
608	0	0
624	0	0
640	0	0
656	0	0
672	0	0
688	0	0
704	0	0
720	0	0
736	0	0
752	0	0
768	0	0
784	0	0
800	0	0
816	0	0
832	0	0
848	0	0
864	0	0
880	0	0
896	0	0
912	0	0
928	0	0
944	0	0
960	0	0
976	0	0
992	0	0
1008	0	0
1024	0	0
1056	0	0
1088	0	0
1120	0	0
1152	0	0
1184	0	0
1216	0	0
1248	0	0
1280	0	0
1312	0	0
1344	0	0
1376	0	0
1408	0	0
1440	0	0
1472	0	0
1504	0	0
1536	0	0
1568	0	0
1600	0	0
1632	0	0
1664	0	0
1696	0	0
1728	0	0
1760	0	0
1792	0	0
1824	0	0
1856	0	0
1888	0	0
1920	0	0
1952	0	0
1984	0	0
2016	0	0
2048	0	0
2112	0	0
2176	0	0
2240	0	0
2304	0	0
2368	0	0
2432	0	0
2496	0	0
2560	0	0
2624	0	0
2688	0	0
2752	0	0
2816	0	0
2880	0	0
2944	0	0
3008	0	0
3072	0	0
3136	0	0
3200	0	0
3264	0	0
3328	0	0
3392	0	0
3456	0	0
3520	0	0
3584	0	0
3648	0	0
3712	0	0
3776	0	0
3840	0	0
3904	0	0
3968	0	0
4032	0	0
4096	0	0
4224	0	0
4352	0	0
4480	0	0
4608	0	0
4736	0	0
4864	0	0
4992	0	0
5120	0	0
5248	0	0
5376	0	0
5504	0	0
5632	0	0
5760	0	0
5888	0	0
6016	0	0
6144	0	0
6272	0	0
6400	0	0
6528	0	0
6656	0	0
6784	0	0
6912	0	0
7040	0	0
7168	0	0
7296	0	0
7424	0	0
7552	0	0
7680	0	0
7808	0	0
7936	0	0
8064	0	0
8192	0	0
8448	0	0
8704	0	0
8960	0	0
9216	0	0
9472	0	0
9728	0	0
9984	0	0
10240	0	0
10496	0	0
10752	0	0
11008	0	0
11264	0	0
11520	0	0
11776	0	0
12032	0	0
12288	0	0
12544	0	0
12800	0	0
13056	0	0
13312	0	0
13568	0	0
13824	0	0
14080	0	0
14336	0	0
14592	0	0
14848	0	0
15104	0	0
15360	0	0
15616	0	0
15872	0	0
16128	0	0
16384	0	0
16896	0	0
17408	0	0
17920	0	0
18432	0	0
18944	0	0
19456	0	0
19968	0	0
20480	0	0
20992	0	0
21504	0	0
22016	0	0
22528	0	0
23040	0	0
23552	0	0
24064	0	0
24576	0	0
25088	0	0
25600	0	0
26112	0	0
26624	0	0
27136	0	0
27648	0	0
28160	0	0
28672	0	0
29184	0	0
29696	0	0
30208	0	0
30720	0	0
31232	0	0
31744	0	0
32256	0	0
32768	0	0
33792	0	0
34816	0	0
35840	0	0
36864	0	0
37888	0	0
38912	0	0
39936	0	0
40960	0	0
41984	0	0
43008	0	0
44032	0	0
45056	0	0
46080	0	0
47104	0	0
48128	0	0
49152	0	0
50176	0	0
51200	0	0
52224	0	0
53248	0	0
54272	0	0
55296	0	0
56320	0	0
57344	0	0
58368	0	0
59392	0	0
60416	0	0
61440	0	0
62464	0	0
63488	0	0
64512	0	0
65536	0	0
67584	0	0
69632	0	0
71680	0	0
73728	0	0
75776	0	0
77824	0	0
79872	0	0
81920	0	0
83968	0	0
86016	0	0
88064	0	0
90112	0	0
92160	0	0
94208	0	0
96256	0	0
98304	0	0
100352	0	0
102400	0	0
104448	0	0
106496	0	0
108544	0	0
110592	0	0
112640	0	0
114688	0	0
116736	0	0
118784	0	0
120832	0	0
122880	0	0
124928	0	0
126976	0	0
129024	0	0
131072	0	0
135168	0	0
139264	0	0
143360	0	0
147456	0	0
151552	0	0
155648	0	0
159744	0	0
163840	0	0
167936	0	0
172032	0	0
176128	0	0
180224	0	0
184320	0	0
188416	0	0
192512	0	0
196608	0	0
200704	0	0
204800	0	0
208896	0	0
212992	0	0
217088	0	0
221184	0	0
225280	0	0
229376	0	0
233472	0	0
237568	0	0
241664	0	0
245760	0	0
249856	0	0
253952	0	0
258048	0	0
262144	0	0
270336	0	0
278528	0	0
286720	0	0
294912	0	0
303104	0	0
311296	0	0
319488	0	0
327680	0	0
335872	0	0
344064	0	0
352256	0	0
360448	0	0
368640	0	0
376832	0	0
385024	0	0
393216	0	0
401408	0	0
409600	0	0
417792	0	0
425984	0	0
434176	0	0
442368	0	0
450560	0	0
458752	0	0
466944	0	0
475136	0	0
483328	0	0
491520	0	0
499712	0	0
507904	0	0
516096	0	0
524288	0	0
540672	0	0
557056	0	0
573440	0	0
589824	0	0
606208	0	0
622592	0	0
638976	0	0
655360	0	0
671744	0	0
688128	0	0
704512	0	0
720896	0	0
737280	0	0
753664	0	0
770048	0	0
786432	0	0
802816	0	0
819200	0	0
835584	0	0
851968	0	0
868352	0	0
884736	0	0
901120	0	0
917504	0	0
933888	0	0
950272	0	0
966656	0	0
983040	0	0
999424	0	0
1015808	0	0
1032192	0	0
1048576	0	0
1081344	0	0
1114112	0	0
1146880	0	0
1179648	0	0
1212416	0	0
1245184	0	0
1277952	0	0
1310720	0	0
1343488	0	0
1376256	0	0
1409024	0	0
1441792	0	0
1474560	0	0
1507328	0	0
1540096	0	0
1572864	0	0
1605632	0	0
1638400	0	0
1671168	0	0
1703936	0	0
1736704	0	0
1769472	0	0
1802240	0	0
1835008	0	0
1867776	0	0
1900544	0	0
1933312	0	0
1966080	0	0
1998848	0	0
2031616	0	0
2064384	0	0
2097152	0	0
2162688	0	0
2228224	0	0
2293760	0	0
2359296	0	0
2424832	0	0
2490368	0	0
2555904	0	0
2621440	0	0
2686976	0	0
2752512	0	0
2818048	0	0
2883584	0	0
2949120	0	0
3014656	0	0
3080192	0	0
3145728	0	0
3211264	0	0
3276800	0	0
3342336	0	0
3407872	0	0
3473408	0	0
3538944	0	0
3604480	0	0
3670016	0	0
3735552	0	0
3801088	0	0
3866624	0	0
3932160	0	0
3997696	0	0
4063232	0	0
4128768	0	0
4194304	0	0
4325376	0	0
4456448	0	0
4587520	0	0
4718592	0	0
4849664	0	0
4980736	0	0
5111808	0	0
5242880	0	0
5373952	0	0
5505024	0	0
5636096	0	0
5767168	0	0
5898240	0	0
6029312	0	0
6160384	0	0
6291456	0	0
6422528	0	0
6553600	0	0
6684672	0	0
6815744	0	0
6946816	0	0
7077888	0	0
7208960	0	0
7340032	0	0
7471104	0	0
7602176	0	0
7733248	0	0
7864320	0	0
7995392	0	0
8126464	0	0
8257536	0	0
8388608	0	0
8650752	0	0
8912896	0	0
9175040	0	0
9437184	0	0
9699328	0	0
9961472	0	0
10223616	0	0
10485760	0	0
10747904	0	0
11010048	0	0
11272192	0	0
11534336	0	0
11796480	0	0
12058624	0	0
12320768	0	0
12582912	0	0
12845056	0	0
13107200	0	0
13369344	0	0
13631488	0	0
13893632	0	0
14155776	0	0
14417920	0	0
14680064	0	0
14942208	0	0
15204352	0	0
15466496	0	0
15728640	0	0
15990784	0	0
16252928	0	0
16515072	0	0
16777216	0	0
17301504	0	0
17825792	0	0
18350080	0	0
18874368	0	0
19398656	0	0
19922944	0	0
20447232	0	0
20971520	0	0
21495808	0	0
22020096	0	0
22544384	0	0
23068672	0	0
23592960	0	0
24117248	0	0
24641536	0	0
25165824	0	0
25690112	0	0
26214400	0	0
26738688	0	0
27262976	0	0
27787264	0	0
28311552	0	0
28835840	0	0
29360128	0	0
29884416	0	0
30408704	0	0
30932992	0	0
31457280	0	0
31981568	0	0
32505856	0	0
33030144	0	0
33554432	0	0
34603008	0	0
35651584	0	0
36700160	0	0
37748736	0	0
38797312	0	0
39845888	0	0
40894464	0	0
41943040	0	0
42991616	0	0
44040192	0	0
45088768	0	0
46137344	0	0
47185920	0	0
48234496	0	0
49283072	0	0
50331648	0	0
51380224	0	0
52428800	0	0
53477376	0	0
54525952	0	0
55574528	0	0
56623104	0	0
57671680	0	0
58720256	0	0
59768832	0	0
60817408	0	0
61865984	0	0
62914560	0	0
63963136	0	0
65011712	0	0
66060288	0	0
67108864	0	0
69206016	0	0
71303168	0	0
73400320	0	0
75497472	0	0
77594624	0	0
79691776	0	0
81788928	0	0
83886080	0	0
85983232	0	0
88080384	0	0
90177536	0	0
92274688	0	0
94371840	0	0
96468992	0	0
98566144	0	0
100663296	0	0
102760448	0	0
104857600	0	0
106954752	0	0
109051904	0	0
111149056	0	0
113246208	0	0
115343360	0	0
117440512	0	0
119537664	0	0
121634816	0	0
123731968	0	0
125829120	0	0
127926272	0	0
130023424	0	0
132120576	0	0
134217728	0	0
138412032	0	0
142606336	0	0
146800640	0	0
150994944	0	0
155189248	0	0
159383552	0	0
163577856	0	0
167772160	0	0
171966464	0	0
176160768	0	0
180355072	0	0
184549376	0	0
188743680	0	0
192937984	0	0
197132288	0	0
201326592	0	0
205520896	0	0
209715200	0	0
213909504	0	0
218103808	0	0
222298112	0	0
226492416	0	0
230686720	0	0
234881024	0	0
239075328	0	0
243269632	0	0
247463936	0	0
251658240	0	0
255852544	0	0
260046848	0	0
264241152	0	0
268435456	0	0
276824064	0	0
285212672	0	0
293601280	0	0
301989888	0	0
310378496	0	0
318767104	0	0
327155712	0	0
335544320	0	0
343932928	0	0
352321536	0	0
360710144	0	0
369098752	0	0
377487360	0	0
385875968	0	0
394264576	0	0
402653184	0	0
411041792	0	0
419430400	0	0
427819008	0	0
436207616	0	0
444596224	0	0
452984832	0	0
461373440	0	0
469762048	0	0
478150656	0	0
486539264	0	0
494927872	0	0
503316480	0	0
511705088	0	0
520093696	0	0
528482304	0	0
536870912	0	0
553648128	0	0
570425344	0	0
587202560	0	0
603979776	0	0
620756992	0	0
637534208	0	0
654311424	0	0
671088640	0	0
687865856	0	0
704643072	0	0
721420288	0	0
738197504	0	0
754974720	0	0
771751936	0	0
788529152	0	0
805306368	0	0
822083584	0	0
838860800	0	0
855638016	0	0
872415232	0	0
889192448	0	0
905969664	0	0
922746880	0	0
939524096	0	0
956301312	0	0
973078528	0	0
989855744	0	0
1006632960	0	0
1023410176	0	0
1040187392	0	0
1056964608	0	0
1073741824	0	0
1107296256	0	0
1140850688	0	0
1174405120	0	0
1207959552	0	0
1241513984	0	0
1275068416	0	0
1308622848	0	0
1342177280	0	0
1375731712	0	0
1409286144	0	0
1442840576	0	0
1476395008	0	0
1509949440	0	0
1543503872	0	0
1577058304	0	0
1610612736	0	0
1644167168	0	0
1677721600	0	0
1711276032	0	0
1744830464	0	0
1778384896	0	0
1811939328	0	0
1845493760	0	0
1879048192	0	0
1912602624	0	0
1946157056	0	0
1979711488	0	0
2013265920	0	0
2046820352	0	0
2080374784	0	0
2113929216	0	0
2147483648	0	0
2214592512	0	0
2281701376	0	0
2348810240	0	0
2415919104	0	0
2483027968	0	0
2550136832	0	0
2617245696	0	0
2684354560	0	0
2751463424	0	0
2818572288	0	0
2885681152	0	0
2952790016	0	0
3019898880	0	0
3087007744	0	0
3154116608	0	0
3221225472	0	0
3288334336	0	0
3355443200	0	0
3422552064	0	0
3489660928	0	0
3556769792	0	0
3623878656	0	0
3690987520	0	0
3758096384	0	0
3825205248	0	0
3892314112	0	0
3959422976	0	0
4026531840	0	0
4093640704	0	0
4160749568	0	0
4227858432	0	0
~~~~~~~~~~Reuse Distance Profiler output end~~~~~~~~~~

Sampler size:0

DRAM Statistics
 CHANNEL 0
 RQ ROW_BUFFER_HIT:    1309357  ROW_BUFFER_MISS:   17990326
 DBUS AVG_CONGESTED_CYCLE:    3.90442
 WQ ROW_BUFFER_HIT:     193168  ROW_BUFFER_MISS:    1846793  FULL:          0


CPU 0 Branch Prediction Accuracy: 92.5696% MPKI: 6.87149 Average ROB Occupancy at Mispredict: 196.1
Branch type MPKI
BRANCH_DIRECT_JUMP: 4.93333e-05
BRANCH_INDIRECT: 5.26667e-05
BRANCH_CONDITIONAL: 6.8712
BRANCH_DIRECT_CALL: 7.26667e-05
BRANCH_INDIRECT_CALL: 5.06667e-05
BRANCH_RETURN: 6.8e-05

