
*** ChampSim Multicore Out-of-Order Simulator ***

Warmup Instructions: 50000000
Simulation Instructions: 1500000000
Number of CPUs: 1
Off-chip DRAM Size: 4 GiB Channels: 1 Width: 64-bit Data Rate: 3200 MT/s

VirtualMemory physical capacity: 8588881920 num_ppages: 2096895
VirtualMemory page size: 4096 log2_page_size: 12

CPU 0 runs /s/traces/champsim_traces/602.gcc_s-734B.champsimtrace.xz
CPU 0 Bimodal branch predictor
Basic BTB sets: 1024 ways: 8 indirect buffer size: 4096 RAS size: 64
Initializing LRU.
Initializing LRU.
Initializing LRU.
Initializing LRU.
Initializing rdLRU.
Initializing LRU.
Initializing LRU.
Heartbeat CPU 0 instructions: 2000002 cycles: 500071 heartbeat IPC: 3.99944 cumulative IPC: 3.99944 (Simulation time: 0 hr 0 min 57 sec) 
Heartbeat CPU 0 instructions: 4000002 cycles: 1000071 heartbeat IPC: 4 cumulative IPC: 3.99972 (Simulation time: 0 hr 2 min 0 sec) 
Heartbeat CPU 0 instructions: 6000002 cycles: 1500071 heartbeat IPC: 4 cumulative IPC: 3.99981 (Simulation time: 0 hr 3 min 2 sec) 
Heartbeat CPU 0 instructions: 8000002 cycles: 2000071 heartbeat IPC: 4 cumulative IPC: 3.99986 (Simulation time: 0 hr 4 min 1 sec) 
Heartbeat CPU 0 instructions: 10000002 cycles: 2500071 heartbeat IPC: 4 cumulative IPC: 3.99989 (Simulation time: 0 hr 5 min 1 sec) 
Heartbeat CPU 0 instructions: 12000002 cycles: 3000071 heartbeat IPC: 4 cumulative IPC: 3.99991 (Simulation time: 0 hr 5 min 58 sec) 
Heartbeat CPU 0 instructions: 14000002 cycles: 3500071 heartbeat IPC: 4 cumulative IPC: 3.99992 (Simulation time: 0 hr 7 min 0 sec) 
Heartbeat CPU 0 instructions: 16000001 cycles: 4000460 heartbeat IPC: 3.99689 cumulative IPC: 3.99954 (Simulation time: 0 hr 8 min 1 sec) 
Heartbeat CPU 0 instructions: 18000001 cycles: 4500460 heartbeat IPC: 4 cumulative IPC: 3.99959 (Simulation time: 0 hr 9 min 2 sec) 
Heartbeat CPU 0 instructions: 20000001 cycles: 5000460 heartbeat IPC: 4 cumulative IPC: 3.99963 (Simulation time: 0 hr 10 min 5 sec) 
Heartbeat CPU 0 instructions: 22000001 cycles: 5500460 heartbeat IPC: 4 cumulative IPC: 3.99967 (Simulation time: 0 hr 11 min 1 sec) 
Heartbeat CPU 0 instructions: 24000001 cycles: 6000460 heartbeat IPC: 4 cumulative IPC: 3.99969 (Simulation time: 0 hr 12 min 2 sec) 
Heartbeat CPU 0 instructions: 26000001 cycles: 6500460 heartbeat IPC: 4 cumulative IPC: 3.99972 (Simulation time: 0 hr 13 min 5 sec) 
Heartbeat CPU 0 instructions: 28000001 cycles: 7000460 heartbeat IPC: 4 cumulative IPC: 3.99974 (Simulation time: 0 hr 14 min 4 sec) 
Heartbeat CPU 0 instructions: 30000001 cycles: 7500460 heartbeat IPC: 4 cumulative IPC: 3.99975 (Simulation time: 0 hr 15 min 6 sec) 
Heartbeat CPU 0 instructions: 32000001 cycles: 8000460 heartbeat IPC: 4 cumulative IPC: 3.99977 (Simulation time: 0 hr 16 min 6 sec) 
Heartbeat CPU 0 instructions: 34000001 cycles: 8500460 heartbeat IPC: 4 cumulative IPC: 3.99978 (Simulation time: 0 hr 17 min 9 sec) 
Heartbeat CPU 0 instructions: 36000001 cycles: 9000460 heartbeat IPC: 4 cumulative IPC: 3.9998 (Simulation time: 0 hr 17 min 49 sec) 
Heartbeat CPU 0 instructions: 38000002 cycles: 9500464 heartbeat IPC: 3.99997 cumulative IPC: 3.9998 (Simulation time: 0 hr 18 min 49 sec) 
Heartbeat CPU 0 instructions: 40000002 cycles: 10000464 heartbeat IPC: 4 cumulative IPC: 3.99981 (Simulation time: 0 hr 19 min 54 sec) 
Heartbeat CPU 0 instructions: 42000002 cycles: 10500464 heartbeat IPC: 4 cumulative IPC: 3.99982 (Simulation time: 0 hr 20 min 56 sec) 
Heartbeat CPU 0 instructions: 44000002 cycles: 11000464 heartbeat IPC: 4 cumulative IPC: 3.99983 (Simulation time: 0 hr 21 min 52 sec) 
Heartbeat CPU 0 instructions: 46000002 cycles: 11500464 heartbeat IPC: 4 cumulative IPC: 3.99984 (Simulation time: 0 hr 22 min 53 sec) 
Heartbeat CPU 0 instructions: 48000002 cycles: 12000464 heartbeat IPC: 4 cumulative IPC: 3.99985 (Simulation time: 0 hr 23 min 47 sec) 
Heartbeat CPU 0 instructions: 50000002 cycles: 12500464 heartbeat IPC: 4 cumulative IPC: 3.99985 (Simulation time: 0 hr 24 min 43 sec) 

Warmup complete CPU 0 instructions: 50000002 cycles: 12500464 (Simulation time: 0 hr 24 min 43 sec) 

Heartbeat CPU 0 instructions: 52000000 cycles: 16017469 heartbeat IPC: 0.568665 cumulative IPC: 0.568665 (Simulation time: 0 hr 26 min 10 sec) 

Region of Interest Statistics
cpu0_DTLB TOTAL     ACCESS:     377538  HIT:     377134  MISS:        404
cpu0_DTLB LOAD      ACCESS:     302295  HIT:     301891  MISS:        404
cpu0_DTLB RFO       ACCESS:      75243  HIT:      75243  MISS:          0
cpu0_DTLB PREFETCH  ACCESS:          0  HIT:          0  MISS:          0
cpu0_DTLB WRITEBACK ACCESS:          0  HIT:          0  MISS:          0
cpu0_ITLB TOTAL     ACCESS:     225328  HIT:     225328  MISS:          0
cpu0_ITLB LOAD      ACCESS:     225328  HIT:     225328  MISS:          0
cpu0_ITLB RFO       ACCESS:          0  HIT:          0  MISS:          0
cpu0_ITLB PREFETCH  ACCESS:          0  HIT:          0  MISS:          0
cpu0_ITLB WRITEBACK ACCESS:          0  HIT:          0  MISS:          0
cpu0_STLB TOTAL     ACCESS:        404  HIT:         78  MISS:        326
cpu0_STLB LOAD      ACCESS:        404  HIT:         78  MISS:        326
cpu0_STLB RFO       ACCESS:          0  HIT:          0  MISS:          0
cpu0_STLB PREFETCH  ACCESS:          0  HIT:          0  MISS:          0
cpu0_STLB WRITEBACK ACCESS:          0  HIT:          0  MISS:          0
cpu0_L1D TOTAL     ACCESS:     465108  HIT:     432865  MISS:      32243
cpu0_L1D LOAD      ACCESS:     264385  HIT:     232195  MISS:      32190
cpu0_L1D RFO       ACCESS:     200401  HIT:     200401  MISS:          0
cpu0_L1D PREFETCH  ACCESS:          0  HIT:          0  MISS:          0
cpu0_L1D WRITEBACK ACCESS:          0  HIT:          0  MISS:          0
cpu0_L2C TOTAL     ACCESS:      32433  HIT:      16419  MISS:      16014
cpu0_L2C LOAD      ACCESS:      32190  HIT:      16186  MISS:      16004
cpu0_L2C RFO       ACCESS:          0  HIT:          0  MISS:          0
cpu0_L2C PREFETCH  ACCESS:          0  HIT:          0  MISS:          0
cpu0_L2C WRITEBACK ACCESS:        190  HIT:        190  MISS:          0
LLC TOTAL     ACCESS:      16043  HIT:         32  MISS:      16011
LLC LOAD      ACCESS:      16004  HIT:          0  MISS:      16004
LLC RFO       ACCESS:          0  HIT:          0  MISS:          0
LLC PREFETCH  ACCESS:          0  HIT:          0  MISS:          0
LLC WRITEBACK ACCESS:         29  HIT:         29  MISS:          0
Heartbeat CPU 0 instructions: 54000001 cycles: 19549209 heartbeat IPC: 0.566293 cumulative IPC: 0.567477 (Simulation time: 0 hr 27 min 35 sec) 

Region of Interest Statistics
cpu0_DTLB TOTAL     ACCESS:     754445  HIT:     753531  MISS:        914
cpu0_DTLB LOAD      ACCESS:     603939  HIT:     603025  MISS:        914
cpu0_DTLB RFO       ACCESS:     150506  HIT:     150506  MISS:          0
cpu0_DTLB PREFETCH  ACCESS:          0  HIT:          0  MISS:          0
cpu0_DTLB WRITEBACK ACCESS:          0  HIT:          0  MISS:          0
cpu0_ITLB TOTAL     ACCESS:     450786  HIT:     450786  MISS:          0
cpu0_ITLB LOAD      ACCESS:     450786  HIT:     450786  MISS:          0
cpu0_ITLB RFO       ACCESS:          0  HIT:          0  MISS:          0
cpu0_ITLB PREFETCH  ACCESS:          0  HIT:          0  MISS:          0
cpu0_ITLB WRITEBACK ACCESS:          0  HIT:          0  MISS:          0
cpu0_STLB TOTAL     ACCESS:        914  HIT:        231  MISS:        683
cpu0_STLB LOAD      ACCESS:        914  HIT:        231  MISS:        683
cpu0_STLB RFO       ACCESS:          0  HIT:          0  MISS:          0
cpu0_STLB PREFETCH  ACCESS:          0  HIT:          0  MISS:          0
cpu0_STLB WRITEBACK ACCESS:          0  HIT:          0  MISS:          0
cpu0_L1D TOTAL     ACCESS:     929345  HIT:     864831  MISS:      64514
cpu0_L1D LOAD      ACCESS:     527901  HIT:     463511  MISS:      64390
cpu0_L1D RFO       ACCESS:     400774  HIT:     400774  MISS:          0
cpu0_L1D PREFETCH  ACCESS:          0  HIT:          0  MISS:          0
cpu0_L1D WRITEBACK ACCESS:          0  HIT:          0  MISS:          0
cpu0_L2C TOTAL     ACCESS:      64888  HIT:      32825  MISS:      32063
cpu0_L2C LOAD      ACCESS:      64390  HIT:      32348  MISS:      32042
cpu0_L2C RFO       ACCESS:          0  HIT:          0  MISS:          0
cpu0_L2C PREFETCH  ACCESS:          0  HIT:          0  MISS:          0
cpu0_L2C WRITEBACK ACCESS:        374  HIT:        374  MISS:          0
LLC TOTAL     ACCESS:      32118  HIT:         64  MISS:      32054
LLC LOAD      ACCESS:      32042  HIT:          1  MISS:      32041
LLC RFO       ACCESS:          0  HIT:          0  MISS:          0
LLC PREFETCH  ACCESS:          0  HIT:          0  MISS:          0
LLC WRITEBACK ACCESS:         55  HIT:         55  MISS:          0
Heartbeat CPU 0 instructions: 56000001 cycles: 23098871 heartbeat IPC: 0.563434 cumulative IPC: 0.566123 (Simulation time: 0 hr 28 min 59 sec) 

Region of Interest Statistics
cpu0_DTLB TOTAL     ACCESS:    1131242  HIT:    1129790  MISS:       1452
cpu0_DTLB LOAD      ACCESS:     905464  HIT:     904012  MISS:       1452
cpu0_DTLB RFO       ACCESS:     225778  HIT:     225778  MISS:          0
cpu0_DTLB PREFETCH  ACCESS:          0  HIT:          0  MISS:          0
cpu0_DTLB WRITEBACK ACCESS:          0  HIT:          0  MISS:          0
cpu0_ITLB TOTAL     ACCESS:     676333  HIT:     676333  MISS:          0
cpu0_ITLB LOAD      ACCESS:     676333  HIT:     676333  MISS:          0
cpu0_ITLB RFO       ACCESS:          0  HIT:          0  MISS:          0
cpu0_ITLB PREFETCH  ACCESS:          0  HIT:          0  MISS:          0
cpu0_ITLB WRITEBACK ACCESS:          0  HIT:          0  MISS:          0
cpu0_STLB TOTAL     ACCESS:       1452  HIT:        333  MISS:       1119
cpu0_STLB LOAD      ACCESS:       1452  HIT:        333  MISS:       1119
cpu0_STLB RFO       ACCESS:          0  HIT:          0  MISS:          0
cpu0_STLB PREFETCH  ACCESS:          0  HIT:          0  MISS:          0
cpu0_STLB WRITEBACK ACCESS:          0  HIT:          0  MISS:          0
cpu0_L1D TOTAL     ACCESS:    1393022  HIT:    1296145  MISS:      96877
cpu0_L1D LOAD      ACCESS:     790788  HIT:     694151  MISS:      96637
cpu0_L1D RFO       ACCESS:     601146  HIT:     601146  MISS:          0
cpu0_L1D PREFETCH  ACCESS:          0  HIT:          0  MISS:          0
cpu0_L1D WRITEBACK ACCESS:          0  HIT:          0  MISS:          0
cpu0_L2C TOTAL     ACCESS:      97458  HIT:      49232  MISS:      48226
cpu0_L2C LOAD      ACCESS:      96637  HIT:      48451  MISS:      48186
cpu0_L2C RFO       ACCESS:          0  HIT:          0  MISS:          0
cpu0_L2C PREFETCH  ACCESS:          0  HIT:          0  MISS:          0
cpu0_L2C WRITEBACK ACCESS:        581  HIT:        581  MISS:          0
LLC TOTAL     ACCESS:      48350  HIT:        137  MISS:      48213
LLC LOAD      ACCESS:      48186  HIT:          2  MISS:      48184
LLC RFO       ACCESS:          0  HIT:          0  MISS:          0
LLC PREFETCH  ACCESS:          0  HIT:          0  MISS:          0
LLC WRITEBACK ACCESS:        124  HIT:        124  MISS:          0
Heartbeat CPU 0 instructions: 58000002 cycles: 26629128 heartbeat IPC: 0.566531 cumulative IPC: 0.566225 (Simulation time: 0 hr 30 min 28 sec) 

Region of Interest Statistics
cpu0_DTLB TOTAL     ACCESS:    1508204  HIT:    1506227  MISS:       1977
cpu0_DTLB LOAD      ACCESS:    1207165  HIT:    1205188  MISS:       1977
cpu0_DTLB RFO       ACCESS:     301039  HIT:     301039  MISS:          0
cpu0_DTLB PREFETCH  ACCESS:          0  HIT:          0  MISS:          0
cpu0_DTLB WRITEBACK ACCESS:          0  HIT:          0  MISS:          0
cpu0_ITLB TOTAL     ACCESS:     901809  HIT:     901809  MISS:          0
cpu0_ITLB LOAD      ACCESS:     901809  HIT:     901809  MISS:          0
cpu0_ITLB RFO       ACCESS:          0  HIT:          0  MISS:          0
cpu0_ITLB PREFETCH  ACCESS:          0  HIT:          0  MISS:          0
cpu0_ITLB WRITEBACK ACCESS:          0  HIT:          0  MISS:          0
cpu0_STLB TOTAL     ACCESS:       1977  HIT:        472  MISS:       1505
cpu0_STLB LOAD      ACCESS:       1977  HIT:        472  MISS:       1505
cpu0_STLB RFO       ACCESS:          0  HIT:          0  MISS:          0
cpu0_STLB PREFETCH  ACCESS:          0  HIT:          0  MISS:          0
cpu0_STLB WRITEBACK ACCESS:          0  HIT:          0  MISS:          0
cpu0_L1D TOTAL     ACCESS:    1857215  HIT:    1728024  MISS:     129191
cpu0_L1D LOAD      ACCESS:    1054237  HIT:     925369  MISS:     128868
cpu0_L1D RFO       ACCESS:     801516  HIT:     801516  MISS:          0
cpu0_L1D PREFETCH  ACCESS:          0  HIT:          0  MISS:          0
cpu0_L1D WRITEBACK ACCESS:          0  HIT:          0  MISS:          0
cpu0_L2C TOTAL     ACCESS:     129963  HIT:      65626  MISS:      64337
cpu0_L2C LOAD      ACCESS:     128868  HIT:      64585  MISS:      64283
cpu0_L2C RFO       ACCESS:          0  HIT:          0  MISS:          0
cpu0_L2C PREFETCH  ACCESS:          0  HIT:          0  MISS:          0
cpu0_L2C WRITEBACK ACCESS:        772  HIT:        772  MISS:          0
LLC TOTAL     ACCESS:      64499  HIT:        185  MISS:      64314
LLC LOAD      ACCESS:      64283  HIT:          7  MISS:      64276
LLC RFO       ACCESS:          0  HIT:          0  MISS:          0
LLC PREFETCH  ACCESS:          0  HIT:          0  MISS:          0
LLC WRITEBACK ACCESS:        162  HIT:        162  MISS:          0
Heartbeat CPU 0 instructions: 60000000 cycles: 30138520 heartbeat IPC: 0.569899 cumulative IPC: 0.566956 (Simulation time: 0 hr 31 min 27 sec) 

Region of Interest Statistics
cpu0_DTLB TOTAL     ACCESS:    1885024  HIT:    1882575  MISS:       2449
cpu0_DTLB LOAD      ACCESS:    1508733  HIT:    1506284  MISS:       2449
cpu0_DTLB RFO       ACCESS:     376291  HIT:     376291  MISS:          0
cpu0_DTLB PREFETCH  ACCESS:          0  HIT:          0  MISS:          0
cpu0_DTLB WRITEBACK ACCESS:          0  HIT:          0  MISS:          0
cpu0_ITLB TOTAL     ACCESS:    1127157  HIT:    1127157  MISS:          0
cpu0_ITLB LOAD      ACCESS:    1127157  HIT:    1127157  MISS:          0
cpu0_ITLB RFO       ACCESS:          0  HIT:          0  MISS:          0
cpu0_ITLB PREFETCH  ACCESS:          0  HIT:          0  MISS:          0
cpu0_ITLB WRITEBACK ACCESS:          0  HIT:          0  MISS:          0
cpu0_STLB TOTAL     ACCESS:       2449  HIT:        579  MISS:       1870
cpu0_STLB LOAD      ACCESS:       2449  HIT:        579  MISS:       1870
cpu0_STLB RFO       ACCESS:          0  HIT:          0  MISS:          0
cpu0_STLB PREFETCH  ACCESS:          0  HIT:          0  MISS:          0
cpu0_STLB WRITEBACK ACCESS:          0  HIT:          0  MISS:          0
cpu0_L1D TOTAL     ACCESS:    2320862  HIT:    2159355  MISS:     161507
cpu0_L1D LOAD      ACCESS:    1317162  HIT:    1156053  MISS:     161109
cpu0_L1D RFO       ACCESS:    1001880  HIT:    1001880  MISS:          0
cpu0_L1D PREFETCH  ACCESS:          0  HIT:          0  MISS:          0
cpu0_L1D WRITEBACK ACCESS:          0  HIT:          0  MISS:          0
cpu0_L2C TOTAL     ACCESS:     162468  HIT:      82065  MISS:      80403
cpu0_L2C LOAD      ACCESS:     161109  HIT:      80773  MISS:      80336
cpu0_L2C RFO       ACCESS:          0  HIT:          0  MISS:          0
cpu0_L2C PREFETCH  ACCESS:          0  HIT:          0  MISS:          0
cpu0_L2C WRITEBACK ACCESS:        961  HIT:        961  MISS:          0
LLC TOTAL     ACCESS:      80606  HIT:        235  MISS:      80371
LLC LOAD      ACCESS:      80336  HIT:          9  MISS:      80327
LLC RFO       ACCESS:          0  HIT:          0  MISS:          0
LLC PREFETCH  ACCESS:          0  HIT:          0  MISS:          0
LLC WRITEBACK ACCESS:        203  HIT:        203  MISS:          0
Heartbeat CPU 0 instructions: 62000002 cycles: 33943920 heartbeat IPC: 0.525569 cumulative IPC: 0.559611 (Simulation time: 0 hr 32 min 55 sec) 

Region of Interest Statistics
cpu0_DTLB TOTAL     ACCESS:    2255376  HIT:    2251773  MISS:       3603
cpu0_DTLB LOAD      ACCESS:    1805689  HIT:    1802086  MISS:       3603
cpu0_DTLB RFO       ACCESS:     449687  HIT:     449687  MISS:          0
cpu0_DTLB PREFETCH  ACCESS:          0  HIT:          0  MISS:          0
cpu0_DTLB WRITEBACK ACCESS:          0  HIT:          0  MISS:          0
cpu0_ITLB TOTAL     ACCESS:    1351952  HIT:    1351952  MISS:          0
cpu0_ITLB LOAD      ACCESS:    1351952  HIT:    1351952  MISS:          0
cpu0_ITLB RFO       ACCESS:          0  HIT:          0  MISS:          0
cpu0_ITLB PREFETCH  ACCESS:          0  HIT:          0  MISS:          0
cpu0_ITLB WRITEBACK ACCESS:          0  HIT:          0  MISS:          0
cpu0_STLB TOTAL     ACCESS:       3603  HIT:        897  MISS:       2706
cpu0_STLB LOAD      ACCESS:       3603  HIT:        897  MISS:       2706
cpu0_STLB RFO       ACCESS:          0  HIT:          0  MISS:          0
cpu0_STLB PREFETCH  ACCESS:          0  HIT:          0  MISS:          0
cpu0_STLB WRITEBACK ACCESS:          0  HIT:          0  MISS:          0
cpu0_L1D TOTAL     ACCESS:    2775648  HIT:    2581173  MISS:     194475
cpu0_L1D LOAD      ACCESS:    1577270  HIT:    1383324  MISS:     193946
cpu0_L1D RFO       ACCESS:    1195728  HIT:    1195728  MISS:          0
cpu0_L1D PREFETCH  ACCESS:          0  HIT:          0  MISS:          0
cpu0_L1D WRITEBACK ACCESS:          0  HIT:          0  MISS:          0
cpu0_L2C TOTAL     ACCESS:     195671  HIT:      97865  MISS:      97806
cpu0_L2C LOAD      ACCESS:     193946  HIT:      96240  MISS:      97706
cpu0_L2C RFO       ACCESS:          0  HIT:          0  MISS:          0
cpu0_L2C PREFETCH  ACCESS:          0  HIT:          0  MISS:          0
cpu0_L2C WRITEBACK ACCESS:       1196  HIT:       1196  MISS:          0
LLC TOTAL     ACCESS:      98100  HIT:        353  MISS:      97747
LLC LOAD      ACCESS:      97706  HIT:         24  MISS:      97682
LLC RFO       ACCESS:          0  HIT:          0  MISS:          0
LLC PREFETCH  ACCESS:          0  HIT:          0  MISS:          0
LLC WRITEBACK ACCESS:        294  HIT:        293  MISS:          1
Heartbeat CPU 0 instructions: 64000000 cycles: 37619787 heartbeat IPC: 0.544089 cumulative IPC: 0.55734 (Simulation time: 0 hr 34 min 10 sec) 

Region of Interest Statistics
cpu0_DTLB TOTAL     ACCESS:    2626583  HIT:    2621196  MISS:       5387
cpu0_DTLB LOAD      ACCESS:    2096937  HIT:    2091563  MISS:       5374
cpu0_DTLB RFO       ACCESS:     529646  HIT:     529633  MISS:         13
cpu0_DTLB PREFETCH  ACCESS:          0  HIT:          0  MISS:          0
cpu0_DTLB WRITEBACK ACCESS:          0  HIT:          0  MISS:          0
cpu0_ITLB TOTAL     ACCESS:    1555983  HIT:    1555978  MISS:          5
cpu0_ITLB LOAD      ACCESS:    1555983  HIT:    1555978  MISS:          5
cpu0_ITLB RFO       ACCESS:          0  HIT:          0  MISS:          0
cpu0_ITLB PREFETCH  ACCESS:          0  HIT:          0  MISS:          0
cpu0_ITLB WRITEBACK ACCESS:          0  HIT:          0  MISS:          0
cpu0_L1I TOTAL     ACCESS:      18776  HIT:      18733  MISS:         43
cpu0_L1I LOAD      ACCESS:      18776  HIT:      18733  MISS:         43
cpu0_L1I RFO       ACCESS:          0  HIT:          0  MISS:          0
cpu0_L1I PREFETCH  ACCESS:          0  HIT:          0  MISS:          0
cpu0_L1I WRITEBACK ACCESS:          0  HIT:          0  MISS:          0
cpu0_STLB TOTAL     ACCESS:       5392  HIT:       1819  MISS:       3573
cpu0_STLB LOAD      ACCESS:       5379  HIT:       1816  MISS:       3563
cpu0_STLB RFO       ACCESS:         13  HIT:          3  MISS:         10
cpu0_STLB PREFETCH  ACCESS:          0  HIT:          0  MISS:          0
cpu0_STLB WRITEBACK ACCESS:          0  HIT:          0  MISS:          0
cpu0_L1D TOTAL     ACCESS:    3237504  HIT:    3013191  MISS:     224313
cpu0_L1D LOAD      ACCESS:    1846375  HIT:    1623279  MISS:     223096
cpu0_L1D RFO       ACCESS:    1387618  HIT:    1387034  MISS:        584
cpu0_L1D PREFETCH  ACCESS:          0  HIT:          0  MISS:          0
cpu0_L1D WRITEBACK ACCESS:          0  HIT:          0  MISS:          0
cpu0_L2C TOTAL     ACCESS:     227142  HIT:     111709  MISS:     115433
cpu0_L2C LOAD      ACCESS:     223139  HIT:     108412  MISS:     114727
cpu0_L2C RFO       ACCESS:        584  HIT:         13  MISS:        571
cpu0_L2C PREFETCH  ACCESS:          0  HIT:          0  MISS:          0
cpu0_L2C WRITEBACK ACCESS:       2786  HIT:       2784  MISS:          2
LLC TOTAL     ACCESS:     117038  HIT:       4489  MISS:     112549
LLC LOAD      ACCESS:     114727  HIT:       3350  MISS:     111377
LLC RFO       ACCESS:        571  HIT:          0  MISS:        571
LLC PREFETCH  ACCESS:          0  HIT:          0  MISS:          0
LLC WRITEBACK ACCESS:       1607  HIT:       1086  MISS:        521
Heartbeat CPU 0 instructions: 66000000 cycles: 41109827 heartbeat IPC: 0.573059 cumulative IPC: 0.559257 (Simulation time: 0 hr 35 min 37 sec) 

Region of Interest Statistics
cpu0_DTLB TOTAL     ACCESS:    3003586  HIT:    2997583  MISS:       6003
cpu0_DTLB LOAD      ACCESS:    2398593  HIT:    2392603  MISS:       5990
cpu0_DTLB RFO       ACCESS:     604993  HIT:     604980  MISS:         13
cpu0_DTLB PREFETCH  ACCESS:          0  HIT:          0  MISS:          0
cpu0_DTLB WRITEBACK ACCESS:          0  HIT:          0  MISS:          0
cpu0_ITLB TOTAL     ACCESS:    1781326  HIT:    1781321  MISS:          5
cpu0_ITLB LOAD      ACCESS:    1781326  HIT:    1781321  MISS:          5
cpu0_ITLB RFO       ACCESS:          0  HIT:          0  MISS:          0
cpu0_ITLB PREFETCH  ACCESS:          0  HIT:          0  MISS:          0
cpu0_ITLB WRITEBACK ACCESS:          0  HIT:          0  MISS:          0
cpu0_L1I TOTAL     ACCESS:      18776  HIT:      18733  MISS:         43
cpu0_L1I LOAD      ACCESS:      18776  HIT:      18733  MISS:         43
cpu0_L1I RFO       ACCESS:          0  HIT:          0  MISS:          0
cpu0_L1I PREFETCH  ACCESS:          0  HIT:          0  MISS:          0
cpu0_L1I WRITEBACK ACCESS:          0  HIT:          0  MISS:          0
cpu0_STLB TOTAL     ACCESS:       6008  HIT:       2089  MISS:       3919
cpu0_STLB LOAD      ACCESS:       5995  HIT:       2086  MISS:       3909
cpu0_STLB RFO       ACCESS:         13  HIT:          3  MISS:         10
cpu0_STLB PREFETCH  ACCESS:          0  HIT:          0  MISS:          0
cpu0_STLB WRITEBACK ACCESS:          0  HIT:          0  MISS:          0
cpu0_L1D TOTAL     ACCESS:    3701644  HIT:    3445008  MISS:     256636
cpu0_L1D LOAD      ACCESS:    2109863  HIT:    1854509  MISS:     255354
cpu0_L1D RFO       ACCESS:    1587928  HIT:    1587344  MISS:        584
cpu0_L1D PREFETCH  ACCESS:          0  HIT:          0  MISS:          0
cpu0_L1D WRITEBACK ACCESS:          0  HIT:          0  MISS:          0
cpu0_L2C TOTAL     ACCESS:     259687  HIT:     128169  MISS:     131518
cpu0_L2C LOAD      ACCESS:     255397  HIT:     124597  MISS:     130800
cpu0_L2C RFO       ACCESS:        584  HIT:         13  MISS:        571
cpu0_L2C PREFETCH  ACCESS:          0  HIT:          0  MISS:          0
cpu0_L2C WRITEBACK ACCESS:       3008  HIT:       3006  MISS:          2
LLC TOTAL     ACCESS:     133318  HIT:       4868  MISS:     128450
LLC LOAD      ACCESS:     130800  HIT:       3538  MISS:     127262
LLC RFO       ACCESS:        571  HIT:          0  MISS:        571
LLC PREFETCH  ACCESS:          0  HIT:          0  MISS:          0
LLC WRITEBACK ACCESS:       1802  HIT:       1268  MISS:        534
Heartbeat CPU 0 instructions: 68000000 cycles: 44599751 heartbeat IPC: 0.573078 cumulative IPC: 0.56076 (Simulation time: 0 hr 37 min 1 sec) 

Region of Interest Statistics
cpu0_DTLB TOTAL     ACCESS:    3380721  HIT:    3374126  MISS:       6595
cpu0_DTLB LOAD      ACCESS:    2700370  HIT:    2693788  MISS:       6582
cpu0_DTLB RFO       ACCESS:     680351  HIT:     680338  MISS:         13
cpu0_DTLB PREFETCH  ACCESS:          0  HIT:          0  MISS:          0
cpu0_DTLB WRITEBACK ACCESS:          0  HIT:          0  MISS:          0
cpu0_ITLB TOTAL     ACCESS:    2006702  HIT:    2006697  MISS:          5
cpu0_ITLB LOAD      ACCESS:    2006702  HIT:    2006697  MISS:          5
cpu0_ITLB RFO       ACCESS:          0  HIT:          0  MISS:          0
cpu0_ITLB PREFETCH  ACCESS:          0  HIT:          0  MISS:          0
cpu0_ITLB WRITEBACK ACCESS:          0  HIT:          0  MISS:          0
cpu0_L1I TOTAL     ACCESS:      18776  HIT:      18733  MISS:         43
cpu0_L1I LOAD      ACCESS:      18776  HIT:      18733  MISS:         43
cpu0_L1I RFO       ACCESS:          0  HIT:          0  MISS:          0
cpu0_L1I PREFETCH  ACCESS:          0  HIT:          0  MISS:          0
cpu0_L1I WRITEBACK ACCESS:          0  HIT:          0  MISS:          0
cpu0_STLB TOTAL     ACCESS:       6600  HIT:       2321  MISS:       4279
cpu0_STLB LOAD      ACCESS:       6587  HIT:       2318  MISS:       4269
cpu0_STLB RFO       ACCESS:         13  HIT:          3  MISS:         10
cpu0_STLB PREFETCH  ACCESS:          0  HIT:          0  MISS:          0
cpu0_STLB WRITEBACK ACCESS:          0  HIT:          0  MISS:          0
cpu0_L1D TOTAL     ACCESS:    4166036  HIT:    3877062  MISS:     288974
cpu0_L1D LOAD      ACCESS:    2373599  HIT:    2085986  MISS:     287613
cpu0_L1D RFO       ACCESS:    1788231  HIT:    1787647  MISS:        584
cpu0_L1D PREFETCH  ACCESS:          0  HIT:          0  MISS:          0
cpu0_L1D WRITEBACK ACCESS:          0  HIT:          0  MISS:          0
cpu0_L2C TOTAL     ACCESS:     292260  HIT:     144640  MISS:     147620
cpu0_L2C LOAD      ACCESS:     287656  HIT:     140773  MISS:     146883
cpu0_L2C RFO       ACCESS:        584  HIT:         13  MISS:        571
cpu0_L2C PREFETCH  ACCESS:          0  HIT:          0  MISS:          0
cpu0_L2C WRITEBACK ACCESS:       3243  HIT:       3241  MISS:          2
LLC TOTAL     ACCESS:     149486  HIT:       5159  MISS:     144327
LLC LOAD      ACCESS:     146883  HIT:       3755  MISS:     143128
LLC RFO       ACCESS:        571  HIT:          0  MISS:        571
LLC PREFETCH  ACCESS:          0  HIT:          0  MISS:          0
LLC WRITEBACK ACCESS:       1868  HIT:       1334  MISS:        534
Heartbeat CPU 0 instructions: 70000003 cycles: 48100836 heartbeat IPC: 0.571252 cumulative IPC: 0.561792 (Simulation time: 0 hr 38 min 24 sec) 

Region of Interest Statistics
cpu0_DTLB TOTAL     ACCESS:    3757838  HIT:    3750741  MISS:       7097
cpu0_DTLB LOAD      ACCESS:    3002146  HIT:    2995062  MISS:       7084
cpu0_DTLB RFO       ACCESS:     755692  HIT:     755679  MISS:         13
cpu0_DTLB PREFETCH  ACCESS:          0  HIT:          0  MISS:          0
cpu0_DTLB WRITEBACK ACCESS:          0  HIT:          0  MISS:          0
cpu0_ITLB TOTAL     ACCESS:    2232008  HIT:    2232003  MISS:          5
cpu0_ITLB LOAD      ACCESS:    2232008  HIT:    2232003  MISS:          5
cpu0_ITLB RFO       ACCESS:          0  HIT:          0  MISS:          0
cpu0_ITLB PREFETCH  ACCESS:          0  HIT:          0  MISS:          0
cpu0_ITLB WRITEBACK ACCESS:          0  HIT:          0  MISS:          0
cpu0_L1I TOTAL     ACCESS:      18776  HIT:      18733  MISS:         43
cpu0_L1I LOAD      ACCESS:      18776  HIT:      18733  MISS:         43
cpu0_L1I RFO       ACCESS:          0  HIT:          0  MISS:          0
cpu0_L1I PREFETCH  ACCESS:          0  HIT:          0  MISS:          0
cpu0_L1I WRITEBACK ACCESS:          0  HIT:          0  MISS:          0
cpu0_STLB TOTAL     ACCESS:       7102  HIT:       2479  MISS:       4623
cpu0_STLB LOAD      ACCESS:       7089  HIT:       2476  MISS:       4613
cpu0_STLB RFO       ACCESS:         13  HIT:          3  MISS:         10
cpu0_STLB PREFETCH  ACCESS:          0  HIT:          0  MISS:          0
cpu0_STLB WRITEBACK ACCESS:          0  HIT:          0  MISS:          0
cpu0_L1D TOTAL     ACCESS:    4630347  HIT:    4309088  MISS:     321259
cpu0_L1D LOAD      ACCESS:    2637202  HIT:    2317371  MISS:     319831
cpu0_L1D RFO       ACCESS:    1988598  HIT:    1988014  MISS:        584
cpu0_L1D PREFETCH  ACCESS:          0  HIT:          0  MISS:          0
cpu0_L1D WRITEBACK ACCESS:          0  HIT:          0  MISS:          0
cpu0_L2C TOTAL     ACCESS:     324773  HIT:     161105  MISS:     163668
cpu0_L2C LOAD      ACCESS:     319874  HIT:     156953  MISS:     162921
cpu0_L2C RFO       ACCESS:        584  HIT:         13  MISS:        571
cpu0_L2C PREFETCH  ACCESS:          0  HIT:          0  MISS:          0
cpu0_L2C WRITEBACK ACCESS:       3471  HIT:       3469  MISS:          2
LLC TOTAL     ACCESS:     165604  HIT:       5381  MISS:     160223
LLC LOAD      ACCESS:     162921  HIT:       3900  MISS:     159021
LLC RFO       ACCESS:        571  HIT:          0  MISS:        571
LLC PREFETCH  ACCESS:          0  HIT:          0  MISS:          0
LLC WRITEBACK ACCESS:       1938  HIT:       1404  MISS:        534
Heartbeat CPU 0 instructions: 72000004 cycles: 51612046 heartbeat IPC: 0.569605 cumulative IPC: 0.562493 (Simulation time: 0 hr 39 min 47 sec) 

Region of Interest Statistics
cpu0_DTLB TOTAL     ACCESS:    4135088  HIT:    4127455  MISS:       7633
cpu0_DTLB LOAD      ACCESS:    3304011  HIT:    3296391  MISS:       7620
cpu0_DTLB RFO       ACCESS:     831077  HIT:     831064  MISS:         13
cpu0_DTLB PREFETCH  ACCESS:          0  HIT:          0  MISS:          0
cpu0_DTLB WRITEBACK ACCESS:          0  HIT:          0  MISS:          0
cpu0_ITLB TOTAL     ACCESS:    2457393  HIT:    2457388  MISS:          5
cpu0_ITLB LOAD      ACCESS:    2457393  HIT:    2457388  MISS:          5
cpu0_ITLB RFO       ACCESS:          0  HIT:          0  MISS:          0
cpu0_ITLB PREFETCH  ACCESS:          0  HIT:          0  MISS:          0
cpu0_ITLB WRITEBACK ACCESS:          0  HIT:          0  MISS:          0
cpu0_L1I TOTAL     ACCESS:      18776  HIT:      18733  MISS:         43
cpu0_L1I LOAD      ACCESS:      18776  HIT:      18733  MISS:         43
cpu0_L1I RFO       ACCESS:          0  HIT:          0  MISS:          0
cpu0_L1I PREFETCH  ACCESS:          0  HIT:          0  MISS:          0
cpu0_L1I WRITEBACK ACCESS:          0  HIT:          0  MISS:          0
cpu0_STLB TOTAL     ACCESS:       7638  HIT:       2659  MISS:       4979
cpu0_STLB LOAD      ACCESS:       7625  HIT:       2656  MISS:       4969
cpu0_STLB RFO       ACCESS:         13  HIT:          3  MISS:         10
cpu0_STLB PREFETCH  ACCESS:          0  HIT:          0  MISS:          0
cpu0_STLB WRITEBACK ACCESS:          0  HIT:          0  MISS:          0
cpu0_L1D TOTAL     ACCESS:    5094812  HIT:    4741246  MISS:     353566
cpu0_L1D LOAD      ACCESS:    2900926  HIT:    2548859  MISS:     352067
cpu0_L1D RFO       ACCESS:    2188996  HIT:    2188412  MISS:        584
cpu0_L1D PREFETCH  ACCESS:          0  HIT:          0  MISS:          0
cpu0_L1D WRITEBACK ACCESS:          0  HIT:          0  MISS:          0
cpu0_L2C TOTAL     ACCESS:     357300  HIT:     177543  MISS:     179757
cpu0_L2C LOAD      ACCESS:     352110  HIT:     173110  MISS:     179000
cpu0_L2C RFO       ACCESS:        584  HIT:         13  MISS:        571
cpu0_L2C PREFETCH  ACCESS:          0  HIT:          0  MISS:          0
cpu0_L2C WRITEBACK ACCESS:       3691  HIT:       3689  MISS:          2
LLC TOTAL     ACCESS:     181758  HIT:       5597  MISS:     176161
LLC LOAD      ACCESS:     179000  HIT:       4046  MISS:     174954
LLC RFO       ACCESS:        571  HIT:          0  MISS:        571
LLC PREFETCH  ACCESS:          0  HIT:          0  MISS:          0
LLC WRITEBACK ACCESS:       2003  HIT:       1469  MISS:        534
Heartbeat CPU 0 instructions: 74000001 cycles: 55121849 heartbeat IPC: 0.569832 cumulative IPC: 0.563098 (Simulation time: 0 hr 41 min 17 sec) 

Region of Interest Statistics
cpu0_DTLB TOTAL     ACCESS:    4512292  HIT:    4504159  MISS:       8133
cpu0_DTLB LOAD      ACCESS:    3605872  HIT:    3597752  MISS:       8120
cpu0_DTLB RFO       ACCESS:     906420  HIT:     906407  MISS:         13
cpu0_DTLB PREFETCH  ACCESS:          0  HIT:          0  MISS:          0
cpu0_DTLB WRITEBACK ACCESS:          0  HIT:          0  MISS:          0
cpu0_ITLB TOTAL     ACCESS:    2682749  HIT:    2682744  MISS:          5
cpu0_ITLB LOAD      ACCESS:    2682749  HIT:    2682744  MISS:          5
cpu0_ITLB RFO       ACCESS:          0  HIT:          0  MISS:          0
cpu0_ITLB PREFETCH  ACCESS:          0  HIT:          0  MISS:          0
cpu0_ITLB WRITEBACK ACCESS:          0  HIT:          0  MISS:          0
cpu0_L1I TOTAL     ACCESS:      18776  HIT:      18733  MISS:         43
cpu0_L1I LOAD      ACCESS:      18776  HIT:      18733  MISS:         43
cpu0_L1I RFO       ACCESS:          0  HIT:          0  MISS:          0
cpu0_L1I PREFETCH  ACCESS:          0  HIT:          0  MISS:          0
cpu0_L1I WRITEBACK ACCESS:          0  HIT:          0  MISS:          0
cpu0_STLB TOTAL     ACCESS:       8138  HIT:       2805  MISS:       5333
cpu0_STLB LOAD      ACCESS:       8125  HIT:       2802  MISS:       5323
cpu0_STLB RFO       ACCESS:         13  HIT:          3  MISS:         10
cpu0_STLB PREFETCH  ACCESS:          0  HIT:          0  MISS:          0
cpu0_STLB WRITEBACK ACCESS:          0  HIT:          0  MISS:          0
cpu0_L1D TOTAL     ACCESS:    5559187  HIT:    5173337  MISS:     385850
cpu0_L1D LOAD      ACCESS:    3164636  HIT:    2780352  MISS:     384284
cpu0_L1D RFO       ACCESS:    2389316  HIT:    2388732  MISS:        584
cpu0_L1D PREFETCH  ACCESS:          0  HIT:          0  MISS:          0
cpu0_L1D WRITEBACK ACCESS:          0  HIT:          0  MISS:          0
cpu0_L2C TOTAL     ACCESS:     389814  HIT:     194001  MISS:     195813
cpu0_L2C LOAD      ACCESS:     384327  HIT:     189278  MISS:     195049
cpu0_L2C RFO       ACCESS:        584  HIT:         13  MISS:        571
cpu0_L2C PREFETCH  ACCESS:          0  HIT:          0  MISS:          0
cpu0_L2C WRITEBACK ACCESS:       3921  HIT:       3919  MISS:          2
LLC TOTAL     ACCESS:     197869  HIT:       5805  MISS:     192064
LLC LOAD      ACCESS:     195049  HIT:       4195  MISS:     190854
LLC RFO       ACCESS:        571  HIT:          0  MISS:        571
LLC PREFETCH  ACCESS:          0  HIT:          0  MISS:          0
LLC WRITEBACK ACCESS:       2058  HIT:       1524  MISS:        534
Heartbeat CPU 0 instructions: 76000004 cycles: 58652998 heartbeat IPC: 0.566389 cumulative IPC: 0.563349 (Simulation time: 0 hr 42 min 26 sec) 

Region of Interest Statistics
cpu0_DTLB TOTAL     ACCESS:    4889494  HIT:    4880879  MISS:       8615
cpu0_DTLB LOAD      ACCESS:    3907695  HIT:    3899093  MISS:       8602
cpu0_DTLB RFO       ACCESS:     981799  HIT:     981786  MISS:         13
cpu0_DTLB PREFETCH  ACCESS:          0  HIT:          0  MISS:          0
cpu0_DTLB WRITEBACK ACCESS:          0  HIT:          0  MISS:          0
cpu0_ITLB TOTAL     ACCESS:    2908099  HIT:    2908094  MISS:          5
cpu0_ITLB LOAD      ACCESS:    2908099  HIT:    2908094  MISS:          5
cpu0_ITLB RFO       ACCESS:          0  HIT:          0  MISS:          0
cpu0_ITLB PREFETCH  ACCESS:          0  HIT:          0  MISS:          0
cpu0_ITLB WRITEBACK ACCESS:          0  HIT:          0  MISS:          0
cpu0_L1I TOTAL     ACCESS:      18776  HIT:      18733  MISS:         43
cpu0_L1I LOAD      ACCESS:      18776  HIT:      18733  MISS:         43
cpu0_L1I RFO       ACCESS:          0  HIT:          0  MISS:          0
cpu0_L1I PREFETCH  ACCESS:          0  HIT:          0  MISS:          0
cpu0_L1I WRITEBACK ACCESS:          0  HIT:          0  MISS:          0
cpu0_STLB TOTAL     ACCESS:       8620  HIT:       2962  MISS:       5658
cpu0_STLB LOAD      ACCESS:       8607  HIT:       2959  MISS:       5648
cpu0_STLB RFO       ACCESS:         13  HIT:          3  MISS:         10
cpu0_STLB PREFETCH  ACCESS:          0  HIT:          0  MISS:          0
cpu0_STLB WRITEBACK ACCESS:          0  HIT:          0  MISS:          0
cpu0_L1D TOTAL     ACCESS:    6023559  HIT:    5605430  MISS:     418129
cpu0_L1D LOAD      ACCESS:    3428297  HIT:    3011785  MISS:     416512
cpu0_L1D RFO       ACCESS:    2589706  HIT:    2589122  MISS:        584
cpu0_L1D PREFETCH  ACCESS:          0  HIT:          0  MISS:          0
cpu0_L1D WRITEBACK ACCESS:          0  HIT:          0  MISS:          0
cpu0_L2C TOTAL     ACCESS:     422314  HIT:     210465  MISS:     211849
cpu0_L2C LOAD      ACCESS:     416555  HIT:     205482  MISS:     211073
cpu0_L2C RFO       ACCESS:        584  HIT:         13  MISS:        571
cpu0_L2C PREFETCH  ACCESS:          0  HIT:          0  MISS:          0
cpu0_L2C WRITEBACK ACCESS:       4142  HIT:       4140  MISS:          2
LLC TOTAL     ACCESS:     213961  HIT:       5895  MISS:     208066
LLC LOAD      ACCESS:     211073  HIT:       4224  MISS:     206849
LLC RFO       ACCESS:        571  HIT:          0  MISS:        571
LLC PREFETCH  ACCESS:          0  HIT:          0  MISS:          0
LLC WRITEBACK ACCESS:       2114  HIT:       1580  MISS:        534
Heartbeat CPU 0 instructions: 78000000 cycles: 62164609 heartbeat IPC: 0.569538 cumulative IPC: 0.563787 (Simulation time: 0 hr 43 min 51 sec) 

Region of Interest Statistics
cpu0_DTLB TOTAL     ACCESS:    5266673  HIT:    5257562  MISS:       9111
cpu0_DTLB LOAD      ACCESS:    4209510  HIT:    4200412  MISS:       9098
cpu0_DTLB RFO       ACCESS:    1057163  HIT:    1057150  MISS:         13
cpu0_DTLB PREFETCH  ACCESS:          0  HIT:          0  MISS:          0
cpu0_DTLB WRITEBACK ACCESS:          0  HIT:          0  MISS:          0
cpu0_ITLB TOTAL     ACCESS:    3133450  HIT:    3133445  MISS:          5
cpu0_ITLB LOAD      ACCESS:    3133450  HIT:    3133445  MISS:          5
cpu0_ITLB RFO       ACCESS:          0  HIT:          0  MISS:          0
cpu0_ITLB PREFETCH  ACCESS:          0  HIT:          0  MISS:          0
cpu0_ITLB WRITEBACK ACCESS:          0  HIT:          0  MISS:          0
cpu0_L1I TOTAL     ACCESS:      18776  HIT:      18733  MISS:         43
cpu0_L1I LOAD      ACCESS:      18776  HIT:      18733  MISS:         43
cpu0_L1I RFO       ACCESS:          0  HIT:          0  MISS:          0
cpu0_L1I PREFETCH  ACCESS:          0  HIT:          0  MISS:          0
cpu0_L1I WRITEBACK ACCESS:          0  HIT:          0  MISS:          0
cpu0_STLB TOTAL     ACCESS:       9116  HIT:       3127  MISS:       5989
cpu0_STLB LOAD      ACCESS:       9103  HIT:       3124  MISS:       5979
cpu0_STLB RFO       ACCESS:         13  HIT:          3  MISS:         10
cpu0_STLB PREFETCH  ACCESS:          0  HIT:          0  MISS:          0
cpu0_STLB WRITEBACK ACCESS:          0  HIT:          0  MISS:          0
cpu0_L1D TOTAL     ACCESS:    6487858  HIT:    6037498  MISS:     450360
cpu0_L1D LOAD      ACCESS:    3691913  HIT:    3243229  MISS:     448684
cpu0_L1D RFO       ACCESS:    2790066  HIT:    2789482  MISS:        584
cpu0_L1D PREFETCH  ACCESS:          0  HIT:          0  MISS:          0
cpu0_L1D WRITEBACK ACCESS:          0  HIT:          0  MISS:          0
cpu0_L2C TOTAL     ACCESS:     454772  HIT:     226909  MISS:     227863
cpu0_L2C LOAD      ACCESS:     448727  HIT:     221649  MISS:     227078
cpu0_L2C RFO       ACCESS:        584  HIT:         13  MISS:        571
cpu0_L2C PREFETCH  ACCESS:          0  HIT:          0  MISS:          0
cpu0_L2C WRITEBACK ACCESS:       4369  HIT:       4367  MISS:          2
LLC TOTAL     ACCESS:     230033  HIT:       6005  MISS:     224028
LLC LOAD      ACCESS:     227078  HIT:       4271  MISS:     222807
LLC RFO       ACCESS:        571  HIT:          0  MISS:        571
LLC PREFETCH  ACCESS:          0  HIT:          0  MISS:          0
LLC WRITEBACK ACCESS:       2172  HIT:       1638  MISS:        534
Heartbeat CPU 0 instructions: 80000000 cycles: 65707909 heartbeat IPC: 0.564446 cumulative IPC: 0.563831 (Simulation time: 0 hr 45 min 17 sec) 

Region of Interest Statistics
cpu0_DTLB TOTAL     ACCESS:    5644423  HIT:    5634700  MISS:       9723
cpu0_DTLB LOAD      ACCESS:    4511738  HIT:    4502028  MISS:       9710
cpu0_DTLB RFO       ACCESS:    1132685  HIT:    1132672  MISS:         13
cpu0_DTLB PREFETCH  ACCESS:          0  HIT:          0  MISS:          0
cpu0_DTLB WRITEBACK ACCESS:          0  HIT:          0  MISS:          0
cpu0_ITLB TOTAL     ACCESS:    3359089  HIT:    3359084  MISS:          5
cpu0_ITLB LOAD      ACCESS:    3359089  HIT:    3359084  MISS:          5
cpu0_ITLB RFO       ACCESS:          0  HIT:          0  MISS:          0
cpu0_ITLB PREFETCH  ACCESS:          0  HIT:          0  MISS:          0
cpu0_ITLB WRITEBACK ACCESS:          0  HIT:          0  MISS:          0
cpu0_L1I TOTAL     ACCESS:      18776  HIT:      18733  MISS:         43
cpu0_L1I LOAD      ACCESS:      18776  HIT:      18733  MISS:         43
cpu0_L1I RFO       ACCESS:          0  HIT:          0  MISS:          0
cpu0_L1I PREFETCH  ACCESS:          0  HIT:          0  MISS:          0
cpu0_L1I WRITEBACK ACCESS:          0  HIT:          0  MISS:          0
cpu0_STLB TOTAL     ACCESS:       9728  HIT:       3292  MISS:       6436
cpu0_STLB LOAD      ACCESS:       9715  HIT:       3289  MISS:       6426
cpu0_STLB RFO       ACCESS:         13  HIT:          3  MISS:         10
cpu0_STLB PREFETCH  ACCESS:          0  HIT:          0  MISS:          0
cpu0_STLB WRITEBACK ACCESS:          0  HIT:          0  MISS:          0
cpu0_L1D TOTAL     ACCESS:    6952659  HIT:    6469941  MISS:     482718
cpu0_L1D LOAD      ACCESS:    3955819  HIT:    3474898  MISS:     480921
cpu0_L1D RFO       ACCESS:    2990536  HIT:    2989952  MISS:        584
cpu0_L1D PREFETCH  ACCESS:          0  HIT:          0  MISS:          0
cpu0_L1D WRITEBACK ACCESS:          0  HIT:          0  MISS:          0
cpu0_L2C TOTAL     ACCESS:     487368  HIT:     243317  MISS:     244051
cpu0_L2C LOAD      ACCESS:     480964  HIT:     237718  MISS:     243246
cpu0_L2C RFO       ACCESS:        584  HIT:         13  MISS:        571
cpu0_L2C PREFETCH  ACCESS:          0  HIT:          0  MISS:          0
cpu0_L2C WRITEBACK ACCESS:       4607  HIT:       4605  MISS:          2
LLC TOTAL     ACCESS:     246310  HIT:       6152  MISS:     240158
LLC LOAD      ACCESS:     243246  HIT:       4327  MISS:     238919
LLC RFO       ACCESS:        571  HIT:          0  MISS:        571
LLC PREFETCH  ACCESS:          0  HIT:          0  MISS:          0
LLC WRITEBACK ACCESS:       2261  HIT:       1727  MISS:        534
Heartbeat CPU 0 instructions: 82000003 cycles: 69223614 heartbeat IPC: 0.568877 cumulative IPC: 0.564144 (Simulation time: 0 hr 46 min 43 sec) 

Region of Interest Statistics
cpu0_DTLB TOTAL     ACCESS:    6021375  HIT:    6011140  MISS:      10235
cpu0_DTLB LOAD      ACCESS:    4813362  HIT:    4803140  MISS:      10222
cpu0_DTLB RFO       ACCESS:    1208013  HIT:    1208000  MISS:         13
cpu0_DTLB PREFETCH  ACCESS:          0  HIT:          0  MISS:          0
cpu0_DTLB WRITEBACK ACCESS:          0  HIT:          0  MISS:          0
cpu0_ITLB TOTAL     ACCESS:    3584414  HIT:    3584409  MISS:          5
cpu0_ITLB LOAD      ACCESS:    3584414  HIT:    3584409  MISS:          5
cpu0_ITLB RFO       ACCESS:          0  HIT:          0  MISS:          0
cpu0_ITLB PREFETCH  ACCESS:          0  HIT:          0  MISS:          0
cpu0_ITLB WRITEBACK ACCESS:          0  HIT:          0  MISS:          0
cpu0_L1I TOTAL     ACCESS:      18776  HIT:      18733  MISS:         43
cpu0_L1I LOAD      ACCESS:      18776  HIT:      18733  MISS:         43
cpu0_L1I RFO       ACCESS:          0  HIT:          0  MISS:          0
cpu0_L1I PREFETCH  ACCESS:          0  HIT:          0  MISS:          0
cpu0_L1I WRITEBACK ACCESS:          0  HIT:          0  MISS:          0
cpu0_STLB TOTAL     ACCESS:      10240  HIT:       3436  MISS:       6804
cpu0_STLB LOAD      ACCESS:      10227  HIT:       3433  MISS:       6794
cpu0_STLB RFO       ACCESS:         13  HIT:          3  MISS:         10
cpu0_STLB PREFETCH  ACCESS:          0  HIT:          0  MISS:          0
cpu0_STLB WRITEBACK ACCESS:          0  HIT:          0  MISS:          0
cpu0_L1D TOTAL     ACCESS:    7416712  HIT:    6901668  MISS:     515044
cpu0_L1D LOAD      ACCESS:    4219226  HIT:    3706054  MISS:     513172
cpu0_L1D RFO       ACCESS:    3190823  HIT:    3190239  MISS:        584
cpu0_L1D PREFETCH  ACCESS:          0  HIT:          0  MISS:          0
cpu0_L1D WRITEBACK ACCESS:          0  HIT:          0  MISS:          0
cpu0_L2C TOTAL     ACCESS:     519925  HIT:     259788  MISS:     260137
cpu0_L2C LOAD      ACCESS:     513215  HIT:     253893  MISS:     259322
cpu0_L2C RFO       ACCESS:        584  HIT:         13  MISS:        571
cpu0_L2C PREFETCH  ACCESS:          0  HIT:          0  MISS:          0
cpu0_L2C WRITEBACK ACCESS:       4838  HIT:       4836  MISS:          2
LLC TOTAL     ACCESS:     262463  HIT:       6233  MISS:     256230
LLC LOAD      ACCESS:     259322  HIT:       4337  MISS:     254985
LLC RFO       ACCESS:        571  HIT:          0  MISS:        571
LLC PREFETCH  ACCESS:          0  HIT:          0  MISS:          0
LLC WRITEBACK ACCESS:       2328  HIT:       1794  MISS:        534
Heartbeat CPU 0 instructions: 84000004 cycles: 72746223 heartbeat IPC: 0.567761 cumulative IPC: 0.564355 (Simulation time: 0 hr 48 min 7 sec) 

Region of Interest Statistics
cpu0_DTLB TOTAL     ACCESS:    6399205  HIT:    6388417  MISS:      10788
cpu0_DTLB LOAD      ACCESS:    5115698  HIT:    5104923  MISS:      10775
cpu0_DTLB RFO       ACCESS:    1283507  HIT:    1283494  MISS:         13
cpu0_DTLB PREFETCH  ACCESS:          0  HIT:          0  MISS:          0
cpu0_DTLB WRITEBACK ACCESS:          0  HIT:          0  MISS:          0
cpu0_ITLB TOTAL     ACCESS:    3809931  HIT:    3809926  MISS:          5
cpu0_ITLB LOAD      ACCESS:    3809931  HIT:    3809926  MISS:          5
cpu0_ITLB RFO       ACCESS:          0  HIT:          0  MISS:          0
cpu0_ITLB PREFETCH  ACCESS:          0  HIT:          0  MISS:          0
cpu0_ITLB WRITEBACK ACCESS:          0  HIT:          0  MISS:          0
cpu0_L1I TOTAL     ACCESS:      18776  HIT:      18733  MISS:         43
cpu0_L1I LOAD      ACCESS:      18776  HIT:      18733  MISS:         43
cpu0_L1I RFO       ACCESS:          0  HIT:          0  MISS:          0
cpu0_L1I PREFETCH  ACCESS:          0  HIT:          0  MISS:          0
cpu0_L1I WRITEBACK ACCESS:          0  HIT:          0  MISS:          0
cpu0_STLB TOTAL     ACCESS:      10793  HIT:       3608  MISS:       7185
cpu0_STLB LOAD      ACCESS:      10780  HIT:       3605  MISS:       7175
cpu0_STLB RFO       ACCESS:         13  HIT:          3  MISS:         10
cpu0_STLB PREFETCH  ACCESS:          0  HIT:          0  MISS:          0
cpu0_STLB WRITEBACK ACCESS:          0  HIT:          0  MISS:          0
cpu0_L1D TOTAL     ACCESS:    7881756  HIT:    7334414  MISS:     547342
cpu0_L1D LOAD      ACCESS:    4483323  HIT:    3937934  MISS:     545389
cpu0_L1D RFO       ACCESS:    3391398  HIT:    3390814  MISS:        584
cpu0_L1D PREFETCH  ACCESS:          0  HIT:          0  MISS:          0
cpu0_L1D WRITEBACK ACCESS:          0  HIT:          0  MISS:          0
cpu0_L2C TOTAL     ACCESS:     552443  HIT:     276193  MISS:     276250
cpu0_L2C LOAD      ACCESS:     545432  HIT:     270013  MISS:     275419
cpu0_L2C RFO       ACCESS:        584  HIT:         13  MISS:        571
cpu0_L2C PREFETCH  ACCESS:          0  HIT:          0  MISS:          0
cpu0_L2C WRITEBACK ACCESS:       5058  HIT:       5056  MISS:          2
LLC TOTAL     ACCESS:     278631  HIT:       6299  MISS:     272332
LLC LOAD      ACCESS:     275419  HIT:       4340  MISS:     271079
LLC RFO       ACCESS:        571  HIT:          0  MISS:        571
LLC PREFETCH  ACCESS:          0  HIT:          0  MISS:          0
LLC WRITEBACK ACCESS:       2383  HIT:       1849  MISS:        534
Heartbeat CPU 0 instructions: 86000002 cycles: 76290913 heartbeat IPC: 0.564224 cumulative IPC: 0.564348 (Simulation time: 0 hr 49 min 32 sec) 

Region of Interest Statistics
cpu0_DTLB TOTAL     ACCESS:    6776458  HIT:    6764961  MISS:      11497
cpu0_DTLB LOAD      ACCESS:    5417514  HIT:    5406030  MISS:      11484
cpu0_DTLB RFO       ACCESS:    1358944  HIT:    1358931  MISS:         13
cpu0_DTLB PREFETCH  ACCESS:          0  HIT:          0  MISS:          0
cpu0_DTLB WRITEBACK ACCESS:          0  HIT:          0  MISS:          0
cpu0_ITLB TOTAL     ACCESS:    4035622  HIT:    4035617  MISS:          5
cpu0_ITLB LOAD      ACCESS:    4035622  HIT:    4035617  MISS:          5
cpu0_ITLB RFO       ACCESS:          0  HIT:          0  MISS:          0
cpu0_ITLB PREFETCH  ACCESS:          0  HIT:          0  MISS:          0
cpu0_ITLB WRITEBACK ACCESS:          0  HIT:          0  MISS:          0
cpu0_L1I TOTAL     ACCESS:      18776  HIT:      18733  MISS:         43
cpu0_L1I LOAD      ACCESS:      18776  HIT:      18733  MISS:         43
cpu0_L1I RFO       ACCESS:          0  HIT:          0  MISS:          0
cpu0_L1I PREFETCH  ACCESS:          0  HIT:          0  MISS:          0
cpu0_L1I WRITEBACK ACCESS:          0  HIT:          0  MISS:          0
cpu0_STLB TOTAL     ACCESS:      11502  HIT:       3849  MISS:       7653
cpu0_STLB LOAD      ACCESS:      11489  HIT:       3846  MISS:       7643
cpu0_STLB RFO       ACCESS:         13  HIT:          3  MISS:         10
cpu0_STLB PREFETCH  ACCESS:          0  HIT:          0  MISS:          0
cpu0_STLB WRITEBACK ACCESS:          0  HIT:          0  MISS:          0
cpu0_L1D TOTAL     ACCESS:    8345790  HIT:    7766238  MISS:     579552
cpu0_L1D LOAD      ACCESS:    4746829  HIT:    4169331  MISS:     577498
cpu0_L1D RFO       ACCESS:    3591465  HIT:    3590881  MISS:        584
cpu0_L1D PREFETCH  ACCESS:          0  HIT:          0  MISS:          0
cpu0_L1D WRITEBACK ACCESS:          0  HIT:          0  MISS:          0
cpu0_L2C TOTAL     ACCESS:     584906  HIT:     292429  MISS:     292477
cpu0_L2C LOAD      ACCESS:     577541  HIT:     285917  MISS:     291624
cpu0_L2C RFO       ACCESS:        584  HIT:         13  MISS:        571
cpu0_L2C PREFETCH  ACCESS:          0  HIT:          0  MISS:          0
cpu0_L2C WRITEBACK ACCESS:       5311  HIT:       5309  MISS:          2
LLC TOTAL     ACCESS:     294948  HIT:       6408  MISS:     288540
LLC LOAD      ACCESS:     291624  HIT:       4350  MISS:     287274
LLC RFO       ACCESS:        571  HIT:          0  MISS:        571
LLC PREFETCH  ACCESS:          0  HIT:          0  MISS:          0
LLC WRITEBACK ACCESS:       2473  HIT:       1939  MISS:        534
Heartbeat CPU 0 instructions: 88000001 cycles: 79851180 heartbeat IPC: 0.561755 cumulative IPC: 0.564211 (Simulation time: 0 hr 50 min 54 sec) 

Region of Interest Statistics
cpu0_DTLB TOTAL     ACCESS:    7154689  HIT:    7142431  MISS:      12258
cpu0_DTLB LOAD      ACCESS:    5720066  HIT:    5707821  MISS:      12245
cpu0_DTLB RFO       ACCESS:    1434623  HIT:    1434610  MISS:         13
cpu0_DTLB PREFETCH  ACCESS:          0  HIT:          0  MISS:          0
cpu0_DTLB WRITEBACK ACCESS:          0  HIT:          0  MISS:          0
cpu0_ITLB TOTAL     ACCESS:    4261733  HIT:    4261728  MISS:          5
cpu0_ITLB LOAD      ACCESS:    4261733  HIT:    4261728  MISS:          5
cpu0_ITLB RFO       ACCESS:          0  HIT:          0  MISS:          0
cpu0_ITLB PREFETCH  ACCESS:          0  HIT:          0  MISS:          0
cpu0_ITLB WRITEBACK ACCESS:          0  HIT:          0  MISS:          0
cpu0_L1I TOTAL     ACCESS:      18776  HIT:      18733  MISS:         43
cpu0_L1I LOAD      ACCESS:      18776  HIT:      18733  MISS:         43
cpu0_L1I RFO       ACCESS:          0  HIT:          0  MISS:          0
cpu0_L1I PREFETCH  ACCESS:          0  HIT:          0  MISS:          0
cpu0_L1I WRITEBACK ACCESS:          0  HIT:          0  MISS:          0
cpu0_STLB TOTAL     ACCESS:      12263  HIT:       4105  MISS:       8158
cpu0_STLB LOAD      ACCESS:      12250  HIT:       4102  MISS:       8148
cpu0_STLB RFO       ACCESS:         13  HIT:          3  MISS:         10
cpu0_STLB PREFETCH  ACCESS:          0  HIT:          0  MISS:          0
cpu0_STLB WRITEBACK ACCESS:          0  HIT:          0  MISS:          0
cpu0_L1D TOTAL     ACCESS:    8810474  HIT:    8198894  MISS:     611580
cpu0_L1D LOAD      ACCESS:    5010746  HIT:    4401301  MISS:     609445
cpu0_L1D RFO       ACCESS:    3791730  HIT:    3791146  MISS:        584
cpu0_L1D PREFETCH  ACCESS:          0  HIT:          0  MISS:          0
cpu0_L1D WRITEBACK ACCESS:          0  HIT:          0  MISS:          0
cpu0_L2C TOTAL     ACCESS:     617187  HIT:     308440  MISS:     308747
cpu0_L2C LOAD      ACCESS:     609488  HIT:     301614  MISS:     307874
cpu0_L2C RFO       ACCESS:        584  HIT:         13  MISS:        571
cpu0_L2C PREFETCH  ACCESS:          0  HIT:          0  MISS:          0
cpu0_L2C WRITEBACK ACCESS:       5564  HIT:       5562  MISS:          2
LLC TOTAL     ACCESS:     311338  HIT:       6542  MISS:     304796
LLC LOAD      ACCESS:     307874  HIT:       4356  MISS:     303518
LLC RFO       ACCESS:        571  HIT:          0  MISS:        571
LLC PREFETCH  ACCESS:          0  HIT:          0  MISS:          0
LLC WRITEBACK ACCESS:       2593  HIT:       2059  MISS:        534
Heartbeat CPU 0 instructions: 90000000 cycles: 83367716 heartbeat IPC: 0.568741 cumulative IPC: 0.564436 (Simulation time: 0 hr 52 min 1 sec) 

Region of Interest Statistics
cpu0_DTLB TOTAL     ACCESS:    7531290  HIT:    7518477  MISS:      12813
cpu0_DTLB LOAD      ACCESS:    6021423  HIT:    6008623  MISS:      12800
cpu0_DTLB RFO       ACCESS:    1509867  HIT:    1509854  MISS:         13
cpu0_DTLB PREFETCH  ACCESS:          0  HIT:          0  MISS:          0
cpu0_DTLB WRITEBACK ACCESS:          0  HIT:          0  MISS:          0
cpu0_ITLB TOTAL     ACCESS:    4487080  HIT:    4487075  MISS:          5
cpu0_ITLB LOAD      ACCESS:    4487080  HIT:    4487075  MISS:          5
cpu0_ITLB RFO       ACCESS:          0  HIT:          0  MISS:          0
cpu0_ITLB PREFETCH  ACCESS:          0  HIT:          0  MISS:          0
cpu0_ITLB WRITEBACK ACCESS:          0  HIT:          0  MISS:          0
cpu0_L1I TOTAL     ACCESS:      18776  HIT:      18733  MISS:         43
cpu0_L1I LOAD      ACCESS:      18776  HIT:      18733  MISS:         43
cpu0_L1I RFO       ACCESS:          0  HIT:          0  MISS:          0
cpu0_L1I PREFETCH  ACCESS:          0  HIT:          0  MISS:          0
cpu0_L1I WRITEBACK ACCESS:          0  HIT:          0  MISS:          0
cpu0_STLB TOTAL     ACCESS:      12818  HIT:       4268  MISS:       8550
cpu0_STLB LOAD      ACCESS:      12805  HIT:       4265  MISS:       8540
cpu0_STLB RFO       ACCESS:         13  HIT:          3  MISS:         10
cpu0_STLB PREFETCH  ACCESS:          0  HIT:          0  MISS:          0
cpu0_STLB WRITEBACK ACCESS:          0  HIT:          0  MISS:          0
cpu0_L1D TOTAL     ACCESS:    9273943  HIT:    8630144  MISS:     643799
cpu0_L1D LOAD      ACCESS:    5273818  HIT:    4632219  MISS:     641599
cpu0_L1D RFO       ACCESS:    3991737  HIT:    3991153  MISS:        584
cpu0_L1D PREFETCH  ACCESS:          0  HIT:          0  MISS:          0
cpu0_L1D WRITEBACK ACCESS:          0  HIT:          0  MISS:          0
cpu0_L2C TOTAL     ACCESS:     649600  HIT:     324749  MISS:     324851
cpu0_L2C LOAD      ACCESS:     641642  HIT:     317674  MISS:     323968
cpu0_L2C RFO       ACCESS:        584  HIT:         13  MISS:        571
cpu0_L2C PREFETCH  ACCESS:          0  HIT:          0  MISS:          0
cpu0_L2C WRITEBACK ACCESS:       5758  HIT:       5756  MISS:          2
LLC TOTAL     ACCESS:     327512  HIT:       6633  MISS:     320879
LLC LOAD      ACCESS:     323968  HIT:       4371  MISS:     319597
LLC RFO       ACCESS:        571  HIT:          0  MISS:        571
LLC PREFETCH  ACCESS:          0  HIT:          0  MISS:          0
LLC WRITEBACK ACCESS:       2663  HIT:       2129  MISS:        534
Heartbeat CPU 0 instructions: 92000002 cycles: 86956364 heartbeat IPC: 0.557314 cumulative IPC: 0.564092 (Simulation time: 0 hr 53 min 25 sec) 

Region of Interest Statistics
cpu0_DTLB TOTAL     ACCESS:    7907985  HIT:    7894330  MISS:      13655
cpu0_DTLB LOAD      ACCESS:    6322657  HIT:    6309015  MISS:      13642
cpu0_DTLB RFO       ACCESS:    1585328  HIT:    1585315  MISS:         13
cpu0_DTLB PREFETCH  ACCESS:          0  HIT:          0  MISS:          0
cpu0_DTLB WRITEBACK ACCESS:          0  HIT:          0  MISS:          0
cpu0_ITLB TOTAL     ACCESS:    4713386  HIT:    4713381  MISS:          5
cpu0_ITLB LOAD      ACCESS:    4713386  HIT:    4713381  MISS:          5
cpu0_ITLB RFO       ACCESS:          0  HIT:          0  MISS:          0
cpu0_ITLB PREFETCH  ACCESS:          0  HIT:          0  MISS:          0
cpu0_ITLB WRITEBACK ACCESS:          0  HIT:          0  MISS:          0
cpu0_L1I TOTAL     ACCESS:      18776  HIT:      18733  MISS:         43
cpu0_L1I LOAD      ACCESS:      18776  HIT:      18733  MISS:         43
cpu0_L1I RFO       ACCESS:          0  HIT:          0  MISS:          0
cpu0_L1I PREFETCH  ACCESS:          0  HIT:          0  MISS:          0
cpu0_L1I WRITEBACK ACCESS:          0  HIT:          0  MISS:          0
cpu0_STLB TOTAL     ACCESS:      13660  HIT:       4506  MISS:       9154
cpu0_STLB LOAD      ACCESS:      13647  HIT:       4503  MISS:       9144
cpu0_STLB RFO       ACCESS:         13  HIT:          3  MISS:         10
cpu0_STLB PREFETCH  ACCESS:          0  HIT:          0  MISS:          0
cpu0_STLB WRITEBACK ACCESS:          0  HIT:          0  MISS:          0
cpu0_L1D TOTAL     ACCESS:    9736509  HIT:    9060673  MISS:     675836
cpu0_L1D LOAD      ACCESS:    5536633  HIT:    4863086  MISS:     673547
cpu0_L1D RFO       ACCESS:    4190887  HIT:    4190303  MISS:        584
cpu0_L1D PREFETCH  ACCESS:          0  HIT:          0  MISS:          0
cpu0_L1D WRITEBACK ACCESS:          0  HIT:          0  MISS:          0
cpu0_L2C TOTAL     ACCESS:     681988  HIT:     340659  MISS:     341329
cpu0_L2C LOAD      ACCESS:     673590  HIT:     333167  MISS:     340423
cpu0_L2C RFO       ACCESS:        584  HIT:         13  MISS:        571
cpu0_L2C PREFETCH  ACCESS:          0  HIT:          0  MISS:          0
cpu0_L2C WRITEBACK ACCESS:       6109  HIT:       6107  MISS:          2
LLC TOTAL     ACCESS:     344116  HIT:       6794  MISS:     337322
LLC LOAD      ACCESS:     340423  HIT:       4395  MISS:     336028
LLC RFO       ACCESS:        571  HIT:          0  MISS:        571
LLC PREFETCH  ACCESS:          0  HIT:          0  MISS:          0
LLC WRITEBACK ACCESS:       2789  HIT:       2255  MISS:        534
Heartbeat CPU 0 instructions: 94000000 cycles: 101788610 heartbeat IPC: 0.134841 cumulative IPC: 0.492787 (Simulation time: 1 hr 1 min 3 sec) 

Region of Interest Statistics
cpu0_DTLB TOTAL     ACCESS:    8213748  HIT:    8196614  MISS:      17134
cpu0_DTLB LOAD      ACCESS:    6593149  HIT:    6576039  MISS:      17110
cpu0_DTLB RFO       ACCESS:    1620599  HIT:    1620575  MISS:         24
cpu0_DTLB PREFETCH  ACCESS:          0  HIT:          0  MISS:          0
cpu0_DTLB WRITEBACK ACCESS:          0  HIT:          0  MISS:          0
cpu0_ITLB TOTAL     ACCESS:    4793881  HIT:    4793876  MISS:          5
cpu0_ITLB LOAD      ACCESS:    4793881  HIT:    4793876  MISS:          5
cpu0_ITLB RFO       ACCESS:          0  HIT:          0  MISS:          0
cpu0_ITLB PREFETCH  ACCESS:          0  HIT:          0  MISS:          0
cpu0_ITLB WRITEBACK ACCESS:          0  HIT:          0  MISS:          0
cpu0_L1I TOTAL     ACCESS:      30215  HIT:      30169  MISS:         46
cpu0_L1I LOAD      ACCESS:      30215  HIT:      30169  MISS:         46
cpu0_L1I RFO       ACCESS:          0  HIT:          0  MISS:          0
cpu0_L1I PREFETCH  ACCESS:          0  HIT:          0  MISS:          0
cpu0_L1I WRITEBACK ACCESS:          0  HIT:          0  MISS:          0
cpu0_STLB TOTAL     ACCESS:      17139  HIT:       5000  MISS:      12139
cpu0_STLB LOAD      ACCESS:      17115  HIT:       4990  MISS:      12125
cpu0_STLB RFO       ACCESS:         24  HIT:         10  MISS:         14
cpu0_STLB PREFETCH  ACCESS:          0  HIT:          0  MISS:          0
cpu0_STLB WRITEBACK ACCESS:          0  HIT:          0  MISS:          0
cpu0_L1D TOTAL     ACCESS:   10085416  HIT:    9291663  MISS:     793753
cpu0_L1D LOAD      ACCESS:    5807678  HIT:    5016826  MISS:     790852
cpu0_L1D RFO       ACCESS:    4265770  HIT:    4264975  MISS:        795
cpu0_L1D PREFETCH  ACCESS:          0  HIT:          0  MISS:          0
cpu0_L1D WRITEBACK ACCESS:          0  HIT:          0  MISS:          0
cpu0_L2C TOTAL     ACCESS:     801663  HIT:     349081  MISS:     452582
cpu0_L2C LOAD      ACCESS:     790898  HIT:     339539  MISS:     451359
cpu0_L2C RFO       ACCESS:        795  HIT:         33  MISS:        762
cpu0_L2C PREFETCH  ACCESS:          0  HIT:          0  MISS:          0
cpu0_L2C WRITEBACK ACCESS:       7864  HIT:       7858  MISS:          6
LLC TOTAL     ACCESS:     457352  HIT:       8724  MISS:     448628
LLC LOAD      ACCESS:     451359  HIT:       4836  MISS:     446523
LLC RFO       ACCESS:        762  HIT:          9  MISS:        753
LLC PREFETCH  ACCESS:          0  HIT:          0  MISS:          0
LLC WRITEBACK ACCESS:       4776  HIT:       3687  MISS:       1089
Heartbeat CPU 0 instructions: 96000000 cycles: 111870729 heartbeat IPC: 0.198371 cumulative IPC: 0.462915 (Simulation time: 1 hr 5 min 34 sec) 

Region of Interest Statistics
cpu0_DTLB TOTAL     ACCESS:    8497546  HIT:    8473181  MISS:      24365
cpu0_DTLB LOAD      ACCESS:    6822696  HIT:    6798646  MISS:      24050
cpu0_DTLB RFO       ACCESS:    1674850  HIT:    1674535  MISS:        315
cpu0_DTLB PREFETCH  ACCESS:          0  HIT:          0  MISS:          0
cpu0_DTLB WRITEBACK ACCESS:          0  HIT:          0  MISS:          0
cpu0_ITLB TOTAL     ACCESS:    4929827  HIT:    4929819  MISS:          8
cpu0_ITLB LOAD      ACCESS:    4929827  HIT:    4929819  MISS:          8
cpu0_ITLB RFO       ACCESS:          0  HIT:          0  MISS:          0
cpu0_ITLB PREFETCH  ACCESS:          0  HIT:          0  MISS:          0
cpu0_ITLB WRITEBACK ACCESS:          0  HIT:          0  MISS:          0
cpu0_L1I TOTAL     ACCESS:      56556  HIT:      56482  MISS:         74
cpu0_L1I LOAD      ACCESS:      56556  HIT:      56482  MISS:         74
cpu0_L1I RFO       ACCESS:          0  HIT:          0  MISS:          0
cpu0_L1I PREFETCH  ACCESS:          0  HIT:          0  MISS:          0
cpu0_L1I WRITEBACK ACCESS:          0  HIT:          0  MISS:          0
cpu0_STLB TOTAL     ACCESS:      24373  HIT:       6194  MISS:      18179
cpu0_STLB LOAD      ACCESS:      24058  HIT:       6103  MISS:      17955
cpu0_STLB RFO       ACCESS:        315  HIT:         91  MISS:        224
cpu0_STLB PREFETCH  ACCESS:          0  HIT:          0  MISS:          0
cpu0_STLB WRITEBACK ACCESS:          0  HIT:          0  MISS:          0
cpu0_L1D TOTAL     ACCESS:   10438449  HIT:    9568835  MISS:     869614
cpu0_L1D LOAD      ACCESS:    6038803  HIT:    5173492  MISS:     865311
cpu0_L1D RFO       ACCESS:    4381649  HIT:    4379758  MISS:       1891
cpu0_L1D PREFETCH  ACCESS:          0  HIT:          0  MISS:          0
cpu0_L1D WRITEBACK ACCESS:          0  HIT:          0  MISS:          0
cpu0_L2C TOTAL     ACCESS:     880750  HIT:     360481  MISS:     520269
cpu0_L2C LOAD      ACCESS:     865384  HIT:     347520  MISS:     517864
cpu0_L2C RFO       ACCESS:       1891  HIT:         99  MISS:       1792
cpu0_L2C PREFETCH  ACCESS:          0  HIT:          0  MISS:          0
cpu0_L2C WRITEBACK ACCESS:      11063  HIT:      11023  MISS:         40
LLC TOTAL     ACCESS:     526635  HIT:      17276  MISS:     509359
LLC LOAD      ACCESS:     517864  HIT:      11694  MISS:     506170
LLC RFO       ACCESS:       1792  HIT:         34  MISS:       1758
LLC PREFETCH  ACCESS:          0  HIT:          0  MISS:          0
LLC WRITEBACK ACCESS:       6406  HIT:       5295  MISS:       1111
Heartbeat CPU 0 instructions: 98000002 cycles: 115270063 heartbeat IPC: 0.588351 cumulative IPC: 0.467064 (Simulation time: 1 hr 6 min 59 sec) 

Region of Interest Statistics
cpu0_DTLB TOTAL     ACCESS:    8873655  HIT:    8848537  MISS:      25118
cpu0_DTLB LOAD      ACCESS:    7115662  HIT:    7090870  MISS:      24792
cpu0_DTLB RFO       ACCESS:    1757993  HIT:    1757667  MISS:        326
cpu0_DTLB PREFETCH  ACCESS:          0  HIT:          0  MISS:          0
cpu0_DTLB WRITEBACK ACCESS:          0  HIT:          0  MISS:          0
cpu0_ITLB TOTAL     ACCESS:    5145076  HIT:    5145066  MISS:         10
cpu0_ITLB LOAD      ACCESS:    5145076  HIT:    5145066  MISS:         10
cpu0_ITLB RFO       ACCESS:          0  HIT:          0  MISS:          0
cpu0_ITLB PREFETCH  ACCESS:          0  HIT:          0  MISS:          0
cpu0_ITLB WRITEBACK ACCESS:          0  HIT:          0  MISS:          0
cpu0_L1I TOTAL     ACCESS:      66316  HIT:      66227  MISS:         89
cpu0_L1I LOAD      ACCESS:      66316  HIT:      66227  MISS:         89
cpu0_L1I RFO       ACCESS:          0  HIT:          0  MISS:          0
cpu0_L1I PREFETCH  ACCESS:          0  HIT:          0  MISS:          0
cpu0_L1I WRITEBACK ACCESS:          0  HIT:          0  MISS:          0
cpu0_STLB TOTAL     ACCESS:      25128  HIT:       6564  MISS:      18564
cpu0_STLB LOAD      ACCESS:      24802  HIT:       6471  MISS:      18331
cpu0_STLB RFO       ACCESS:        326  HIT:         93  MISS:        233
cpu0_STLB PREFETCH  ACCESS:          0  HIT:          0  MISS:          0
cpu0_STLB WRITEBACK ACCESS:          0  HIT:          0  MISS:          0
cpu0_L1D TOTAL     ACCESS:   10903324  HIT:   10001188  MISS:     902136
cpu0_L1D LOAD      ACCESS:    6295164  HIT:    5397997  MISS:     897167
cpu0_L1D RFO       ACCESS:    4589789  HIT:    4587317  MISS:       2472
cpu0_L1D PREFETCH  ACCESS:          0  HIT:          0  MISS:          0
cpu0_L1D WRITEBACK ACCESS:          0  HIT:          0  MISS:          0
cpu0_L2C TOTAL     ACCESS:     914547  HIT:     378140  MISS:     536407
cpu0_L2C LOAD      ACCESS:     897255  HIT:     363829  MISS:     533426
cpu0_L2C RFO       ACCESS:       2472  HIT:        116  MISS:       2356
cpu0_L2C PREFETCH  ACCESS:          0  HIT:          0  MISS:          0
cpu0_L2C WRITEBACK ACCESS:      12323  HIT:      12283  MISS:         40
LLC TOTAL     ACCESS:     544609  HIT:      19471  MISS:     525138
LLC LOAD      ACCESS:     533426  HIT:      12043  MISS:     521383
LLC RFO       ACCESS:       2356  HIT:         34  MISS:       2322
LLC PREFETCH  ACCESS:          0  HIT:          0  MISS:          0
LLC WRITEBACK ACCESS:       8242  HIT:       7131  MISS:       1111
Heartbeat CPU 0 instructions: 100000002 cycles: 118763688 heartbeat IPC: 0.572471 cumulative IPC: 0.47053 (Simulation time: 1 hr 8 min 25 sec) 

Region of Interest Statistics
cpu0_DTLB TOTAL     ACCESS:    9250802  HIT:    9225201  MISS:      25601
cpu0_DTLB LOAD      ACCESS:    7417480  HIT:    7392205  MISS:      25275
cpu0_DTLB RFO       ACCESS:    1833322  HIT:    1832996  MISS:        326
cpu0_DTLB PREFETCH  ACCESS:          0  HIT:          0  MISS:          0
cpu0_DTLB WRITEBACK ACCESS:          0  HIT:          0  MISS:          0
cpu0_ITLB TOTAL     ACCESS:    5370407  HIT:    5370397  MISS:         10
cpu0_ITLB LOAD      ACCESS:    5370407  HIT:    5370397  MISS:         10
cpu0_ITLB RFO       ACCESS:          0  HIT:          0  MISS:          0
cpu0_ITLB PREFETCH  ACCESS:          0  HIT:          0  MISS:          0
cpu0_ITLB WRITEBACK ACCESS:          0  HIT:          0  MISS:          0
cpu0_L1I TOTAL     ACCESS:      66316  HIT:      66227  MISS:         89
cpu0_L1I LOAD      ACCESS:      66316  HIT:      66227  MISS:         89
cpu0_L1I RFO       ACCESS:          0  HIT:          0  MISS:          0
cpu0_L1I PREFETCH  ACCESS:          0  HIT:          0  MISS:          0
cpu0_L1I WRITEBACK ACCESS:          0  HIT:          0  MISS:          0
cpu0_STLB TOTAL     ACCESS:      25611  HIT:       6693  MISS:      18918
cpu0_STLB LOAD      ACCESS:      25285  HIT:       6600  MISS:      18685
cpu0_STLB RFO       ACCESS:        326  HIT:         93  MISS:        233
cpu0_STLB PREFETCH  ACCESS:          0  HIT:          0  MISS:          0
cpu0_STLB WRITEBACK ACCESS:          0  HIT:          0  MISS:          0
cpu0_L1D TOTAL     ACCESS:   11367697  HIT:   10433229  MISS:     934468
cpu0_L1D LOAD      ACCESS:    6558838  HIT:    5629413  MISS:     929425
cpu0_L1D RFO       ACCESS:    4790145  HIT:    4787673  MISS:       2472
cpu0_L1D PREFETCH  ACCESS:          0  HIT:          0  MISS:          0
cpu0_L1D WRITEBACK ACCESS:          0  HIT:          0  MISS:          0
cpu0_L2C TOTAL     ACCESS:     947064  HIT:     394585  MISS:     552479
cpu0_L2C LOAD      ACCESS:     929513  HIT:     380034  MISS:     549479
cpu0_L2C RFO       ACCESS:       2472  HIT:        116  MISS:       2356
cpu0_L2C PREFETCH  ACCESS:          0  HIT:          0  MISS:          0
cpu0_L2C WRITEBACK ACCESS:      12508  HIT:      12468  MISS:         40
LLC TOTAL     ACCESS:     560735  HIT:      19727  MISS:     541008
LLC LOAD      ACCESS:     549479  HIT:      12234  MISS:     537245
LLC RFO       ACCESS:       2356  HIT:         34  MISS:       2322
LLC PREFETCH  ACCESS:          0  HIT:          0  MISS:          0
LLC WRITEBACK ACCESS:       8296  HIT:       7185  MISS:       1111
Heartbeat CPU 0 instructions: 102000000 cycles: 122263338 heartbeat IPC: 0.571485 cumulative IPC: 0.473749 (Simulation time: 1 hr 9 min 41 sec) 

Region of Interest Statistics
cpu0_DTLB TOTAL     ACCESS:    9627841  HIT:    9601796  MISS:      26045
cpu0_DTLB LOAD      ACCESS:    7719236  HIT:    7693517  MISS:      25719
cpu0_DTLB RFO       ACCESS:    1908605  HIT:    1908279  MISS:        326
cpu0_DTLB PREFETCH  ACCESS:          0  HIT:          0  MISS:          0
cpu0_DTLB WRITEBACK ACCESS:          0  HIT:          0  MISS:          0
cpu0_ITLB TOTAL     ACCESS:    5595683  HIT:    5595673  MISS:         10
cpu0_ITLB LOAD      ACCESS:    5595683  HIT:    5595673  MISS:         10
cpu0_ITLB RFO       ACCESS:          0  HIT:          0  MISS:          0
cpu0_ITLB PREFETCH  ACCESS:          0  HIT:          0  MISS:          0
cpu0_ITLB WRITEBACK ACCESS:          0  HIT:          0  MISS:          0
cpu0_L1I TOTAL     ACCESS:      66316  HIT:      66227  MISS:         89
cpu0_L1I LOAD      ACCESS:      66316  HIT:      66227  MISS:         89
cpu0_L1I RFO       ACCESS:          0  HIT:          0  MISS:          0
cpu0_L1I PREFETCH  ACCESS:          0  HIT:          0  MISS:          0
cpu0_L1I WRITEBACK ACCESS:          0  HIT:          0  MISS:          0
cpu0_STLB TOTAL     ACCESS:      26055  HIT:       6812  MISS:      19243
cpu0_STLB LOAD      ACCESS:      25729  HIT:       6719  MISS:      19010
cpu0_STLB RFO       ACCESS:        326  HIT:         93  MISS:        233
cpu0_STLB PREFETCH  ACCESS:          0  HIT:          0  MISS:          0
cpu0_STLB WRITEBACK ACCESS:          0  HIT:          0  MISS:          0
cpu0_L1D TOTAL     ACCESS:   11831972  HIT:   10865231  MISS:     966741
cpu0_L1D LOAD      ACCESS:    6822498  HIT:    5860852  MISS:     961646
cpu0_L1D RFO       ACCESS:    4990441  HIT:    4987969  MISS:       2472
cpu0_L1D PREFETCH  ACCESS:          0  HIT:          0  MISS:          0
cpu0_L1D WRITEBACK ACCESS:          0  HIT:          0  MISS:          0
cpu0_L2C TOTAL     ACCESS:     979526  HIT:     411022  MISS:     568504
cpu0_L2C LOAD      ACCESS:     961734  HIT:     396236  MISS:     565498
cpu0_L2C RFO       ACCESS:       2472  HIT:        116  MISS:       2356
cpu0_L2C PREFETCH  ACCESS:          0  HIT:          0  MISS:          0
cpu0_L2C WRITEBACK ACCESS:      12697  HIT:      12657  MISS:         40
LLC TOTAL     ACCESS:     576791  HIT:      19918  MISS:     556873
LLC LOAD      ACCESS:     565498  HIT:      12391  MISS:     553107
LLC RFO       ACCESS:       2356  HIT:         34  MISS:       2322
LLC PREFETCH  ACCESS:          0  HIT:          0  MISS:          0
LLC WRITEBACK ACCESS:       8327  HIT:       7216  MISS:       1111
Heartbeat CPU 0 instructions: 104000000 cycles: 125776300 heartbeat IPC: 0.56932 cumulative IPC: 0.476712 (Simulation time: 1 hr 11 min 7 sec) 

Region of Interest Statistics
cpu0_DTLB TOTAL     ACCESS:   10004739  HIT:    9978224  MISS:      26515
cpu0_DTLB LOAD      ACCESS:    8020837  HIT:    7994648  MISS:      26189
cpu0_DTLB RFO       ACCESS:    1983902  HIT:    1983576  MISS:        326
cpu0_DTLB PREFETCH  ACCESS:          0  HIT:          0  MISS:          0
cpu0_DTLB WRITEBACK ACCESS:          0  HIT:          0  MISS:          0
cpu0_ITLB TOTAL     ACCESS:    5820954  HIT:    5820944  MISS:         10
cpu0_ITLB LOAD      ACCESS:    5820954  HIT:    5820944  MISS:         10
cpu0_ITLB RFO       ACCESS:          0  HIT:          0  MISS:          0
cpu0_ITLB PREFETCH  ACCESS:          0  HIT:          0  MISS:          0
cpu0_ITLB WRITEBACK ACCESS:          0  HIT:          0  MISS:          0
cpu0_L1I TOTAL     ACCESS:      66316  HIT:      66227  MISS:         89
cpu0_L1I LOAD      ACCESS:      66316  HIT:      66227  MISS:         89
cpu0_L1I RFO       ACCESS:          0  HIT:          0  MISS:          0
cpu0_L1I PREFETCH  ACCESS:          0  HIT:          0  MISS:          0
cpu0_L1I WRITEBACK ACCESS:          0  HIT:          0  MISS:          0
cpu0_STLB TOTAL     ACCESS:      26525  HIT:       6932  MISS:      19593
cpu0_STLB LOAD      ACCESS:      26199  HIT:       6839  MISS:      19360
cpu0_STLB RFO       ACCESS:        326  HIT:         93  MISS:        233
cpu0_STLB PREFETCH  ACCESS:          0  HIT:          0  MISS:          0
cpu0_STLB WRITEBACK ACCESS:          0  HIT:          0  MISS:          0
cpu0_L1D TOTAL     ACCESS:   12296042  HIT:   11296989  MISS:     999053
cpu0_L1D LOAD      ACCESS:    7085876  HIT:    6091992  MISS:     993884
cpu0_L1D RFO       ACCESS:    5190789  HIT:    5188317  MISS:       2472
cpu0_L1D PREFETCH  ACCESS:          0  HIT:          0  MISS:          0
cpu0_L1D WRITEBACK ACCESS:          0  HIT:          0  MISS:          0
cpu0_L2C TOTAL     ACCESS:    1012024  HIT:     427457  MISS:     584567
cpu0_L2C LOAD      ACCESS:     993972  HIT:     412425  MISS:     581547
cpu0_L2C RFO       ACCESS:       2472  HIT:        116  MISS:       2356
cpu0_L2C PREFETCH  ACCESS:          0  HIT:          0  MISS:          0
cpu0_L2C WRITEBACK ACCESS:      12883  HIT:      12843  MISS:         40
LLC TOTAL     ACCESS:     592895  HIT:      20145  MISS:     572750
LLC LOAD      ACCESS:     581547  HIT:      12570  MISS:     568977
LLC RFO       ACCESS:       2356  HIT:         34  MISS:       2322
LLC PREFETCH  ACCESS:          0  HIT:          0  MISS:          0
LLC WRITEBACK ACCESS:       8368  HIT:       7257  MISS:       1111
Heartbeat CPU 0 instructions: 106000000 cycles: 129313841 heartbeat IPC: 0.565364 cumulative IPC: 0.479397 (Simulation time: 1 hr 12 min 31 sec) 

Region of Interest Statistics
cpu0_DTLB TOTAL     ACCESS:   10382249  HIT:   10355189  MISS:      27060
cpu0_DTLB LOAD      ACCESS:    8322943  HIT:    8296209  MISS:      26734
cpu0_DTLB RFO       ACCESS:    2059306  HIT:    2058980  MISS:        326
cpu0_DTLB PREFETCH  ACCESS:          0  HIT:          0  MISS:          0
cpu0_DTLB WRITEBACK ACCESS:          0  HIT:          0  MISS:          0
cpu0_ITLB TOTAL     ACCESS:    6046419  HIT:    6046409  MISS:         10
cpu0_ITLB LOAD      ACCESS:    6046419  HIT:    6046409  MISS:         10
cpu0_ITLB RFO       ACCESS:          0  HIT:          0  MISS:          0
cpu0_ITLB PREFETCH  ACCESS:          0  HIT:          0  MISS:          0
cpu0_ITLB WRITEBACK ACCESS:          0  HIT:          0  MISS:          0
cpu0_L1I TOTAL     ACCESS:      66316  HIT:      66227  MISS:         89
cpu0_L1I LOAD      ACCESS:      66316  HIT:      66227  MISS:         89
cpu0_L1I RFO       ACCESS:          0  HIT:          0  MISS:          0
cpu0_L1I PREFETCH  ACCESS:          0  HIT:          0  MISS:          0
cpu0_L1I WRITEBACK ACCESS:          0  HIT:          0  MISS:          0
cpu0_STLB TOTAL     ACCESS:      27070  HIT:       7082  MISS:      19988
cpu0_STLB LOAD      ACCESS:      26744  HIT:       6989  MISS:      19755
cpu0_STLB RFO       ACCESS:        326  HIT:         93  MISS:        233
cpu0_STLB PREFETCH  ACCESS:          0  HIT:          0  MISS:          0
cpu0_STLB WRITEBACK ACCESS:          0  HIT:          0  MISS:          0
cpu0_L1D TOTAL     ACCESS:   12760769  HIT:   11729377  MISS:    1031392
cpu0_L1D LOAD      ACCESS:    7349791  HIT:    6323652  MISS:    1026139
cpu0_L1D RFO       ACCESS:    5391225  HIT:    5388753  MISS:       2472
cpu0_L1D PREFETCH  ACCESS:          0  HIT:          0  MISS:          0
cpu0_L1D WRITEBACK ACCESS:          0  HIT:          0  MISS:          0
cpu0_L2C TOTAL     ACCESS:    1044562  HIT:     443875  MISS:     600687
cpu0_L2C LOAD      ACCESS:    1026227  HIT:     428572  MISS:     597655
cpu0_L2C RFO       ACCESS:       2472  HIT:        116  MISS:       2356
cpu0_L2C PREFETCH  ACCESS:          0  HIT:          0  MISS:          0
cpu0_L2C WRITEBACK ACCESS:      13082  HIT:      13042  MISS:         40
LLC TOTAL     ACCESS:     609053  HIT:      20397  MISS:     588656
LLC LOAD      ACCESS:     597655  HIT:      12777  MISS:     584878
LLC RFO       ACCESS:       2356  HIT:         34  MISS:       2322
LLC PREFETCH  ACCESS:          0  HIT:          0  MISS:          0
LLC WRITEBACK ACCESS:       8406  HIT:       7295  MISS:       1111
Heartbeat CPU 0 instructions: 108000001 cycles: 132859344 heartbeat IPC: 0.564095 cumulative IPC: 0.481892 (Simulation time: 1 hr 13 min 58 sec) 

Region of Interest Statistics
cpu0_DTLB TOTAL     ACCESS:   10759161  HIT:   10731713  MISS:      27448
cpu0_DTLB LOAD      ACCESS:    8624604  HIT:    8597482  MISS:      27122
cpu0_DTLB RFO       ACCESS:    2134557  HIT:    2134231  MISS:        326
cpu0_DTLB PREFETCH  ACCESS:          0  HIT:          0  MISS:          0
cpu0_DTLB WRITEBACK ACCESS:          0  HIT:          0  MISS:          0
cpu0_ITLB TOTAL     ACCESS:    6271623  HIT:    6271613  MISS:         10
cpu0_ITLB LOAD      ACCESS:    6271623  HIT:    6271613  MISS:         10
cpu0_ITLB RFO       ACCESS:          0  HIT:          0  MISS:          0
cpu0_ITLB PREFETCH  ACCESS:          0  HIT:          0  MISS:          0
cpu0_ITLB WRITEBACK ACCESS:          0  HIT:          0  MISS:          0
cpu0_L1I TOTAL     ACCESS:      66316  HIT:      66227  MISS:         89
cpu0_L1I LOAD      ACCESS:      66316  HIT:      66227  MISS:         89
cpu0_L1I RFO       ACCESS:          0  HIT:          0  MISS:          0
cpu0_L1I PREFETCH  ACCESS:          0  HIT:          0  MISS:          0
cpu0_L1I WRITEBACK ACCESS:          0  HIT:          0  MISS:          0
cpu0_STLB TOTAL     ACCESS:      27458  HIT:       7161  MISS:      20297
cpu0_STLB LOAD      ACCESS:      27132  HIT:       7068  MISS:      20064
cpu0_STLB RFO       ACCESS:        326  HIT:         93  MISS:        233
cpu0_STLB PREFETCH  ACCESS:          0  HIT:          0  MISS:          0
cpu0_STLB WRITEBACK ACCESS:          0  HIT:          0  MISS:          0
cpu0_L1D TOTAL     ACCESS:   13224890  HIT:   12161243  MISS:    1063647
cpu0_L1D LOAD      ACCESS:    7613310  HIT:    6554960  MISS:    1058350
cpu0_L1D RFO       ACCESS:    5591521  HIT:    5589049  MISS:       2472
[...]
cpu0_L1D RFO       ACCESS:  149445229  HIT:  149425393  MISS:      19836
cpu0_L1D PREFETCH  ACCESS:          0  HIT:          0  MISS:          0
cpu0_L1D WRITEBACK ACCESS:          0  HIT:          0  MISS:          0
cpu0_L2C TOTAL     ACCESS:   25596131  HIT:   12893190  MISS:   12702941
cpu0_L2C LOAD      ACCESS:   25260001  HIT:   12585974  MISS:   12674027
cpu0_L2C RFO       ACCESS:      19836  HIT:       3080  MISS:      16756
cpu0_L2C PREFETCH  ACCESS:          0  HIT:          0  MISS:          0
cpu0_L2C WRITEBACK ACCESS:     254662  HIT:     254551  MISS:        111
LLC TOTAL     ACCESS:   12830505  HIT:     211957  MISS:   12618548
LLC LOAD      ACCESS:   12674027  HIT:     104962  MISS:   12569065
LLC RFO       ACCESS:      16756  HIT:        346  MISS:      16410
LLC PREFETCH  ACCESS:          0  HIT:          0  MISS:          0
LLC WRITEBACK ACCESS:     127675  HIT:     101075  MISS:      26600
Finished CPU 0 instructions: 1500000003 cycles: 2740069005 cumulative IPC: 0.547431 (Simulation time: 16 hr 17 min 11 sec) 

ChampSim completed all CPUs

Region of Interest Statistics

CPU 0 cumulative IPC: 0.547431 instructions: 1500000003 cycles: 2740069005
cpu0_DTLB TOTAL     ACCESS:  281965954  HIT:  281035118  MISS:     930836
cpu0_DTLB LOAD      ACCESS:  225424244  HIT:  224496540  MISS:     927704
cpu0_DTLB RFO       ACCESS:   56541710  HIT:   56538578  MISS:       3132
cpu0_DTLB PREFETCH  ACCESS:          0  HIT:          0  MISS:          0
cpu0_DTLB WRITEBACK ACCESS:          0  HIT:          0  MISS:          0
cpu0_DTLB TRANSLATION ACCESS:          0  HIT:          0  MISS:          0
cpu0_DTLB PREFETCH  REQUESTED:          0  ISSUED:          0  USEFUL:          0  USELESS:          0
cpu0_DTLB AVERAGE MISS LATENCY: 15.6354 cycles
cpu0_ITLB TOTAL     ACCESS:  167979057  HIT:  167979047  MISS:         10
cpu0_ITLB LOAD      ACCESS:  167979057  HIT:  167979047  MISS:         10
cpu0_ITLB RFO       ACCESS:          0  HIT:          0  MISS:          0
cpu0_ITLB PREFETCH  ACCESS:          0  HIT:          0  MISS:          0
cpu0_ITLB WRITEBACK ACCESS:          0  HIT:          0  MISS:          0
cpu0_ITLB TRANSLATION ACCESS:          0  HIT:          0  MISS:          0
cpu0_ITLB PREFETCH  REQUESTED:          0  ISSUED:          0  USEFUL:          0  USELESS:          0
cpu0_ITLB AVERAGE MISS LATENCY: 260.2 cycles
cpu0_L1I TOTAL     ACCESS:     502036  HIT:     501946  MISS:         90
cpu0_L1I LOAD      ACCESS:     502036  HIT:     501946  MISS:         90
cpu0_L1I RFO       ACCESS:          0  HIT:          0  MISS:          0
cpu0_L1I PREFETCH  ACCESS:          0  HIT:          0  MISS:          0
cpu0_L1I WRITEBACK ACCESS:          0  HIT:          0  MISS:          0
cpu0_L1I TRANSLATION ACCESS:          0  HIT:          0  MISS:          0
cpu0_L1I PREFETCH  REQUESTED:          0  ISSUED:          0  USEFUL:          0  USELESS:          0
cpu0_L1I AVERAGE MISS LATENCY: 188.767 cycles
cpu0_STLB TOTAL     ACCESS:     930846  HIT:     583910  MISS:     346936
cpu0_STLB LOAD      ACCESS:     927714  HIT:     582271  MISS:     345443
cpu0_STLB RFO       ACCESS:       3132  HIT:       1639  MISS:       1493
cpu0_STLB PREFETCH  ACCESS:          0  HIT:          0  MISS:          0
cpu0_STLB WRITEBACK ACCESS:          0  HIT:          0  MISS:          0
cpu0_STLB TRANSLATION ACCESS:          0  HIT:          0  MISS:          0
cpu0_STLB PREFETCH  REQUESTED:          0  ISSUED:          0  USEFUL:          0  USELESS:          0
cpu0_STLB AVERAGE MISS LATENCY: 17.8052 cycles
cpu0_L1D TOTAL     ACCESS:  347344327  HIT:  322002947  MISS:   25341380
cpu0_L1D LOAD      ACCESS:  197558062  HIT:  172298150  MISS:   25259912
cpu0_L1D RFO       ACCESS:  149445229  HIT:  149425393  MISS:      19836
cpu0_L1D PREFETCH  ACCESS:          0  HIT:          0  MISS:          0
cpu0_L1D WRITEBACK ACCESS:          0  HIT:          0  MISS:          0
cpu0_L1D TRANSLATION ACCESS:     341036  HIT:     279404  MISS:      61632
cpu0_L1D PREFETCH  REQUESTED:          0  ISSUED:          0  USEFUL:          0  USELESS:          0
cpu0_L1D AVERAGE MISS LATENCY: 64.2632 cycles
cpu0_L2C TOTAL     ACCESS:   25596131  HIT:   12893190  MISS:   12702941
cpu0_L2C LOAD      ACCESS:   25260001  HIT:   12585974  MISS:   12674027
cpu0_L2C RFO       ACCESS:      19836  HIT:       3080  MISS:      16756
cpu0_L2C PREFETCH  ACCESS:          0  HIT:          0  MISS:          0
cpu0_L2C WRITEBACK ACCESS:     254662  HIT:     254551  MISS:        111
cpu0_L2C TRANSLATION ACCESS:      61632  HIT:      49585  MISS:      12047
cpu0_L2C PREFETCH  REQUESTED:          0  ISSUED:          0  USEFUL:          0  USELESS:          0
cpu0_L2C AVERAGE MISS LATENCY: 106.245 cycles
LLC TOTAL     ACCESS:   12830505  HIT:     211957  MISS:   12618548
LLC LOAD      ACCESS:   12674027  HIT:     104962  MISS:   12569065
LLC RFO       ACCESS:      16756  HIT:        346  MISS:      16410
LLC PREFETCH  ACCESS:          0  HIT:          0  MISS:          0
LLC WRITEBACK ACCESS:     127675  HIT:     101075  MISS:      26600
LLC TRANSLATION ACCESS:      12047  HIT:       5574  MISS:       6473
LLC PREFETCH  REQUESTED:          0  ISSUED:          0  USEFUL:          0  USELESS:          0
LLC AVERAGE MISS LATENCY: 85.8154 cycles
~~~~~~~~~~Reuse Distance Profiler output~~~~~~~~~~
0	150502048	36335840
1	36330224	35332480
2	4487888	4347936
3	15062416	14912544
4	6872992	6724192
5	3342192	3262960
6	8135584	8020960
7	13495296	4271632
8	12092992	4204928
9	4805648	3773104
10	551712	437648
11	5617936	5376224
12	9014592	8661632
13	5750096	5308192
14	17271456	8034176
15	16386528	8436864
16	7793312	6664144
17	5205104	4868000
18	5497440	5241008
19	1124560	1042832
20	465888	419248
21	115040	78576
22	130336	105328
23	100880	69952
24	115008	101504
25	88320	78608
26	68912	63584
27	58720	54624
28	30064	26672
29	31984	30160
30	32656	29616
31	56144	51872
32	60224	54912
33	78752	76176
34	78128	76128
35	93824	84064
36	111584	89808
37	187232	162992
38	126240	106816
39	63248	54272
40	43072	37840
41	39984	35152
42	38416	31568
43	46928	42464
44	34512	28608
45	32864	29760
46	19424	17744
47	14832	13616
48	13312	12336
49	7984	7536
50	9104	8400
51	10144	9696
52	13200	12368
53	10512	9984
54	10800	10400
55	8752	8304
56	7840	7520
57	5472	4960
58	5472	4208
59	2800	2144
60	2544	1952
61	2336	1952
62	3056	2704
63	2736	2256
64	5888	4320
66	3904	3120
68	7024	6320
70	7136	6416
72	6112	5424
74	7904	6192
76	7536	3872
78	7776	6112
80	9072	8208
82	6368	5152
84	5008	4352
86	5440	4704
88	6864	6448
90	7216	6736
92	3856	3472
94	2928	2704
96	2736	2496
98	2352	2144
100	1296	1024
102	1744	1504
104	1808	1696
106	2080	1920
108	2544	2464
110	4176	3968
112	4432	4192
114	5888	4704
116	6096	3808
118	5616	4400
120	3408	3136
122	3424	3136
124	5536	5392
126	6800	6672
128	14480	14176
132	11360	11200
136	11728	11456
140	7968	7744
144	18784	18496
148	5888	5808
152	2960	2160
156	3920	3440
160	3552	3232
164	2976	2880
168	3040	2928
172	1984	1744
176	1616	1344
180	3424	3184
184	4864	4736
188	8160	7072
192	8112	7040
196	6448	5776
200	8976	8624
204	4160	4064
208	1568	1504
212	1632	1552
216	1856	1744
220	2016	1872
224	3392	3312
228	2400	2112
232	2752	2528
236	5472	5296
240	9232	9056
244	11136	11008
248	10528	10464
252	9696	9648
256	24112	23936
264	4384	4016
272	12560	12320
280	25520	25424
288	21968	21920
296	14416	14272
304	5088	4784
312	12336	12064
320	12000	11920
328	12096	12048
336	2576	2352
344	2416	2128
352	1952	1744
360	1936	1872
368	3120	3088
376	3344	3232
384	2336	2112
392	1888	1680
400	2912	2768
408	2832	2752
416	2640	2448
424	2560	2432
432	1168	1104
440	1472	1440
448	2688	2672
456	3376	3168
464	7552	7504
472	3488	3376
480	9232	9168
488	10112	10000
496	10624	10496
504	4720	4624
512	18064	17936
528	17072	16784
544	7824	7584
560	5664	5568
576	7152	6576
592	9904	9680
608	25552	25440
624	16480	16352
640	4768	4448
656	11248	11040
672	10880	10816
688	20096	19920
704	11888	11632
720	5056	4944
736	6416	6352
752	4032	4000
768	8704	8640
784	26480	26416
800	5600	5584
816	5024	4896
832	7728	7664
848	21328	21264
864	17856	17856
880	11392	11376
896	8464	8448
912	18560	18480
928	12208	12176
944	5424	5408
960	10720	10688
976	17904	17872
992	18816	18784
1008	6048	6048
1024	7056	7040
1056	8736	8720
1088	9888	9824
1120	6400	6304
1152	7216	7120
1184	6192	6128
1216	5776	5776
1248	5488	5440
1280	26896	26880
1312	11760	11744
1344	3456	3408
1376	2944	2816
1408	4624	4512
1440	10224	10080
1472	6864	6800
1504	62512	62432
1536	7792	7696
1568	12048	12016
1600	9808	9808
1632	21200	21168
1664	37104	37088
1696	4048	4000
1728	2224	2208
1760	4912	4896
1792	13344	13312
1824	19712	19680
1856	1792	1792
1888	3568	3536
1920	368	352
1952	384	384
1984	4208	4176
2016	608	576
2048	2864	2848
2112	6176	6144
2176	3808	3776
2240	2240	2096
2304	464	336
2368	1296	1040
2432	2096	2032
2496	6560	6512
2560	2432	2416
2624	11024	10992
2688	23488	23456
2752	1968	1920
2816	832	816
2880	1520	1456
2944	768	736
3008	1504	1440
3072	3520	3488
3136	2192	2144
3200	464	416
3264	912	880
3328	864	832
3392	208	160
3456	192	176
3520	384	336
3584	432	400
3648	1168	1168
3712	352	320
3776	208	208
3840	624	560
3904	880	624
3968	1728	1616
4032	352	336
4096	352	336
4224	624	560
4352	1200	1120
4480	416	368
4608	1824	1696
4736	496	416
4864	544	544
4992	160	128
5120	112	112
5248	864	832
5376	160	96
5504	1456	1408
5632	688	656
5760	288	256
5888	512	496
6016	416	416
6144	1232	1200
6272	1616	1616
6400	2640	2592
6528	2144	2016
6656	2016	1936
6784	2272	2240
6912	1136	1104
7040	138160	138128
7168	279056	279040
7296	3856	3856
7424	4336	4320
7552	3360	3344
7680	1104	1072
7808	1712	1712
7936	1904	1904
8064	1200	1168
8192	4928	4864
8448	1488	1488
8704	2528	2368
8960	1248	1232
9216	1728	1728
9472	1856	1856
9728	2000	2000
9984	1376	1376
10240	1808	1792
10496	2048	2048
10752	1904	1888
11008	5136	5072
11264	2304	2304
11520	2256	2240
11776	1376	1376
12032	2368	2368
12288	1616	1616
12544	5856	5856
12800	7600	7600
13056	5808	5808
13312	7312	7312
13568	8992	8976
13824	6048	6048
14080	7504	7504
14336	12448	12448
14592	8704	8704
14848	15072	15072
15104	20560	20512
15360	34112	34112
15616	544768	544736
15872	4536240	4536144
16128	5097904	5097472
16384	1042112	1042032
16896	456096	456080
17408	165696	165632
17920	49504	49296
18432	24032	23872
18944	48016	47952
19456	20752	20704
19968	22496	22496
20480	30288	30272
20992	1904	1904
21504	2304	2304
22016	288	272
22528	2000	2000
23040	1808	1808
23552	368	368
24064	272	272
24576	1744	1744
25088	640	640
25600	1456	1440
26112	256	240
26624	96	80
27136	336	336
27648	160	160
28160	272	256
28672	336	336
29184	192	192
29696	224	224
30208	1008	1008
30720	688	688
31232	4592	4592
31744	13408	13376
32256	20176	20176
32768	6064	6064
33792	1584	1568
34816	688	688
35840	800	800
36864	928	928
37888	1392	1376
38912	2768	2768
39936	2688	2688
40960	1072	1072
41984	464	464
43008	944	944
44032	784	784
45056	848	848
46080	960	960
47104	1584	1584
48128	4432	4432
49152	1456	1456
50176	1184	1184
51200	1216	1216
52224	1184	1184
53248	560	560
54272	1120	1120
55296	4560	4560
56320	3504	3504
57344	4064	4064
58368	3472	3472
59392	432	432
60416	192	192
61440	96	96
62464	496	496
63488	1056	1056
64512	2384	2384
65536	2000	2000
67584	720	720
69632	784	784
71680	352	352
73728	864	848
75776	112	112
77824	528	528
79872	1408	1408
81920	1056	1056
83968	784	784
86016	448	448
88064	464	464
90112	368	368
92160	192	192
94208	672	672
96256	1200	1200
98304	112	112
100352	64	64
102400	128	112
104448	48	48
106496	64	48
108544	80	80
110592	176	176
112640	448	448
114688	320	320
116736	400	384
118784	288	288
120832	576	576
122880	544	544
124928	1328	1296
126976	512	512
129024	1152	1152
131072	912	848
135168	608	608
139264	1040	1040
143360	832	832
147456	832	832
151552	272	272
155648	1392	1392
159744	464	464
163840	320	320
167936	352	352
172032	256	256
176128	800	800
180224	512	512
184320	416	416
188416	352	352
192512	496	496
196608	192	192
200704	112	112
204800	144	144
208896	432	432
212992	208	208
217088	528	528
221184	448	448
225280	768	768
229376	496	496
233472	352	352
237568	1104	1104
241664	256	256
245760	272	272
249856	176	176
253952	208	208
258048	448	448
262144	544	544
270336	464	464
278528	880	880
286720	624	608
294912	352	336
303104	608	608
311296	272	272
319488	416	416
327680	464	464
335872	304	304
344064	560	560
352256	480	480
360448	496	496
368640	368	368
376832	448	448
385024	368	368
393216	480	480
401408	640	640
409600	448	448
417792	848	848
425984	448	448
434176	736	736
442368	688	688
450560	304	304
458752	416	416
466944	320	320
475136	384	384
483328	272	272
491520	1088	1088
499712	128	128
507904	576	576
516096	432	432
524288	2000	2000
540672	2784	2784
557056	1088	1088
573440	1776	1776
589824	2176	2176
606208	1744	1744
622592	1712	1712
638976	1568	1568
655360	1024	1024
671744	1056	1056
688128	1088	1088
704512	1488	1488
720896	1120	1120
737280	1440	1440
753664	1440	1440
770048	1008	1008
786432	928	928
802816	1568	1520
819200	1056	1056
835584	1104	1104
851968	1616	1616
868352	1344	1344
884736	896	896
901120	2272	2272
917504	1200	1200
933888	928	928
950272	1024	1024
966656	1024	1024
983040	1008	992
999424	928	928
1015808	1152	1152
1032192	1664	1664
1048576	2000	2000
1081344	2368	2368
1114112	2848	2848
1146880	1952	1936
1179648	3472	3472
1212416	1616	1616
1245184	2352	2352
1277952	1792	1776
1310720	4832	4816
1343488	2960	2928
1376256	2672	2672
1409024	3056	3040
1441792	2656	2656
1474560	1872	1872
1507328	2128	2128
1540096	2064	2064
1572864	2160	2160
1605632	1952	1936
1638400	3056	3024
1671168	3440	3440
1703936	3936	3936
1736704	2304	2304
1769472	2128	2128
1802240	2112	2112
1835008	1424	1424
1867776	4752	4752
1900544	4944	4944
1933312	4416	4416
1966080	1824	1824
1998848	2752	2752
2031616	3424	3424
2064384	2608	2608
2097152	6272	6272
2162688	4512	4512
2228224	6032	6032
2293760	4592	4592
2359296	7312	7296
2424832	18912	18912
2490368	10896	10896
2555904	8016	8016
2621440	7920	7920
2686976	8160	8160
2752512	10448	10448
2818048	9104	9104
2883584	17072	17072
2949120	24096	24096
3014656	24944	24944
3080192	35200	35200
3145728	25968	25968
3211264	22560	22544
3276800	20816	20816
3342336	22832	22832
3407872	27760	27760
3473408	24320	24320
3538944	24608	24608
3604480	24880	24880
3670016	22608	22608
3735552	21344	21344
3801088	23360	23360
3866624	35376	35376
3932160	33616	33616
3997696	32496	32480
4063232	34592	34592
4128768	23808	23808
4194304	49280	49280
4325376	50608	50608
4456448	52176	52176
4587520	57056	57040
4718592	65312	65296
4849664	68000	68000
4980736	71856	71824
5111808	59392	59376
5242880	46688	46672
5373952	203104	203072
5505024	773904	773872
5636096	1010704	1010704
5767168	241824	241824
5898240	40704	40704
6029312	52448	52432
6160384	214272	214256
6291456	448336	448336
6422528	97696	97696
6553600	1010224	1010208
6684672	1585056	1585056
6815744	2071504	2071488
6946816	1851312	1851312
7077888	298464	298448
7208960	48992	48992
7340032	297264	297264
7471104	23296	23296
7602176	10384	10384
7733248	11392	11392
7864320	3792	3792
7995392	10640	10640
8126464	10560	10560
8257536	1904	1904
8388608	8432	8416
8650752	832	832
8912896	1008	1008
9175040	592	576
9437184	80	64
9699328	2784	2784
9961472	2864	2848
10223616	32	0
10485760	32	16
10747904	48	48
11010048	48	48
11272192	336	320
11534336	112	96
11796480	2752	2752
12058624	51376	51360
12320768	16368	16336
12582912	320	288
12845056	96	96
13107200	464	464
13369344	74960	74944
13631488	63504	63488
13893632	6176	6176
14155776	33648	32912
14417920	1216	1216
14680064	3568	3568
14942208	4528	4528
15204352	3936	3936
15466496	928	928
15728640	48	48
15990784	0	0
16252928	0	0
16515072	16	0
16777216	32	0
17301504	0	0
17825792	12080	12080
18350080	47984	47984
18874368	6768	6768
19398656	21104	21104
19922944	33008	32992
20447232	25152	25152
20971520	29824	29808
21495808	16	16
22020096	144	144
22544384	0	0
23068672	0	0
23592960	496	496
24117248	9824	9824
24641536	28608	28592
25165824	10288	10288
25690112	2576	2576
26214400	7248	7248
26738688	144	144
27262976	21200	21200
27787264	16	16
28311552	1536	1536
28835840	0	0
29360128	0	0
29884416	0	0
30408704	0	0
30932992	0	0
31457280	28848	27968
31981568	67648	67648
32505856	256	256
33030144	672	672
33554432	100976	100976
34603008	23696	23696
35651584	0	0
36700160	24944	24944
37748736	0	0
38797312	23360	23360
39845888	30752	29648
40894464	96	96
41943040	24576	24576
42991616	560	560
44040192	0	0
45088768	0	0
46137344	0	0
47185920	160	160
48234496	0	0
49283072	0	0
50331648	0	0
51380224	0	0
52428800	112	112
53477376	0	0
54525952	20752	20752
55574528	0	0
56623104	0	0
57671680	0	0
58720256	0	0
59768832	32	32
60817408	48	48
61865984	23520	23520
62914560	32	32
63963136	576	576
65011712	0	0
66060288	48	48
67108864	592	592
69206016	0	0
71303168	0	0
73400320	7312	6384
75497472	0	0
77594624	0	0
79691776	0	0
81788928	0	0
83886080	0	0
85983232	96	80
88080384	112	96
90177536	16	0
92274688	0	0
94371840	47504	47504
96468992	0	0
98566144	0	0
100663296	16	16
102760448	0	0
104857600	544	544
106954752	0	0
109051904	0	0
111149056	0	0
113246208	0	0
115343360	0	0
117440512	0	0
119537664	0	0
121634816	0	0
123731968	0	0
125829120	0	0
127926272	48	0
130023424	0	0
132120576	0	0
134217728	16	16
138412032	0	0
142606336	0	0
146800640	672	672
150994944	0	0
155189248	0	0
159383552	6880	5888
163577856	0	0
167772160	0	0
171966464	0	0
176160768	0	0
180355072	0	0
184549376	0	0
188743680	0	0
192937984	0	0
197132288	0	0
201326592	0	0
205520896	0	0
209715200	0	0
213909504	0	0
218103808	0	0
222298112	0	0
226492416	0	0
230686720	0	0
234881024	0	0
239075328	0	0
243269632	0	0
247463936	0	0
251658240	0	0
255852544	0	0
260046848	0	0
264241152	0	0
268435456	0	0
276824064	0	0
285212672	0	0
293601280	0	0
301989888	0	0
310378496	0	0
318767104	0	0
327155712	0	0
335544320	0	0
343932928	0	0
352321536	0	0
360710144	0	0
369098752	0	0
377487360	0	0
385875968	0	0
394264576	0	0
402653184	0	0
411041792	0	0
419430400	0	0
427819008	0	0
436207616	0	0
444596224	0	0
452984832	0	0
461373440	0	0
469762048	0	0
478150656	0	0
486539264	0	0
494927872	0	0
503316480	0	0
511705088	0	0
520093696	0	0
528482304	0	0
536870912	0	0
553648128	0	0
570425344	0	0
587202560	0	0
603979776	0	0
620756992	0	0
637534208	0	0
654311424	0	0
671088640	0	0
687865856	0	0
704643072	0	0
721420288	0	0
738197504	0	0
754974720	0	0
771751936	0	0
788529152	0	0
805306368	0	0
822083584	0	0
838860800	0	0
855638016	0	0
872415232	0	0
889192448	0	0
905969664	0	0
922746880	0	0
939524096	0	0
956301312	0	0
973078528	0	0
989855744	0	0
1006632960	0	0
1023410176	0	0
1040187392	0	0
1056964608	0	0
1073741824	0	0
1107296256	0	0
1140850688	0	0
1174405120	0	0
1207959552	0	0
1241513984	0	0
1275068416	0	0
1308622848	0	0
1342177280	0	0
1375731712	0	0
1409286144	0	0
1442840576	0	0
1476395008	0	0
1509949440	0	0
1543503872	0	0
1577058304	0	0
1610612736	0	0
1644167168	0	0
1677721600	0	0
1711276032	0	0
1744830464	0	0
1778384896	0	0
1811939328	0	0
1845493760	0	0
1879048192	0	0
1912602624	0	0
1946157056	0	0
1979711488	0	0
2013265920	0	0
2046820352	0	0
2080374784	0	0
2113929216	0	0
2147483648	0	0
2214592512	0	0
2281701376	0	0
2348810240	0	0
2415919104	0	0
2483027968	0	0
2550136832	0	0
2617245696	0	0
2684354560	0	0
2751463424	0	0
2818572288	0	0
2885681152	0	0
2952790016	0	0
3019898880	0	0
3087007744	0	0
3154116608	0	0
3221225472	0	0
3288334336	0	0
3355443200	0	0
3422552064	0	0
3489660928	0	0
3556769792	0	0
3623878656	0	0
3690987520	0	0
3758096384	0	0
3825205248	0	0
3892314112	0	0
3959422976	0	0
4026531840	0	0
4093640704	0	0
4160749568	0	0
4227858432	0	0
~~~~~~~~~~Reuse Distance Profiler output end~~~~~~~~~~

Sampler size:29934

DRAM Statistics
 CHANNEL 0
 RQ ROW_BUFFER_HIT:    9643824  ROW_BUFFER_MISS:    2948124
 DBUS AVG_CONGESTED_CYCLE:    3.83006
 WQ ROW_BUFFER_HIT:      41182  ROW_BUFFER_MISS:      83045  FULL:          0


CPU 0 Branch Prediction Accuracy: 94.6434% MPKI: 12.747 Average ROB Occupancy at Mispredict: 58.0675
Branch type MPKI
BRANCH_DIRECT_JUMP: 3e-05
BRANCH_INDIRECT: 0
BRANCH_CONDITIONAL: 12.7469
BRANCH_DIRECT_CALL: 1.8e-05
BRANCH_INDIRECT_CALL: 5.33333e-06
BRANCH_RETURN: 1.8e-05

