
*** ChampSim Multicore Out-of-Order Simulator ***

Warmup Instructions: 50000000
Simulation Instructions: 1500000000
Number of CPUs: 1
Off-chip DRAM Size: 4 GiB Channels: 1 Width: 64-bit Data Rate: 3200 MT/s

VirtualMemory physical capacity: 8588881920 num_ppages: 2096895
VirtualMemory page size: 4096 log2_page_size: 12

CPU 0 runs /s/traces/champsim_traces/603.bwaves_s-1740B.champsimtrace.xz
CPU 0 Bimodal branch predictor
Basic BTB sets: 1024 ways: 8 indirect buffer size: 4096 RAS size: 64
Initializing LRU.
Initializing LRU.
Initializing LRU.
Initializing LRU.
Initializing rdLRU.
Initializing LRU.
Initializing LRU.
Heartbeat CPU 0 instructions: 2000000 cycles: 728580 heartbeat IPC: 2.74507 cumulative IPC: 2.74507 (Simulation time: 0 hr 1 min 39 sec) 
Heartbeat CPU 0 instructions: 4000001 cycles: 1456999 heartbeat IPC: 2.74567 cumulative IPC: 2.74537 (Simulation time: 0 hr 3 min 16 sec) 
Heartbeat CPU 0 instructions: 6000000 cycles: 2185439 heartbeat IPC: 2.74559 cumulative IPC: 2.74544 (Simulation time: 0 hr 4 min 58 sec) 
Heartbeat CPU 0 instructions: 8000003 cycles: 2913857 heartbeat IPC: 2.74568 cumulative IPC: 2.7455 (Simulation time: 0 hr 6 min 40 sec) 
Heartbeat CPU 0 instructions: 10000001 cycles: 3642288 heartbeat IPC: 2.74562 cumulative IPC: 2.74553 (Simulation time: 0 hr 8 min 17 sec) 
Heartbeat CPU 0 instructions: 12000000 cycles: 4370704 heartbeat IPC: 2.74568 cumulative IPC: 2.74555 (Simulation time: 0 hr 9 min 53 sec) 
Heartbeat CPU 0 instructions: 14000001 cycles: 5099144 heartbeat IPC: 2.74559 cumulative IPC: 2.74556 (Simulation time: 0 hr 11 min 37 sec) 
Heartbeat CPU 0 instructions: 16000001 cycles: 5827567 heartbeat IPC: 2.74566 cumulative IPC: 2.74557 (Simulation time: 0 hr 13 min 13 sec) 
Heartbeat CPU 0 instructions: 18000000 cycles: 6556001 heartbeat IPC: 2.74561 cumulative IPC: 2.74558 (Simulation time: 0 hr 14 min 49 sec) 
Heartbeat CPU 0 instructions: 20000001 cycles: 7284434 heartbeat IPC: 2.74562 cumulative IPC: 2.74558 (Simulation time: 0 hr 16 min 33 sec) 
Heartbeat CPU 0 instructions: 22000002 cycles: 8012842 heartbeat IPC: 2.74572 cumulative IPC: 2.74559 (Simulation time: 0 hr 18 min 12 sec) 
Heartbeat CPU 0 instructions: 24000001 cycles: 8741279 heartbeat IPC: 2.7456 cumulative IPC: 2.74559 (Simulation time: 0 hr 19 min 49 sec) 
Heartbeat CPU 0 instructions: 26000000 cycles: 9469705 heartbeat IPC: 2.74564 cumulative IPC: 2.7456 (Simulation time: 0 hr 21 min 33 sec) 
Heartbeat CPU 0 instructions: 28000000 cycles: 10198145 heartbeat IPC: 2.74559 cumulative IPC: 2.7456 (Simulation time: 0 hr 23 min 15 sec) 
Heartbeat CPU 0 instructions: 30000000 cycles: 10926563 heartbeat IPC: 2.74568 cumulative IPC: 2.7456 (Simulation time: 0 hr 24 min 50 sec) 
Heartbeat CPU 0 instructions: 32000001 cycles: 11654997 heartbeat IPC: 2.74562 cumulative IPC: 2.7456 (Simulation time: 0 hr 26 min 26 sec) 
Heartbeat CPU 0 instructions: 34000000 cycles: 12383416 heartbeat IPC: 2.74567 cumulative IPC: 2.74561 (Simulation time: 0 hr 28 min 6 sec) 
Heartbeat CPU 0 instructions: 36000000 cycles: 13111842 heartbeat IPC: 2.74565 cumulative IPC: 2.74561 (Simulation time: 0 hr 29 min 46 sec) 
Heartbeat CPU 0 instructions: 38000002 cycles: 13840281 heartbeat IPC: 2.7456 cumulative IPC: 2.74561 (Simulation time: 0 hr 31 min 25 sec) 
Heartbeat CPU 0 instructions: 40000000 cycles: 14568701 heartbeat IPC: 2.74567 cumulative IPC: 2.74561 (Simulation time: 0 hr 33 min 4 sec) 
Heartbeat CPU 0 instructions: 42000002 cycles: 15297129 heartbeat IPC: 2.74564 cumulative IPC: 2.74561 (Simulation time: 0 hr 34 min 46 sec) 
Heartbeat CPU 0 instructions: 44000003 cycles: 16025558 heartbeat IPC: 2.74564 cumulative IPC: 2.74561 (Simulation time: 0 hr 36 min 25 sec) 
Heartbeat CPU 0 instructions: 46000002 cycles: 16753989 heartbeat IPC: 2.74563 cumulative IPC: 2.74562 (Simulation time: 0 hr 38 min 5 sec) 
Heartbeat CPU 0 instructions: 48000001 cycles: 17482406 heartbeat IPC: 2.74568 cumulative IPC: 2.74562 (Simulation time: 0 hr 39 min 45 sec) 
Heartbeat CPU 0 instructions: 50000000 cycles: 18210847 heartbeat IPC: 2.74559 cumulative IPC: 2.74562 (Simulation time: 0 hr 41 min 19 sec) 

Warmup complete CPU 0 instructions: 50000005 cycles: 18210848 (Simulation time: 0 hr 41 min 19 sec) 

Heartbeat CPU 0 instructions: 52000000 cycles: 23881833 heartbeat IPC: 0.352672 cumulative IPC: 0.352672 (Simulation time: 0 hr 47 min 1 sec) 

Region of Interest Statistics
cpu0_DTLB TOTAL     ACCESS:     628592  HIT:     626279  MISS:       2313
cpu0_DTLB LOAD      ACCESS:     584158  HIT:     582227  MISS:       1931
cpu0_DTLB RFO       ACCESS:      44434  HIT:      44052  MISS:        382
cpu0_DTLB PREFETCH  ACCESS:          0  HIT:          0  MISS:          0
cpu0_DTLB WRITEBACK ACCESS:          0  HIT:          0  MISS:          0
cpu0_ITLB TOTAL     ACCESS:     176235  HIT:     176235  MISS:          0
cpu0_ITLB LOAD      ACCESS:     176235  HIT:     176235  MISS:          0
cpu0_ITLB RFO       ACCESS:          0  HIT:          0  MISS:          0
cpu0_ITLB PREFETCH  ACCESS:          0  HIT:          0  MISS:          0
cpu0_ITLB WRITEBACK ACCESS:          0  HIT:          0  MISS:          0
cpu0_STLB TOTAL     ACCESS:       2313  HIT:       1720  MISS:        593
cpu0_STLB LOAD      ACCESS:       1931  HIT:       1353  MISS:        578
cpu0_STLB RFO       ACCESS:        382  HIT:        367  MISS:         15
cpu0_STLB PREFETCH  ACCESS:          0  HIT:          0  MISS:          0
cpu0_STLB WRITEBACK ACCESS:          0  HIT:          0  MISS:          0
cpu0_L1D TOTAL     ACCESS:     632142  HIT:     592121  MISS:      40021
cpu0_L1D LOAD      ACCESS:     520441  HIT:     481435  MISS:      39006
cpu0_L1D RFO       ACCESS:     111108  HIT:     110134  MISS:        974
cpu0_L1D PREFETCH  ACCESS:          0  HIT:          0  MISS:          0
cpu0_L1D WRITEBACK ACCESS:          0  HIT:          0  MISS:          0
cpu0_L2C TOTAL     ACCESS:      41007  HIT:       3001  MISS:      38006
cpu0_L2C LOAD      ACCESS:      39006  HIT:       1976  MISS:      37030
cpu0_L2C RFO       ACCESS:        974  HIT:          0  MISS:        974
cpu0_L2C PREFETCH  ACCESS:          0  HIT:          0  MISS:          0
cpu0_L2C WRITEBACK ACCESS:        986  HIT:        986  MISS:          0
LLC TOTAL     ACCESS:      39009  HIT:       1005  MISS:      38004
LLC LOAD      ACCESS:      37030  HIT:          0  MISS:      37030
LLC RFO       ACCESS:        974  HIT:          0  MISS:        974
LLC PREFETCH  ACCESS:          0  HIT:          0  MISS:          0
LLC WRITEBACK ACCESS:       1003  HIT:       1003  MISS:          0
Heartbeat CPU 0 instructions: 54000003 cycles: 29554642 heartbeat IPC: 0.35256 cumulative IPC: 0.352616 (Simulation time: 0 hr 52 min 35 sec) 

Region of Interest Statistics
cpu0_DTLB TOTAL     ACCESS:    1257263  HIT:    1252567  MISS:       4696
cpu0_DTLB LOAD      ACCESS:    1168401  HIT:    1164501  MISS:       3900
cpu0_DTLB RFO       ACCESS:      88862  HIT:      88066  MISS:        796
cpu0_DTLB PREFETCH  ACCESS:          0  HIT:          0  MISS:          0
cpu0_DTLB WRITEBACK ACCESS:          0  HIT:          0  MISS:          0
cpu0_ITLB TOTAL     ACCESS:     352516  HIT:     352516  MISS:          0
cpu0_ITLB LOAD      ACCESS:     352516  HIT:     352516  MISS:          0
cpu0_ITLB RFO       ACCESS:          0  HIT:          0  MISS:          0
cpu0_ITLB PREFETCH  ACCESS:          0  HIT:          0  MISS:          0
cpu0_ITLB WRITEBACK ACCESS:          0  HIT:          0  MISS:          0
cpu0_STLB TOTAL     ACCESS:       4696  HIT:       3509  MISS:       1187
cpu0_STLB LOAD      ACCESS:       3900  HIT:       2744  MISS:       1156
cpu0_STLB RFO       ACCESS:        796  HIT:        765  MISS:         31
cpu0_STLB PREFETCH  ACCESS:          0  HIT:          0  MISS:          0
cpu0_STLB WRITEBACK ACCESS:          0  HIT:          0  MISS:          0
cpu0_L1D TOTAL     ACCESS:    1264319  HIT:    1184258  MISS:      80061
cpu0_L1D LOAD      ACCESS:    1040871  HIT:     962839  MISS:      78032
cpu0_L1D RFO       ACCESS:     222261  HIT:     220312  MISS:       1949
cpu0_L1D PREFETCH  ACCESS:          0  HIT:          0  MISS:          0
cpu0_L1D WRITEBACK ACCESS:          0  HIT:          0  MISS:          0
cpu0_L2C TOTAL     ACCESS:      82038  HIT:       6005  MISS:      76033
cpu0_L2C LOAD      ACCESS:      78032  HIT:       3952  MISS:      74080
cpu0_L2C RFO       ACCESS:       1949  HIT:          0  MISS:       1949
cpu0_L2C PREFETCH  ACCESS:          0  HIT:          0  MISS:          0
cpu0_L2C WRITEBACK ACCESS:       1977  HIT:       1977  MISS:          0
LLC TOTAL     ACCESS:      77907  HIT:       1882  MISS:      76025
LLC LOAD      ACCESS:      74080  HIT:          4  MISS:      74076
LLC RFO       ACCESS:       1949  HIT:          0  MISS:       1949
LLC PREFETCH  ACCESS:          0  HIT:          0  MISS:          0
LLC WRITEBACK ACCESS:       1874  HIT:       1874  MISS:          0
Heartbeat CPU 0 instructions: 56000003 cycles: 35225368 heartbeat IPC: 0.352689 cumulative IPC: 0.35264 (Simulation time: 0 hr 57 min 53 sec) 

Region of Interest Statistics
cpu0_DTLB TOTAL     ACCESS:    1885917  HIT:    1878838  MISS:       7079
cpu0_DTLB LOAD      ACCESS:    1752627  HIT:    1746749  MISS:       5878
cpu0_DTLB RFO       ACCESS:     133290  HIT:     132089  MISS:       1201
cpu0_DTLB PREFETCH  ACCESS:          0  HIT:          0  MISS:          0
cpu0_DTLB WRITEBACK ACCESS:          0  HIT:          0  MISS:          0
cpu0_ITLB TOTAL     ACCESS:     528788  HIT:     528788  MISS:          0
cpu0_ITLB LOAD      ACCESS:     528788  HIT:     528788  MISS:          0
cpu0_ITLB RFO       ACCESS:          0  HIT:          0  MISS:          0
cpu0_ITLB PREFETCH  ACCESS:          0  HIT:          0  MISS:          0
cpu0_ITLB WRITEBACK ACCESS:          0  HIT:          0  MISS:          0
cpu0_STLB TOTAL     ACCESS:       7079  HIT:       5299  MISS:       1780
cpu0_STLB LOAD      ACCESS:       5878  HIT:       4144  MISS:       1734
cpu0_STLB RFO       ACCESS:       1201  HIT:       1155  MISS:         46
cpu0_STLB PREFETCH  ACCESS:          0  HIT:          0  MISS:          0
cpu0_STLB WRITEBACK ACCESS:          0  HIT:          0  MISS:          0
cpu0_L1D TOTAL     ACCESS:    1896429  HIT:    1776353  MISS:     120076
cpu0_L1D LOAD      ACCESS:    1561278  HIT:    1444243  MISS:     117035
cpu0_L1D RFO       ACCESS:     333371  HIT:     330448  MISS:       2923
cpu0_L1D PREFETCH  ACCESS:          0  HIT:          0  MISS:          0
cpu0_L1D WRITEBACK ACCESS:          0  HIT:          0  MISS:          0
cpu0_L2C TOTAL     ACCESS:     123043  HIT:       8985  MISS:     114058
cpu0_L2C LOAD      ACCESS:     117035  HIT:       5906  MISS:     111129
cpu0_L2C RFO       ACCESS:       2923  HIT:          0  MISS:       2923
cpu0_L2C PREFETCH  ACCESS:          0  HIT:          0  MISS:          0
cpu0_L2C WRITEBACK ACCESS:       2967  HIT:       2967  MISS:          0
LLC TOTAL     ACCESS:     117012  HIT:       2987  MISS:     114025
LLC LOAD      ACCESS:     111129  HIT:         27  MISS:     111102
LLC RFO       ACCESS:       2923  HIT:          0  MISS:       2923
LLC PREFETCH  ACCESS:          0  HIT:          0  MISS:          0
LLC WRITEBACK ACCESS:       2954  HIT:       2954  MISS:          0
Heartbeat CPU 0 instructions: 58000002 cycles: 40896175 heartbeat IPC: 0.352683 cumulative IPC: 0.352651 (Simulation time: 1 hr 3 min 13 sec) 

Region of Interest Statistics
cpu0_DTLB TOTAL     ACCESS:    2514588  HIT:    2505125  MISS:       9463
cpu0_DTLB LOAD      ACCESS:    2336864  HIT:    2329011  MISS:       7853
cpu0_DTLB RFO       ACCESS:     177724  HIT:     176114  MISS:       1610
cpu0_DTLB PREFETCH  ACCESS:          0  HIT:          0  MISS:          0
cpu0_DTLB WRITEBACK ACCESS:          0  HIT:          0  MISS:          0
cpu0_ITLB TOTAL     ACCESS:     705067  HIT:     705067  MISS:          0
cpu0_ITLB LOAD      ACCESS:     705067  HIT:     705067  MISS:          0
cpu0_ITLB RFO       ACCESS:          0  HIT:          0  MISS:          0
cpu0_ITLB PREFETCH  ACCESS:          0  HIT:          0  MISS:          0
cpu0_ITLB WRITEBACK ACCESS:          0  HIT:          0  MISS:          0
cpu0_STLB TOTAL     ACCESS:       9463  HIT:       7091  MISS:       2372
cpu0_STLB LOAD      ACCESS:       7853  HIT:       5542  MISS:       2311
cpu0_STLB RFO       ACCESS:       1610  HIT:       1549  MISS:         61
cpu0_STLB PREFETCH  ACCESS:          0  HIT:          0  MISS:          0
cpu0_STLB WRITEBACK ACCESS:          0  HIT:          0  MISS:          0
cpu0_L1D TOTAL     ACCESS:    2528622  HIT:    2368527  MISS:     160095
cpu0_L1D LOAD      ACCESS:    2081742  HIT:    1925699  MISS:     156043
cpu0_L1D RFO       ACCESS:     444508  HIT:     440610  MISS:       3898
cpu0_L1D PREFETCH  ACCESS:          0  HIT:          0  MISS:          0
cpu0_L1D WRITEBACK ACCESS:          0  HIT:          0  MISS:          0
cpu0_L2C TOTAL     ACCESS:     164053  HIT:      11988  MISS:     152065
cpu0_L2C LOAD      ACCESS:     156043  HIT:       7885  MISS:     148158
cpu0_L2C RFO       ACCESS:       3898  HIT:          0  MISS:       3898
cpu0_L2C PREFETCH  ACCESS:          0  HIT:          0  MISS:          0
cpu0_L2C WRITEBACK ACCESS:       3958  HIT:       3958  MISS:          0
LLC TOTAL     ACCESS:     156017  HIT:       3987  MISS:     152030
LLC LOAD      ACCESS:     148158  HIT:         27  MISS:     148131
LLC RFO       ACCESS:       3898  HIT:          0  MISS:       3898
LLC PREFETCH  ACCESS:          0  HIT:          0  MISS:          0
LLC WRITEBACK ACCESS:       3952  HIT:       3952  MISS:          0
Heartbeat CPU 0 instructions: 60000002 cycles: 46566428 heartbeat IPC: 0.352718 cumulative IPC: 0.352664 (Simulation time: 1 hr 8 min 55 sec) 

Region of Interest Statistics
cpu0_DTLB TOTAL     ACCESS:    3143214  HIT:    3131379  MISS:      11835
cpu0_DTLB LOAD      ACCESS:    2921060  HIT:    2911235  MISS:       9825
cpu0_DTLB RFO       ACCESS:     222154  HIT:     220144  MISS:       2010
cpu0_DTLB PREFETCH  ACCESS:          0  HIT:          0  MISS:          0
cpu0_DTLB WRITEBACK ACCESS:          0  HIT:          0  MISS:          0
cpu0_ITLB TOTAL     ACCESS:     881352  HIT:     881352  MISS:          0
cpu0_ITLB LOAD      ACCESS:     881352  HIT:     881352  MISS:          0
cpu0_ITLB RFO       ACCESS:          0  HIT:          0  MISS:          0
cpu0_ITLB PREFETCH  ACCESS:          0  HIT:          0  MISS:          0
cpu0_ITLB WRITEBACK ACCESS:          0  HIT:          0  MISS:          0
cpu0_STLB TOTAL     ACCESS:      11835  HIT:       8871  MISS:       2964
cpu0_STLB LOAD      ACCESS:       9825  HIT:       6937  MISS:       2888
cpu0_STLB RFO       ACCESS:       2010  HIT:       1934  MISS:         76
cpu0_STLB PREFETCH  ACCESS:          0  HIT:          0  MISS:          0
cpu0_STLB WRITEBACK ACCESS:          0  HIT:          0  MISS:          0
cpu0_L1D TOTAL     ACCESS:    3160741  HIT:    2960635  MISS:     200106
cpu0_L1D LOAD      ACCESS:    2602156  HIT:    2407111  MISS:     195045
cpu0_L1D RFO       ACCESS:     555621  HIT:     550749  MISS:       4872
cpu0_L1D PREFETCH  ACCESS:          0  HIT:          0  MISS:          0
cpu0_L1D WRITEBACK ACCESS:          0  HIT:          0  MISS:          0
cpu0_L2C TOTAL     ACCESS:     205054  HIT:      14988  MISS:     190066
cpu0_L2C LOAD      ACCESS:     195045  HIT:       9861  MISS:     185184
cpu0_L2C RFO       ACCESS:       4872  HIT:          0  MISS:       4872
cpu0_L2C PREFETCH  ACCESS:          0  HIT:          0  MISS:          0
cpu0_L2C WRITEBACK ACCESS:       4948  HIT:       4948  MISS:          0
LLC TOTAL     ACCESS:     194992  HIT:       4962  MISS:     190030
LLC LOAD      ACCESS:     185184  HIT:         27  MISS:     185157
LLC RFO       ACCESS:       4872  HIT:          0  MISS:       4872
LLC PREFETCH  ACCESS:          0  HIT:          0  MISS:          0
LLC WRITEBACK ACCESS:       4926  HIT:       4926  MISS:          0
Heartbeat CPU 0 instructions: 62000000 cycles: 52237316 heartbeat IPC: 0.352678 cumulative IPC: 0.352666 (Simulation time: 1 hr 14 min 40 sec) 

Region of Interest Statistics
cpu0_DTLB TOTAL     ACCESS:    3771976  HIT:    3757972  MISS:      14004
cpu0_DTLB LOAD      ACCESS:    3505320  HIT:    3493656  MISS:      11664
cpu0_DTLB RFO       ACCESS:     266656  HIT:     264316  MISS:       2340
cpu0_DTLB PREFETCH  ACCESS:          0  HIT:          0  MISS:          0
cpu0_DTLB WRITEBACK ACCESS:          0  HIT:          0  MISS:          0
cpu0_ITLB TOTAL     ACCESS:    1057576  HIT:    1057576  MISS:          0
cpu0_ITLB LOAD      ACCESS:    1057576  HIT:    1057576  MISS:          0
cpu0_ITLB RFO       ACCESS:          0  HIT:          0  MISS:          0
cpu0_ITLB PREFETCH  ACCESS:          0  HIT:          0  MISS:          0
cpu0_ITLB WRITEBACK ACCESS:          0  HIT:          0  MISS:          0
cpu0_STLB TOTAL     ACCESS:      14004  HIT:      10439  MISS:       3565
cpu0_STLB LOAD      ACCESS:      11664  HIT:       8190  MISS:       3474
cpu0_STLB RFO       ACCESS:       2340  HIT:       2249  MISS:         91
cpu0_STLB PREFETCH  ACCESS:          0  HIT:          0  MISS:          0
cpu0_STLB WRITEBACK ACCESS:          0  HIT:          0  MISS:          0
cpu0_L1D TOTAL     ACCESS:    3792930  HIT:    3552800  MISS:     240130
cpu0_L1D LOAD      ACCESS:    3122611  HIT:    2888557  MISS:     234054
cpu0_L1D RFO       ACCESS:     666754  HIT:     660907  MISS:       5847
cpu0_L1D PREFETCH  ACCESS:          0  HIT:          0  MISS:          0
cpu0_L1D WRITEBACK ACCESS:          0  HIT:          0  MISS:          0
cpu0_L2C TOTAL     ACCESS:     246068  HIT:      17996  MISS:     228072
cpu0_L2C LOAD      ACCESS:     234054  HIT:      11841  MISS:     222213
cpu0_L2C RFO       ACCESS:       5847  HIT:          0  MISS:       5847
cpu0_L2C PREFETCH  ACCESS:          0  HIT:          0  MISS:          0
cpu0_L2C WRITEBACK ACCESS:       5938  HIT:       5938  MISS:          0
LLC TOTAL     ACCESS:     234007  HIT:       5973  MISS:     228034
LLC LOAD      ACCESS:     222213  HIT:         27  MISS:     222186
LLC RFO       ACCESS:       5847  HIT:          0  MISS:       5847
LLC PREFETCH  ACCESS:          0  HIT:          0  MISS:          0
LLC WRITEBACK ACCESS:       5935  HIT:       5935  MISS:          0
Heartbeat CPU 0 instructions: 64000000 cycles: 57907093 heartbeat IPC: 0.352748 cumulative IPC: 0.352678 (Simulation time: 1 hr 20 min 5 sec) 

Region of Interest Statistics
cpu0_DTLB TOTAL     ACCESS:    4400883  HIT:    4384854  MISS:      16029
cpu0_DTLB LOAD      ACCESS:    4089811  HIT:    4076517  MISS:      13294
cpu0_DTLB RFO       ACCESS:     311072  HIT:     308337  MISS:       2735
cpu0_DTLB PREFETCH  ACCESS:          0  HIT:          0  MISS:          0
cpu0_DTLB WRITEBACK ACCESS:          0  HIT:          0  MISS:          0
cpu0_ITLB TOTAL     ACCESS:    1234006  HIT:    1234006  MISS:          0
cpu0_ITLB LOAD      ACCESS:    1234006  HIT:    1234006  MISS:          0
cpu0_ITLB RFO       ACCESS:          0  HIT:          0  MISS:          0
cpu0_ITLB PREFETCH  ACCESS:          0  HIT:          0  MISS:          0
cpu0_ITLB WRITEBACK ACCESS:          0  HIT:          0  MISS:          0
cpu0_STLB TOTAL     ACCESS:      16029  HIT:      11870  MISS:       4159
cpu0_STLB LOAD      ACCESS:      13294  HIT:       9242  MISS:       4052
cpu0_STLB RFO       ACCESS:       2735  HIT:       2628  MISS:        107
cpu0_STLB PREFETCH  ACCESS:          0  HIT:          0  MISS:          0
cpu0_STLB WRITEBACK ACCESS:          0  HIT:          0  MISS:          0
cpu0_L1D TOTAL     ACCESS:    4425517  HIT:    4145360  MISS:     280157
cpu0_L1D LOAD      ACCESS:    3643466  HIT:    3370402  MISS:     273064
cpu0_L1D RFO       ACCESS:     777892  HIT:     771071  MISS:       6821
cpu0_L1D PREFETCH  ACCESS:          0  HIT:          0  MISS:          0
cpu0_L1D WRITEBACK ACCESS:          0  HIT:          0  MISS:          0
cpu0_L2C TOTAL     ACCESS:     287089  HIT:      20984  MISS:     266105
cpu0_L2C LOAD      ACCESS:     273064  HIT:      13795  MISS:     259269
cpu0_L2C RFO       ACCESS:       6821  HIT:          0  MISS:       6821
cpu0_L2C PREFETCH  ACCESS:          0  HIT:          0  MISS:          0
cpu0_L2C WRITEBACK ACCESS:       6932  HIT:       6932  MISS:          0
LLC TOTAL     ACCESS:     272953  HIT:       6915  MISS:     266038
LLC LOAD      ACCESS:     259269  HIT:         54  MISS:     259215
LLC RFO       ACCESS:       6821  HIT:          0  MISS:       6821
LLC PREFETCH  ACCESS:          0  HIT:          0  MISS:          0
LLC WRITEBACK ACCESS:       6848  HIT:       6848  MISS:          0
Heartbeat CPU 0 instructions: 66000000 cycles: 63579969 heartbeat IPC: 0.352555 cumulative IPC: 0.352663 (Simulation time: 1 hr 25 min 36 sec) 

Region of Interest Statistics
cpu0_DTLB TOTAL     ACCESS:    5029623  HIT:    5011287  MISS:      18336
cpu0_DTLB LOAD      ACCESS:    4674129  HIT:    4658934  MISS:      15195
cpu0_DTLB RFO       ACCESS:     355494  HIT:     352353  MISS:       3141
cpu0_DTLB PREFETCH  ACCESS:          0  HIT:          0  MISS:          0
cpu0_DTLB WRITEBACK ACCESS:          0  HIT:          0  MISS:          0
cpu0_ITLB TOTAL     ACCESS:    1410294  HIT:    1410294  MISS:          0
cpu0_ITLB LOAD      ACCESS:    1410294  HIT:    1410294  MISS:          0
cpu0_ITLB RFO       ACCESS:          0  HIT:          0  MISS:          0
cpu0_ITLB PREFETCH  ACCESS:          0  HIT:          0  MISS:          0
cpu0_ITLB WRITEBACK ACCESS:          0  HIT:          0  MISS:          0
cpu0_STLB TOTAL     ACCESS:      18336  HIT:      13585  MISS:       4751
cpu0_STLB LOAD      ACCESS:      15195  HIT:      10566  MISS:       4629
cpu0_STLB RFO       ACCESS:       3141  HIT:       3019  MISS:        122
cpu0_STLB PREFETCH  ACCESS:          0  HIT:          0  MISS:          0
cpu0_STLB WRITEBACK ACCESS:          0  HIT:          0  MISS:          0
cpu0_L1D TOTAL     ACCESS:    5057699  HIT:    4737508  MISS:     320191
cpu0_L1D LOAD      ACCESS:    4163931  HIT:    3851846  MISS:     312085
cpu0_L1D RFO       ACCESS:     889017  HIT:     881221  MISS:       7796
cpu0_L1D PREFETCH  ACCESS:          0  HIT:          0  MISS:          0
cpu0_L1D WRITEBACK ACCESS:          0  HIT:          0  MISS:          0
cpu0_L2C TOTAL     ACCESS:     328113  HIT:      23988  MISS:     304125
cpu0_L2C LOAD      ACCESS:     312085  HIT:      15773  MISS:     296312
cpu0_L2C RFO       ACCESS:       7796  HIT:          0  MISS:       7796
cpu0_L2C PREFETCH  ACCESS:          0  HIT:          0  MISS:          0
cpu0_L2C WRITEBACK ACCESS:       7922  HIT:       7922  MISS:          0
LLC TOTAL     ACCESS:     311916  HIT:       7860  MISS:     304056
LLC LOAD      ACCESS:     296312  HIT:         54  MISS:     296258
LLC RFO       ACCESS:       7796  HIT:          0  MISS:       7796
LLC PREFETCH  ACCESS:          0  HIT:          0  MISS:          0
LLC WRITEBACK ACCESS:       7791  HIT:       7791  MISS:          0
Heartbeat CPU 0 instructions: 68000003 cycles: 69249675 heartbeat IPC: 0.352753 cumulative IPC: 0.352673 (Simulation time: 1 hr 31 min 18 sec) 

Region of Interest Statistics
cpu0_DTLB TOTAL     ACCESS:    5658253  HIT:    5637516  MISS:      20737
cpu0_DTLB LOAD      ACCESS:    5258335  HIT:    5241148  MISS:      17187
cpu0_DTLB RFO       ACCESS:     399918  HIT:     396368  MISS:       3550
cpu0_DTLB PREFETCH  ACCESS:          0  HIT:          0  MISS:          0
cpu0_DTLB WRITEBACK ACCESS:          0  HIT:          0  MISS:          0
cpu0_ITLB TOTAL     ACCESS:    1586562  HIT:    1586562  MISS:          0
cpu0_ITLB LOAD      ACCESS:    1586562  HIT:    1586562  MISS:          0
cpu0_ITLB RFO       ACCESS:          0  HIT:          0  MISS:          0
cpu0_ITLB PREFETCH  ACCESS:          0  HIT:          0  MISS:          0
cpu0_ITLB WRITEBACK ACCESS:          0  HIT:          0  MISS:          0
cpu0_STLB TOTAL     ACCESS:      20737  HIT:      15394  MISS:       5343
cpu0_STLB LOAD      ACCESS:      17187  HIT:      11981  MISS:       5206
cpu0_STLB RFO       ACCESS:       3550  HIT:       3413  MISS:        137
cpu0_STLB PREFETCH  ACCESS:          0  HIT:          0  MISS:          0
cpu0_STLB WRITEBACK ACCESS:          0  HIT:          0  MISS:          0
cpu0_L1D TOTAL     ACCESS:    5689867  HIT:    5329663  MISS:     360204
cpu0_L1D LOAD      ACCESS:    4684371  HIT:    4333282  MISS:     351089
cpu0_L1D RFO       ACCESS:    1000153  HIT:     991383  MISS:       8770
cpu0_L1D PREFETCH  ACCESS:          0  HIT:          0  MISS:          0
cpu0_L1D WRITEBACK ACCESS:          0  HIT:          0  MISS:          0
cpu0_L2C TOTAL     ACCESS:     369117  HIT:      26973  MISS:     342144
cpu0_L2C LOAD      ACCESS:     351089  HIT:      17733  MISS:     333356
cpu0_L2C RFO       ACCESS:       8770  HIT:          0  MISS:       8770
cpu0_L2C PREFETCH  ACCESS:          0  HIT:          0  MISS:          0
cpu0_L2C WRITEBACK ACCESS:       8913  HIT:       8913  MISS:          0
LLC TOTAL     ACCESS:     350992  HIT:       8936  MISS:     342056
LLC LOAD      ACCESS:     333356  HIT:         72  MISS:     333284
LLC RFO       ACCESS:       8770  HIT:          0  MISS:       8770
LLC PREFETCH  ACCESS:          0  HIT:          0  MISS:          0
LLC WRITEBACK ACCESS:       8848  HIT:       8848  MISS:          0
Heartbeat CPU 0 instructions: 70000002 cycles: 74920488 heartbeat IPC: 0.352683 cumulative IPC: 0.352674 (Simulation time: 1 hr 36 min 42 sec) 

Region of Interest Statistics
cpu0_DTLB TOTAL     ACCESS:    6286910  HIT:    6263790  MISS:      23120
cpu0_DTLB LOAD      ACCESS:    5842568  HIT:    5823404  MISS:      19164
cpu0_DTLB RFO       ACCESS:     444342  HIT:     440386  MISS:       3956
cpu0_DTLB PREFETCH  ACCESS:          0  HIT:          0  MISS:          0
cpu0_DTLB WRITEBACK ACCESS:          0  HIT:          0  MISS:          0
cpu0_ITLB TOTAL     ACCESS:    1762834  HIT:    1762834  MISS:          0
cpu0_ITLB LOAD      ACCESS:    1762834  HIT:    1762834  MISS:          0
cpu0_ITLB RFO       ACCESS:          0  HIT:          0  MISS:          0
cpu0_ITLB PREFETCH  ACCESS:          0  HIT:          0  MISS:          0
cpu0_ITLB WRITEBACK ACCESS:          0  HIT:          0  MISS:          0
cpu0_STLB TOTAL     ACCESS:      23120  HIT:      17184  MISS:       5936
cpu0_STLB LOAD      ACCESS:      19164  HIT:      13380  MISS:       5784
cpu0_STLB RFO       ACCESS:       3956  HIT:       3804  MISS:        152
cpu0_STLB PREFETCH  ACCESS:          0  HIT:          0  MISS:          0
cpu0_STLB WRITEBACK ACCESS:          0  HIT:          0  MISS:          0
cpu0_L1D TOTAL     ACCESS:    6321983  HIT:    5921758  MISS:     400225
cpu0_L1D LOAD      ACCESS:    5204785  HIT:    4814689  MISS:     390096
cpu0_L1D RFO       ACCESS:    1111262  HIT:    1101517  MISS:       9745
cpu0_L1D PREFETCH  ACCESS:          0  HIT:          0  MISS:          0
cpu0_L1D WRITEBACK ACCESS:          0  HIT:          0  MISS:          0
cpu0_L2C TOTAL     ACCESS:     410121  HIT:      29939  MISS:     380182
cpu0_L2C LOAD      ACCESS:     390096  HIT:      19678  MISS:     370418
cpu0_L2C RFO       ACCESS:       9745  HIT:          0  MISS:       9745
cpu0_L2C PREFETCH  ACCESS:          0  HIT:          0  MISS:          0
cpu0_L2C WRITEBACK ACCESS:       9896  HIT:       9896  MISS:          0
LLC TOTAL     ACCESS:     389945  HIT:       9883  MISS:     380062
LLC LOAD      ACCESS:     370418  HIT:        105  MISS:     370313
LLC RFO       ACCESS:       9745  HIT:          0  MISS:       9745
LLC PREFETCH  ACCESS:          0  HIT:          0  MISS:          0
LLC WRITEBACK ACCESS:       9763  HIT:       9761  MISS:          2
Heartbeat CPU 0 instructions: 72000001 cycles: 80590594 heartbeat IPC: 0.352727 cumulative IPC: 0.352679 (Simulation time: 1 hr 42 min 27 sec) 

Region of Interest Statistics
cpu0_DTLB TOTAL     ACCESS:    6915768  HIT:    6890507  MISS:      25261
cpu0_DTLB LOAD      ACCESS:    6426913  HIT:    6405928  MISS:      20985
cpu0_DTLB RFO       ACCESS:     488855  HIT:     484579  MISS:       4276
cpu0_DTLB PREFETCH  ACCESS:          0  HIT:          0  MISS:          0
cpu0_DTLB WRITEBACK ACCESS:          0  HIT:          0  MISS:          0
cpu0_ITLB TOTAL     ACCESS:    1939092  HIT:    1939092  MISS:          0
cpu0_ITLB LOAD      ACCESS:    1939092  HIT:    1939092  MISS:          0
cpu0_ITLB RFO       ACCESS:          0  HIT:          0  MISS:          0
cpu0_ITLB PREFETCH  ACCESS:          0  HIT:          0  MISS:          0
cpu0_ITLB WRITEBACK ACCESS:          0  HIT:          0  MISS:          0
cpu0_STLB TOTAL     ACCESS:      25261  HIT:      18731  MISS:       6530
cpu0_STLB LOAD      ACCESS:      20985  HIT:      14623  MISS:       6362
cpu0_STLB RFO       ACCESS:       4276  HIT:       4108  MISS:        168
cpu0_STLB PREFETCH  ACCESS:          0  HIT:          0  MISS:          0
cpu0_STLB WRITEBACK ACCESS:          0  HIT:          0  MISS:          0
cpu0_L1D TOTAL     ACCESS:    6954195  HIT:    6513953  MISS:     440242
cpu0_L1D LOAD      ACCESS:    5725266  HIT:    5296166  MISS:     429100
cpu0_L1D RFO       ACCESS:    1222399  HIT:    1211680  MISS:      10719
cpu0_L1D PREFETCH  ACCESS:          0  HIT:          0  MISS:          0
cpu0_L1D WRITEBACK ACCESS:          0  HIT:          0  MISS:          0
cpu0_L2C TOTAL     ACCESS:     451121  HIT:      32888  MISS:     418233
cpu0_L2C LOAD      ACCESS:     429100  HIT:      21607  MISS:     407493
cpu0_L2C RFO       ACCESS:      10719  HIT:          0  MISS:      10719
cpu0_L2C PREFETCH  ACCESS:          0  HIT:          0  MISS:          0
cpu0_L2C WRITEBACK ACCESS:      10879  HIT:      10879  MISS:          0
LLC TOTAL     ACCESS:     428920  HIT:      10858  MISS:     418062
LLC LOAD      ACCESS:     407493  HIT:        154  MISS:     407339
LLC RFO       ACCESS:      10719  HIT:          0  MISS:      10719
LLC PREFETCH  ACCESS:          0  HIT:          0  MISS:          0
LLC WRITEBACK ACCESS:      10687  HIT:      10685  MISS:          2
Heartbeat CPU 0 instructions: 74000003 cycles: 86260829 heartbeat IPC: 0.352719 cumulative IPC: 0.352682 (Simulation time: 1 hr 48 min 4 sec) 

Region of Interest Statistics
cpu0_DTLB TOTAL     ACCESS:    7544328  HIT:    7516681  MISS:      27647
cpu0_DTLB LOAD      ACCESS:    7011060  HIT:    6988102  MISS:      22958
cpu0_DTLB RFO       ACCESS:     533268  HIT:     528579  MISS:       4689
cpu0_DTLB PREFETCH  ACCESS:          0  HIT:          0  MISS:          0
cpu0_DTLB WRITEBACK ACCESS:          0  HIT:          0  MISS:          0
cpu0_ITLB TOTAL     ACCESS:    2115360  HIT:    2115360  MISS:          0
cpu0_ITLB LOAD      ACCESS:    2115360  HIT:    2115360  MISS:          0
cpu0_ITLB RFO       ACCESS:          0  HIT:          0  MISS:          0
cpu0_ITLB PREFETCH  ACCESS:          0  HIT:          0  MISS:          0
cpu0_ITLB WRITEBACK ACCESS:          0  HIT:          0  MISS:          0
cpu0_STLB TOTAL     ACCESS:      27647  HIT:      20524  MISS:       7123
cpu0_STLB LOAD      ACCESS:      22958  HIT:      16018  MISS:       6940
cpu0_STLB RFO       ACCESS:       4689  HIT:       4506  MISS:        183
cpu0_STLB PREFETCH  ACCESS:          0  HIT:          0  MISS:          0
cpu0_STLB WRITEBACK ACCESS:          0  HIT:          0  MISS:          0
cpu0_L1D TOTAL     ACCESS:    7586317  HIT:    7106058  MISS:     480259
cpu0_L1D LOAD      ACCESS:    6245687  HIT:    5777584  MISS:     468103
cpu0_L1D RFO       ACCESS:    1333507  HIT:    1321813  MISS:      11694
cpu0_L1D PREFETCH  ACCESS:          0  HIT:          0  MISS:          0
cpu0_L1D WRITEBACK ACCESS:          0  HIT:          0  MISS:          0
cpu0_L2C TOTAL     ACCESS:     492127  HIT:      35890  MISS:     456237
cpu0_L2C LOAD      ACCESS:     468103  HIT:      23584  MISS:     444519
cpu0_L2C RFO       ACCESS:      11694  HIT:          0  MISS:      11694
cpu0_L2C PREFETCH  ACCESS:          0  HIT:          0  MISS:          0
cpu0_L2C WRITEBACK ACCESS:      11868  HIT:      11868  MISS:          0
LLC TOTAL     ACCESS:     467873  HIT:      11810  MISS:     456063
LLC LOAD      ACCESS:     444519  HIT:        154  MISS:     444365
LLC RFO       ACCESS:      11694  HIT:          0  MISS:      11694
LLC PREFETCH  ACCESS:          0  HIT:          0  MISS:          0
LLC WRITEBACK ACCESS:      11636  HIT:      11634  MISS:          2
Heartbeat CPU 0 instructions: 76000000 cycles: 91931109 heartbeat IPC: 0.352716 cumulative IPC: 0.352685 (Simulation time: 1 hr 53 min 36 sec) 

Region of Interest Statistics
cpu0_DTLB TOTAL     ACCESS:    8172927  HIT:    8142899  MISS:      30028
cpu0_DTLB LOAD      ACCESS:    7595227  HIT:    7570297  MISS:      24930
cpu0_DTLB RFO       ACCESS:     577700  HIT:     572602  MISS:       5098
cpu0_DTLB PREFETCH  ACCESS:          0  HIT:          0  MISS:          0
cpu0_DTLB WRITEBACK ACCESS:          0  HIT:          0  MISS:          0
cpu0_ITLB TOTAL     ACCESS:    2291629  HIT:    2291629  MISS:          0
cpu0_ITLB LOAD      ACCESS:    2291629  HIT:    2291629  MISS:          0
cpu0_ITLB RFO       ACCESS:          0  HIT:          0  MISS:          0
cpu0_ITLB PREFETCH  ACCESS:          0  HIT:          0  MISS:          0
cpu0_ITLB WRITEBACK ACCESS:          0  HIT:          0  MISS:          0
cpu0_STLB TOTAL     ACCESS:      30028  HIT:      22313  MISS:       7715
cpu0_STLB LOAD      ACCESS:      24930  HIT:      17413  MISS:       7517
cpu0_STLB RFO       ACCESS:       5098  HIT:       4900  MISS:        198
cpu0_STLB PREFETCH  ACCESS:          0  HIT:          0  MISS:          0
cpu0_STLB WRITEBACK ACCESS:          0  HIT:          0  MISS:          0
cpu0_L1D TOTAL     ACCESS:    8218434  HIT:    7698157  MISS:     520277
cpu0_L1D LOAD      ACCESS:    6766051  HIT:    6258940  MISS:     507111
cpu0_L1D RFO       ACCESS:    1444665  HIT:    1431997  MISS:      12668
cpu0_L1D PREFETCH  ACCESS:          0  HIT:          0  MISS:          0
cpu0_L1D WRITEBACK ACCESS:          0  HIT:          0  MISS:          0
cpu0_L2C TOTAL     ACCESS:     533136  HIT:      38764  MISS:     494372
cpu0_L2C LOAD      ACCESS:     507111  HIT:      25433  MISS:     481678
cpu0_L2C RFO       ACCESS:      12668  HIT:          0  MISS:      12668
cpu0_L2C PREFETCH  ACCESS:          0  HIT:          0  MISS:          0
cpu0_L2C WRITEBACK ACCESS:      12859  HIT:      12859  MISS:          0
LLC TOTAL     ACCESS:     506968  HIT:      12902  MISS:     494066
LLC LOAD      ACCESS:     481678  HIT:        284  MISS:     481394
LLC RFO       ACCESS:      12668  HIT:          0  MISS:      12668
LLC PREFETCH  ACCESS:          0  HIT:          0  MISS:          0
LLC WRITEBACK ACCESS:      12596  HIT:      12594  MISS:          2
Heartbeat CPU 0 instructions: 78000003 cycles: 97603773 heartbeat IPC: 0.352569 cumulative IPC: 0.352676 (Simulation time: 1 hr 58 min 42 sec) 

Region of Interest Statistics
cpu0_DTLB TOTAL     ACCESS:    8801583  HIT:    8769157  MISS:      32426
cpu0_DTLB LOAD      ACCESS:    8179460  HIT:    8152538  MISS:      26922
cpu0_DTLB RFO       ACCESS:     622123  HIT:     616619  MISS:       5504
cpu0_DTLB PREFETCH  ACCESS:          0  HIT:          0  MISS:          0
cpu0_DTLB WRITEBACK ACCESS:          0  HIT:          0  MISS:          0
cpu0_ITLB TOTAL     ACCESS:    2467907  HIT:    2467907  MISS:          0
cpu0_ITLB LOAD      ACCESS:    2467907  HIT:    2467907  MISS:          0
cpu0_ITLB RFO       ACCESS:          0  HIT:          0  MISS:          0
cpu0_ITLB PREFETCH  ACCESS:          0  HIT:          0  MISS:          0
cpu0_ITLB WRITEBACK ACCESS:          0  HIT:          0  MISS:          0
cpu0_STLB TOTAL     ACCESS:      32426  HIT:      24112  MISS:       8314
cpu0_STLB LOAD      ACCESS:      26922  HIT:      18821  MISS:       8101
cpu0_STLB RFO       ACCESS:       5504  HIT:       5291  MISS:        213
cpu0_STLB PREFETCH  ACCESS:          0  HIT:          0  MISS:          0
cpu0_STLB WRITEBACK ACCESS:          0  HIT:          0  MISS:          0
cpu0_L1D TOTAL     ACCESS:    8850562  HIT:    8290248  MISS:     560314
cpu0_L1D LOAD      ACCESS:    7286475  HIT:    6740336  MISS:     546139
cpu0_L1D RFO       ACCESS:    1555773  HIT:    1542130  MISS:      13643
cpu0_L1D PREFETCH  ACCESS:          0  HIT:          0  MISS:          0
cpu0_L1D WRITEBACK ACCESS:          0  HIT:          0  MISS:          0
cpu0_L2C TOTAL     ACCESS:     574163  HIT:      41765  MISS:     532398
cpu0_L2C LOAD      ACCESS:     546139  HIT:      27411  MISS:     518728
cpu0_L2C RFO       ACCESS:      13643  HIT:          0  MISS:      13643
cpu0_L2C PREFETCH  ACCESS:          0  HIT:          0  MISS:          0
cpu0_L2C WRITEBACK ACCESS:      13849  HIT:      13849  MISS:          0
LLC TOTAL     ACCESS:     546014  HIT:      13923  MISS:     532091
LLC LOAD      ACCESS:     518728  HIT:        284  MISS:     518444
LLC RFO       ACCESS:      13643  HIT:          0  MISS:      13643
LLC PREFETCH  ACCESS:          0  HIT:          0  MISS:          0
LLC WRITEBACK ACCESS:      13616  HIT:      13614  MISS:          2
Heartbeat CPU 0 instructions: 80000001 cycles: 103275209 heartbeat IPC: 0.352644 cumulative IPC: 0.352674 (Simulation time: 2 hr 4 min 31 sec) 

Region of Interest Statistics
cpu0_DTLB TOTAL     ACCESS:    9430217  HIT:    9395399  MISS:      34818
cpu0_DTLB LOAD      ACCESS:    8763664  HIT:    8734761  MISS:      28903
cpu0_DTLB RFO       ACCESS:     666553  HIT:     660638  MISS:       5915
cpu0_DTLB PREFETCH  ACCESS:          0  HIT:          0  MISS:          0
cpu0_DTLB WRITEBACK ACCESS:          0  HIT:          0  MISS:          0
cpu0_ITLB TOTAL     ACCESS:    2644176  HIT:    2644176  MISS:          0
cpu0_ITLB LOAD      ACCESS:    2644176  HIT:    2644176  MISS:          0
cpu0_ITLB RFO       ACCESS:          0  HIT:          0  MISS:          0
cpu0_ITLB PREFETCH  ACCESS:          0  HIT:          0  MISS:          0
cpu0_ITLB WRITEBACK ACCESS:          0  HIT:          0  MISS:          0
cpu0_STLB TOTAL     ACCESS:      34818  HIT:      25909  MISS:       8909
cpu0_STLB LOAD      ACCESS:      28903  HIT:      20223  MISS:       8680
cpu0_STLB RFO       ACCESS:       5915  HIT:       5686  MISS:        229
cpu0_STLB PREFETCH  ACCESS:          0  HIT:          0  MISS:          0
cpu0_STLB WRITEBACK ACCESS:          0  HIT:          0  MISS:          0
cpu0_L1D TOTAL     ACCESS:    9482706  HIT:    8882370  MISS:     600336
cpu0_L1D LOAD      ACCESS:    7806891  HIT:    7221748  MISS:     585143
cpu0_L1D RFO       ACCESS:    1666906  HIT:    1652289  MISS:      14617
cpu0_L1D PREFETCH  ACCESS:          0  HIT:          0  MISS:          0
cpu0_L1D WRITEBACK ACCESS:          0  HIT:          0  MISS:          0
cpu0_L2C TOTAL     ACCESS:     615175  HIT:      44771  MISS:     570404
cpu0_L2C LOAD      ACCESS:     585143  HIT:      29389  MISS:     555754
cpu0_L2C RFO       ACCESS:      14617  HIT:          0  MISS:      14617
cpu0_L2C PREFETCH  ACCESS:          0  HIT:          0  MISS:          0
cpu0_L2C WRITEBACK ACCESS:      14839  HIT:      14839  MISS:          0
LLC TOTAL     ACCESS:     584984  HIT:      14889  MISS:     570095
LLC LOAD      ACCESS:     555754  HIT:        284  MISS:     555470
LLC RFO       ACCESS:      14617  HIT:          0  MISS:      14617
LLC PREFETCH  ACCESS:          0  HIT:          0  MISS:          0
LLC WRITEBACK ACCESS:      14580  HIT:      14578  MISS:          2
Heartbeat CPU 0 instructions: 82000001 cycles: 108944476 heartbeat IPC: 0.352779 cumulative IPC: 0.352681 (Simulation time: 2 hr 9 min 54 sec) 

Region of Interest Statistics
cpu0_DTLB TOTAL     ACCESS:   10059428  HIT:   10022861  MISS:      36567
cpu0_DTLB LOAD      ACCESS:    9348374  HIT:    9318022  MISS:      30352
cpu0_DTLB RFO       ACCESS:     711054  HIT:     704839  MISS:       6215
cpu0_DTLB PREFETCH  ACCESS:          0  HIT:          0  MISS:          0
cpu0_DTLB WRITEBACK ACCESS:          0  HIT:          0  MISS:          0
cpu0_ITLB TOTAL     ACCESS:    2820582  HIT:    2820582  MISS:          0
cpu0_ITLB LOAD      ACCESS:    2820582  HIT:    2820582  MISS:          0
cpu0_ITLB RFO       ACCESS:          0  HIT:          0  MISS:          0
cpu0_ITLB PREFETCH  ACCESS:          0  HIT:          0  MISS:          0
cpu0_ITLB WRITEBACK ACCESS:          0  HIT:          0  MISS:          0
cpu0_STLB TOTAL     ACCESS:      36567  HIT:      27065  MISS:       9502
cpu0_STLB LOAD      ACCESS:      30352  HIT:      21094  MISS:       9258
cpu0_STLB RFO       ACCESS:       6215  HIT:       5971  MISS:        244
cpu0_STLB PREFETCH  ACCESS:          0  HIT:          0  MISS:          0
cpu0_STLB WRITEBACK ACCESS:          0  HIT:          0  MISS:          0
cpu0_L1D TOTAL     ACCESS:   10115416  HIT:    9475046  MISS:     640370
cpu0_L1D LOAD      ACCESS:    8327866  HIT:    7703708  MISS:     624158
cpu0_L1D RFO       ACCESS:    1778048  HIT:    1762456  MISS:      15592
cpu0_L1D PREFETCH  ACCESS:          0  HIT:          0  MISS:          0
cpu0_L1D WRITEBACK ACCESS:          0  HIT:          0  MISS:          0
cpu0_L2C TOTAL     ACCESS:     656203  HIT:      47790  MISS:     608413
cpu0_L2C LOAD      ACCESS:     624158  HIT:      31372  MISS:     592786
cpu0_L2C RFO       ACCESS:      15592  HIT:          0  MISS:      15592
cpu0_L2C PREFETCH  ACCESS:          0  HIT:          0  MISS:          0
cpu0_L2C WRITEBACK ACCESS:      15833  HIT:      15833  MISS:          0
LLC TOTAL     ACCESS:     624023  HIT:      15921  MISS:     608102
LLC LOAD      ACCESS:     592786  HIT:        284  MISS:     592502
LLC RFO       ACCESS:      15592  HIT:          0  MISS:      15592
LLC PREFETCH  ACCESS:          0  HIT:          0  MISS:          0
LLC WRITEBACK ACCESS:      15610  HIT:      15608  MISS:          2
Heartbeat CPU 0 instructions: 84000001 cycles: 114614704 heartbeat IPC: 0.35272 cumulative IPC: 0.352683 (Simulation time: 2 hr 15 min 23 sec) 

Region of Interest Statistics
cpu0_DTLB TOTAL     ACCESS:   10688022  HIT:   10649065  MISS:      38957
cpu0_DTLB LOAD      ACCESS:    9932546  HIT:    9900215  MISS:      32331
cpu0_DTLB RFO       ACCESS:     755476  HIT:     748850  MISS:       6626
cpu0_DTLB PREFETCH  ACCESS:          0  HIT:          0  MISS:          0
cpu0_DTLB WRITEBACK ACCESS:          0  HIT:          0  MISS:          0
cpu0_ITLB TOTAL     ACCESS:    2996852  HIT:    2996852  MISS:          0
cpu0_ITLB LOAD      ACCESS:    2996852  HIT:    2996852  MISS:          0
cpu0_ITLB RFO       ACCESS:          0  HIT:          0  MISS:          0
cpu0_ITLB PREFETCH  ACCESS:          0  HIT:          0  MISS:          0
cpu0_ITLB WRITEBACK ACCESS:          0  HIT:          0  MISS:          0
cpu0_STLB TOTAL     ACCESS:      38957  HIT:      28863  MISS:      10094
cpu0_STLB LOAD      ACCESS:      32331  HIT:      22496  MISS:       9835
cpu0_STLB RFO       ACCESS:       6626  HIT:       6367  MISS:        259
cpu0_STLB PREFETCH  ACCESS:          0  HIT:          0  MISS:          0
cpu0_STLB WRITEBACK ACCESS:          0  HIT:          0  MISS:          0
cpu0_L1D TOTAL     ACCESS:   10747558  HIT:   10067172  MISS:     680386
cpu0_L1D LOAD      ACCESS:    8848307  HIT:    8185147  MISS:     663160
cpu0_L1D RFO       ACCESS:    1889157  HIT:    1872591  MISS:      16566
cpu0_L1D PREFETCH  ACCESS:          0  HIT:          0  MISS:          0
cpu0_L1D WRITEBACK ACCESS:          0  HIT:          0  MISS:          0
cpu0_L2C TOTAL     ACCESS:     697209  HIT:      50794  MISS:     646415
cpu0_L2C LOAD      ACCESS:     663160  HIT:      33348  MISS:     629812
cpu0_L2C RFO       ACCESS:      16566  HIT:          0  MISS:      16566
cpu0_L2C PREFETCH  ACCESS:          0  HIT:          0  MISS:          0
cpu0_L2C WRITEBACK ACCESS:      16823  HIT:      16823  MISS:          0
LLC TOTAL     ACCESS:     662947  HIT:      16845  MISS:     646102
LLC LOAD      ACCESS:     629812  HIT:        284  MISS:     629528
LLC RFO       ACCESS:      16566  HIT:          0  MISS:      16566
LLC PREFETCH  ACCESS:          0  HIT:          0  MISS:          0
LLC WRITEBACK ACCESS:      16532  HIT:      16530  MISS:          2
Heartbeat CPU 0 instructions: 86000004 cycles: 120283916 heartbeat IPC: 0.352783 cumulative IPC: 0.352689 (Simulation time: 2 hr 20 min 40 sec) 

Region of Interest Statistics
cpu0_DTLB TOTAL     ACCESS:   11316551  HIT:   11275220  MISS:      41331
cpu0_DTLB LOAD      ACCESS:   10516653  HIT:   10482357  MISS:      34296
cpu0_DTLB RFO       ACCESS:     799898  HIT:     792863  MISS:       7035
cpu0_DTLB PREFETCH  ACCESS:          0  HIT:          0  MISS:          0
cpu0_DTLB WRITEBACK ACCESS:          0  HIT:          0  MISS:          0
cpu0_ITLB TOTAL     ACCESS:    3173107  HIT:    3173107  MISS:          0
cpu0_ITLB LOAD      ACCESS:    3173107  HIT:    3173107  MISS:          0
cpu0_ITLB RFO       ACCESS:          0  HIT:          0  MISS:          0
cpu0_ITLB PREFETCH  ACCESS:          0  HIT:          0  MISS:          0
cpu0_ITLB WRITEBACK ACCESS:          0  HIT:          0  MISS:          0
cpu0_STLB TOTAL     ACCESS:      41331  HIT:      30645  MISS:      10686
cpu0_STLB LOAD      ACCESS:      34296  HIT:      23884  MISS:      10412
cpu0_STLB RFO       ACCESS:       7035  HIT:       6761  MISS:        274
cpu0_STLB PREFETCH  ACCESS:          0  HIT:          0  MISS:          0
cpu0_STLB WRITEBACK ACCESS:          0  HIT:          0  MISS:          0
cpu0_L1D TOTAL     ACCESS:   11379645  HIT:   10659243  MISS:     720402
cpu0_L1D LOAD      ACCESS:    9368667  HIT:    8666503  MISS:     702164
cpu0_L1D RFO       ACCESS:    2000292  HIT:    1982751  MISS:      17541
cpu0_L1D PREFETCH  ACCESS:          0  HIT:          0  MISS:          0
cpu0_L1D WRITEBACK ACCESS:          0  HIT:          0  MISS:          0
cpu0_L2C TOTAL     ACCESS:     738216  HIT:      53793  MISS:     684423
cpu0_L2C LOAD      ACCESS:     702164  HIT:      35321  MISS:     666843
cpu0_L2C RFO       ACCESS:      17541  HIT:          0  MISS:      17541
cpu0_L2C PREFETCH  ACCESS:          0  HIT:          0  MISS:          0
cpu0_L2C WRITEBACK ACCESS:      17814  HIT:      17814  MISS:          0
LLC TOTAL     ACCESS:     701990  HIT:      17887  MISS:     684103
LLC LOAD      ACCESS:     666843  HIT:        289  MISS:     666554
LLC RFO       ACCESS:      17541  HIT:          0  MISS:      17541
LLC PREFETCH  ACCESS:          0  HIT:          0  MISS:          0
LLC WRITEBACK ACCESS:      17567  HIT:      17565  MISS:          2
Heartbeat CPU 0 instructions: 88000003 cycles: 125957116 heartbeat IPC: 0.352535 cumulative IPC: 0.35268 (Simulation time: 2 hr 25 min 28 sec) 

Region of Interest Statistics
cpu0_DTLB TOTAL     ACCESS:   11945278  HIT:   11901554  MISS:      43724
cpu0_DTLB LOAD      ACCESS:   11100955  HIT:   11064675  MISS:      36280
cpu0_DTLB RFO       ACCESS:     844323  HIT:     836879  MISS:       7444
cpu0_DTLB PREFETCH  ACCESS:          0  HIT:          0  MISS:          0
cpu0_DTLB WRITEBACK ACCESS:          0  HIT:          0  MISS:          0
cpu0_ITLB TOTAL     ACCESS:    3349395  HIT:    3349395  MISS:          0
cpu0_ITLB LOAD      ACCESS:    3349395  HIT:    3349395  MISS:          0
cpu0_ITLB RFO       ACCESS:          0  HIT:          0  MISS:          0
cpu0_ITLB PREFETCH  ACCESS:          0  HIT:          0  MISS:          0
cpu0_ITLB WRITEBACK ACCESS:          0  HIT:          0  MISS:          0
cpu0_STLB TOTAL     ACCESS:      43724  HIT:      32445  MISS:      11279
cpu0_STLB LOAD      ACCESS:      36280  HIT:      25290  MISS:      10990
cpu0_STLB RFO       ACCESS:       7444  HIT:       7155  MISS:        289
cpu0_STLB PREFETCH  ACCESS:          0  HIT:          0  MISS:          0
cpu0_STLB WRITEBACK ACCESS:          0  HIT:          0  MISS:          0
cpu0_L1D TOTAL     ACCESS:   12011857  HIT:   11251425  MISS:     760432
cpu0_L1D LOAD      ACCESS:    9889161  HIT:    9147976  MISS:     741185
cpu0_L1D RFO       ACCESS:    2111417  HIT:    2092902  MISS:      18515
cpu0_L1D PREFETCH  ACCESS:          0  HIT:          0  MISS:          0
cpu0_L1D WRITEBACK ACCESS:          0  HIT:          0  MISS:          0
cpu0_L2C TOTAL     ACCESS:     779236  HIT:      56796  MISS:     722440
cpu0_L2C LOAD      ACCESS:     741185  HIT:      37299  MISS:     703886
cpu0_L2C RFO       ACCESS:      18515  HIT:          0  MISS:      18515
cpu0_L2C PREFETCH  ACCESS:          0  HIT:          0  MISS:          0
cpu0_L2C WRITEBACK ACCESS:      18804  HIT:      18804  MISS:          0
LLC TOTAL     ACCESS:     740926  HIT:      18806  MISS:     722120
LLC LOAD      ACCESS:     703886  HIT:        289  MISS:     703597
LLC RFO       ACCESS:      18515  HIT:          0  MISS:      18515
LLC PREFETCH  ACCESS:          0  HIT:          0  MISS:          0
LLC WRITEBACK ACCESS:      18486  HIT:      18484  MISS:          2
Heartbeat CPU 0 instructions: 90000003 cycles: 131626001 heartbeat IPC: 0.352803 cumulative IPC: 0.352687 (Simulation time: 2 hr 30 min 45 sec) 

Region of Interest Statistics
cpu0_DTLB TOTAL     ACCESS:   12573899  HIT:   12527793  MISS:      46106
cpu0_DTLB LOAD      ACCESS:   11685142  HIT:   11646887  MISS:      38255
cpu0_DTLB RFO       ACCESS:     888757  HIT:     880906  MISS:       7851
cpu0_DTLB PREFETCH  ACCESS:          0  HIT:          0  MISS:          0
cpu0_DTLB WRITEBACK ACCESS:          0  HIT:          0  MISS:          0
cpu0_ITLB TOTAL     ACCESS:    3525663  HIT:    3525663  MISS:          0
cpu0_ITLB LOAD      ACCESS:    3525663  HIT:    3525663  MISS:          0
cpu0_ITLB RFO       ACCESS:          0  HIT:          0  MISS:          0
cpu0_ITLB PREFETCH  ACCESS:          0  HIT:          0  MISS:          0
cpu0_ITLB WRITEBACK ACCESS:          0  HIT:          0  MISS:          0
cpu0_STLB TOTAL     ACCESS:      46106  HIT:      34233  MISS:      11873
cpu0_STLB LOAD      ACCESS:      38255  HIT:      26687  MISS:      11568
cpu0_STLB RFO       ACCESS:       7851  HIT:       7546  MISS:        305
cpu0_STLB PREFETCH  ACCESS:          0  HIT:          0  MISS:          0
cpu0_STLB WRITEBACK ACCESS:          0  HIT:          0  MISS:          0
cpu0_L1D TOTAL     ACCESS:   12643997  HIT:   11843542  MISS:     800455
cpu0_L1D LOAD      ACCESS:   10409569  HIT:    9629375  MISS:     780194
cpu0_L1D RFO       ACCESS:    2222555  HIT:    2203065  MISS:      19490
cpu0_L1D PREFETCH  ACCESS:          0  HIT:          0  MISS:          0
cpu0_L1D WRITEBACK ACCESS:          0  HIT:          0  MISS:          0
cpu0_L2C TOTAL     ACCESS:     820247  HIT:      59801  MISS:     760446
cpu0_L2C LOAD      ACCESS:     780194  HIT:      39279  MISS:     740915
cpu0_L2C RFO       ACCESS:      19490  HIT:          0  MISS:      19490
cpu0_L2C PREFETCH  ACCESS:          0  HIT:          0  MISS:          0
cpu0_L2C WRITEBACK ACCESS:      19792  HIT:      19792  MISS:          0
LLC TOTAL     ACCESS:     779951  HIT:      19827  MISS:     760124
LLC LOAD      ACCESS:     740915  HIT:        289  MISS:     740626
LLC RFO       ACCESS:      19490  HIT:          0  MISS:      19490
LLC PREFETCH  ACCESS:          0  HIT:          0  MISS:          0
LLC WRITEBACK ACCESS:      19505  HIT:      19503  MISS:          2
Heartbeat CPU 0 instructions: 92000002 cycles: 137295085 heartbeat IPC: 0.352791 cumulative IPC: 0.352692 (Simulation time: 2 hr 36 min 20 sec) 

Region of Interest Statistics
cpu0_DTLB TOTAL     ACCESS:   13202666  HIT:   13154401  MISS:      48265
cpu0_DTLB LOAD      ACCESS:   12269408  HIT:   12229315  MISS:      40093
cpu0_DTLB RFO       ACCESS:     933258  HIT:     925086  MISS:       8172
cpu0_DTLB PREFETCH  ACCESS:          0  HIT:          0  MISS:          0
cpu0_DTLB WRITEBACK ACCESS:          0  HIT:          0  MISS:          0
cpu0_ITLB TOTAL     ACCESS:    3701935  HIT:    3701935  MISS:          0
cpu0_ITLB LOAD      ACCESS:    3701935  HIT:    3701935  MISS:          0
cpu0_ITLB RFO       ACCESS:          0  HIT:          0  MISS:          0
cpu0_ITLB PREFETCH  ACCESS:          0  HIT:          0  MISS:          0
cpu0_ITLB WRITEBACK ACCESS:          0  HIT:          0  MISS:          0
cpu0_STLB TOTAL     ACCESS:      48265  HIT:      35792  MISS:      12473
cpu0_STLB LOAD      ACCESS:      40093  HIT:      27940  MISS:      12153
cpu0_STLB RFO       ACCESS:       8172  HIT:       7852  MISS:        320
cpu0_STLB PREFETCH  ACCESS:          0  HIT:          0  MISS:          0
cpu0_STLB WRITEBACK ACCESS:          0  HIT:          0  MISS:          0
cpu0_L1D TOTAL     ACCESS:   13276156  HIT:   12435687  MISS:     840469
cpu0_L1D LOAD      ACCESS:   10930023  HIT:   10110827  MISS:     819196
cpu0_L1D RFO       ACCESS:    2333660  HIT:    2313196  MISS:      20464
cpu0_L1D PREFETCH  ACCESS:          0  HIT:          0  MISS:          0
cpu0_L1D WRITEBACK ACCESS:          0  HIT:          0  MISS:          0
cpu0_L2C TOTAL     ACCESS:     861244  HIT:      62796  MISS:     798448
cpu0_L2C LOAD      ACCESS:     819196  HIT:      41255  MISS:     777941
cpu0_L2C RFO       ACCESS:      20464  HIT:          0  MISS:      20464
cpu0_L2C PREFETCH  ACCESS:          0  HIT:          0  MISS:          0
cpu0_L2C WRITEBACK ACCESS:      20775  HIT:      20775  MISS:          0
LLC TOTAL     ACCESS:     818918  HIT:      20794  MISS:     798124
LLC LOAD      ACCESS:     777941  HIT:        289  MISS:     777652
LLC RFO       ACCESS:      20464  HIT:          0  MISS:      20464
LLC PREFETCH  ACCESS:          0  HIT:          0  MISS:          0
LLC WRITEBACK ACCESS:      20470  HIT:      20468  MISS:          2
Heartbeat CPU 0 instructions: 94000001 cycles: 142964508 heartbeat IPC: 0.352769 cumulative IPC: 0.352695 (Simulation time: 2 hr 41 min 47 sec) 

Region of Interest Statistics
cpu0_DTLB TOTAL     ACCESS:   13831273  HIT:   13780628  MISS:      50645
cpu0_DTLB LOAD      ACCESS:   12853583  HIT:   12811518  MISS:      42065
cpu0_DTLB RFO       ACCESS:     977690  HIT:     969110  MISS:       8580
cpu0_DTLB PREFETCH  ACCESS:          0  HIT:          0  MISS:          0
cpu0_DTLB WRITEBACK ACCESS:          0  HIT:          0  MISS:          0
cpu0_ITLB TOTAL     ACCESS:    3878210  HIT:    3878210  MISS:          0
cpu0_ITLB LOAD      ACCESS:    3878210  HIT:    3878210  MISS:          0
cpu0_ITLB RFO       ACCESS:          0  HIT:          0  MISS:          0
cpu0_ITLB PREFETCH  ACCESS:          0  HIT:          0  MISS:          0
cpu0_ITLB WRITEBACK ACCESS:          0  HIT:          0  MISS:          0
cpu0_STLB TOTAL     ACCESS:      50645  HIT:      37580  MISS:      13065
cpu0_STLB LOAD      ACCESS:      42065  HIT:      29335  MISS:      12730
cpu0_STLB RFO       ACCESS:       8580  HIT:       8245  MISS:        335
cpu0_STLB PREFETCH  ACCESS:          0  HIT:          0  MISS:          0
cpu0_STLB WRITEBACK ACCESS:          0  HIT:          0  MISS:          0
cpu0_L1D TOTAL     ACCESS:   13908298  HIT:   13027809  MISS:     880489
cpu0_L1D LOAD      ACCESS:   11450436  HIT:   10592235  MISS:     858201
cpu0_L1D RFO       ACCESS:    2444797  HIT:    2423358  MISS:      21439
cpu0_L1D PREFETCH  ACCESS:          0  HIT:          0  MISS:          0
cpu0_L1D WRITEBACK ACCESS:          0  HIT:          0  MISS:          0
cpu0_L2C TOTAL     ACCESS:     902250  HIT:      65793  MISS:     836457
cpu0_L2C LOAD      ACCESS:     858201  HIT:      43228  MISS:     814973
cpu0_L2C RFO       ACCESS:      21439  HIT:          0  MISS:      21439
cpu0_L2C PREFETCH  ACCESS:          0  HIT:          0  MISS:          0
cpu0_L2C WRITEBACK ACCESS:      21761  HIT:      21761  MISS:          0
LLC TOTAL     ACCESS:     857949  HIT:      21824  MISS:     836125
LLC LOAD      ACCESS:     814973  HIT:        295  MISS:     814678
LLC RFO       ACCESS:      21439  HIT:          0  MISS:      21439
LLC PREFETCH  ACCESS:          0  HIT:          0  MISS:          0
LLC WRITEBACK ACCESS:      21492  HIT:      21490  MISS:          2
Heartbeat CPU 0 instructions: 96000002 cycles: 148635764 heartbeat IPC: 0.352656 cumulative IPC: 0.352693 (Simulation time: 2 hr 47 min 17 sec) 

Region of Interest Statistics
cpu0_DTLB TOTAL     ACCESS:   14459856  HIT:   14406829  MISS:      53027
cpu0_DTLB LOAD      ACCESS:   13437749  HIT:   13393715  MISS:      44034
cpu0_DTLB RFO       ACCESS:    1022107  HIT:    1013114  MISS:       8993
cpu0_DTLB PREFETCH  ACCESS:          0  HIT:          0  MISS:          0
cpu0_DTLB WRITEBACK ACCESS:          0  HIT:          0  MISS:          0
cpu0_ITLB TOTAL     ACCESS:    4054461  HIT:    4054461  MISS:          0
cpu0_ITLB LOAD      ACCESS:    4054461  HIT:    4054461  MISS:          0
cpu0_ITLB RFO       ACCESS:          0  HIT:          0  MISS:          0
cpu0_ITLB PREFETCH  ACCESS:          0  HIT:          0  MISS:          0
cpu0_ITLB WRITEBACK ACCESS:          0  HIT:          0  MISS:          0
cpu0_STLB TOTAL     ACCESS:      53027  HIT:      39370  MISS:      13657
cpu0_STLB LOAD      ACCESS:      44034  HIT:      30727  MISS:      13307
cpu0_STLB RFO       ACCESS:       8993  HIT:       8643  MISS:        350
cpu0_STLB PREFETCH  ACCESS:          0  HIT:          0  MISS:          0
cpu0_STLB WRITEBACK ACCESS:          0  HIT:          0  MISS:          0
cpu0_L1D TOTAL     ACCESS:   14540413  HIT:   13619909  MISS:     920504
cpu0_L1D LOAD      ACCESS:   11970847  HIT:   11073640  MISS:     897207
cpu0_L1D RFO       ACCESS:    2555909  HIT:    2533496  MISS:      22413
cpu0_L1D PREFETCH  ACCESS:          0  HIT:          0  MISS:          0
cpu0_L1D WRITEBACK ACCESS:          0  HIT:          0  MISS:          0
cpu0_L2C TOTAL     ACCESS:     943254  HIT:      68792  MISS:     874462
cpu0_L2C LOAD      ACCESS:     897207  HIT:      45205  MISS:     852002
cpu0_L2C RFO       ACCESS:      22413  HIT:          0  MISS:      22413
cpu0_L2C PREFETCH  ACCESS:          0  HIT:          0  MISS:          0
cpu0_L2C WRITEBACK ACCESS:      22750  HIT:      22750  MISS:          0
LLC TOTAL     ACCESS:     896914  HIT:      22786  MISS:     874128
LLC LOAD      ACCESS:     852002  HIT:        295  MISS:     851707
LLC RFO       ACCESS:      22413  HIT:          0  MISS:      22413
LLC PREFETCH  ACCESS:          0  HIT:          0  MISS:          0
LLC WRITEBACK ACCESS:      22452  HIT:      22450  MISS:          2
Heartbeat CPU 0 instructions: 98000000 cycles: 154306873 heartbeat IPC: 0.352664 cumulative IPC: 0.352692 (Simulation time: 2 hr 52 min 54 sec) 

Region of Interest Statistics
cpu0_DTLB TOTAL     ACCESS:   15088558  HIT:   15033147  MISS:      55411
cpu0_DTLB LOAD      ACCESS:   14022018  HIT:   13976006  MISS:      46012
cpu0_DTLB RFO       ACCESS:    1066540  HIT:    1057141  MISS:       9399
cpu0_DTLB PREFETCH  ACCESS:          0  HIT:          0  MISS:          0
cpu0_DTLB WRITEBACK ACCESS:          0  HIT:          0  MISS:          0
cpu0_ITLB TOTAL     ACCESS:    4230751  HIT:    4230751  MISS:          0
cpu0_ITLB LOAD      ACCESS:    4230751  HIT:    4230751  MISS:          0
cpu0_ITLB RFO       ACCESS:          0  HIT:          0  MISS:          0
cpu0_ITLB PREFETCH  ACCESS:          0  HIT:          0  MISS:          0
cpu0_ITLB WRITEBACK ACCESS:          0  HIT:          0  MISS:          0
cpu0_STLB TOTAL     ACCESS:      55411  HIT:      41159  MISS:      14252
cpu0_STLB LOAD      ACCESS:      46012  HIT:      32126  MISS:      13886
cpu0_STLB RFO       ACCESS:       9399  HIT:       9033  MISS:        366
cpu0_STLB PREFETCH  ACCESS:          0  HIT:          0  MISS:          0
cpu0_STLB WRITEBACK ACCESS:          0  HIT:          0  MISS:          0
cpu0_L1D TOTAL     ACCESS:   15172544  HIT:   14212018  MISS:     960526
cpu0_L1D LOAD      ACCESS:   12491257  HIT:   11555040  MISS:     936217
cpu0_L1D RFO       ACCESS:    2667035  HIT:    2643647  MISS:      23388
cpu0_L1D PREFETCH  ACCESS:          0  HIT:          0  MISS:          0
cpu0_L1D WRITEBACK ACCESS:          0  HIT:          0  MISS:          0
cpu0_L2C TOTAL     ACCESS:     984266  HIT:      71790  MISS:     912476
cpu0_L2C LOAD      ACCESS:     936217  HIT:      47176  MISS:     889041
cpu0_L2C RFO       ACCESS:      23388  HIT:          0  MISS:      23388
cpu0_L2C PREFETCH  ACCESS:          0  HIT:          0  MISS:          0
cpu0_L2C WRITEBACK ACCESS:      23740  HIT:      23740  MISS:          0
LLC TOTAL     ACCESS:     935890  HIT:      23754  MISS:     912136
LLC LOAD      ACCESS:     889041  HIT:        301  MISS:     888740
LLC RFO       ACCESS:      23388  HIT:          0  MISS:      23388
LLC PREFETCH  ACCESS:          0  HIT:          0  MISS:          0
LLC WRITEBACK ACCESS:      23414  HIT:      23412  MISS:          2
Heartbeat CPU 0 instructions: 100000002 cycles: 159979111 heartbeat IPC: 0.352595 cumulative IPC: 0.352688 (Simulation time: 2 hr 58 min 36 sec) 

Region of Interest Statistics
cpu0_DTLB TOTAL     ACCESS:   15717302  HIT:   15659503  MISS:      57799
cpu0_DTLB LOAD      ACCESS:   14606326  HIT:   14558335  MISS:      47991
cpu0_DTLB RFO       ACCESS:    1110976  HIT:    1101168  MISS:       9808
cpu0_DTLB PREFETCH  ACCESS:          0  HIT:          0  MISS:          0
cpu0_DTLB WRITEBACK ACCESS:          0  HIT:          0  MISS:          0
cpu0_ITLB TOTAL     ACCESS:    4407163  HIT:    4407163  MISS:          0
cpu0_ITLB LOAD      ACCESS:    4407163  HIT:    4407163  MISS:          0
cpu0_ITLB RFO       ACCESS:          0  HIT:          0  MISS:          0
cpu0_ITLB PREFETCH  ACCESS:          0  HIT:          0  MISS:          0
cpu0_ITLB WRITEBACK ACCESS:          0  HIT:          0  MISS:          0
cpu0_STLB TOTAL     ACCESS:      57799  HIT:      42954  MISS:      14845
cpu0_STLB LOAD      ACCESS:      47991  HIT:      33527  MISS:      14464
cpu0_STLB RFO       ACCESS:       9808  HIT:       9427  MISS:        381
cpu0_STLB PREFETCH  ACCESS:          0  HIT:          0  MISS:          0
cpu0_STLB WRITEBACK ACCESS:          0  HIT:          0  MISS:          0
cpu0_L1D TOTAL     ACCESS:   15805212  HIT:   14804635  MISS:    1000577
cpu0_L1D LOAD      ACCESS:   13012163  HIT:   12036916  MISS:     975247
cpu0_L1D RFO       ACCESS:    2778204  HIT:    2753842  MISS:      24362
cpu0_L1D PREFETCH  ACCESS:          0  HIT:          0  MISS:          0
cpu0_L1D WRITEBACK ACCESS:          0  HIT:          0  MISS:          0
cpu0_L2C TOTAL     ACCESS:    1025311  HIT:      74809  MISS:     950502
cpu0_L2C LOAD      ACCESS:     975247  HIT:      49160  MISS:     926087
cpu0_L2C RFO       ACCESS:      24362  HIT:          0  MISS:      24362
cpu0_L2C PREFETCH  ACCESS:          0  HIT:          0  MISS:          0
cpu0_L2C WRITEBACK ACCESS:      24734  HIT:      24734  MISS:          0
LLC TOTAL     ACCESS:     974916  HIT:      24757  MISS:     950159
LLC LOAD      ACCESS:     926087  HIT:        301  MISS:     925786
LLC RFO       ACCESS:      24362  HIT:          0  MISS:      24362
LLC PREFETCH  ACCESS:          0  HIT:          0  MISS:          0
LLC WRITEBACK ACCESS:      24414  HIT:      24412  MISS:          2
Heartbeat CPU 0 instructions: 102000002 cycles: 165649729 heartbeat IPC: 0.352695 cumulative IPC: 0.352688 (Simulation time: 3 hr 4 min 25 sec) 

Region of Interest Statistics
cpu0_DTLB TOTAL     ACCESS:   16346096  HIT:   16286151  MISS:      59945
cpu0_DTLB LOAD      ACCESS:   15190615  HIT:   15140796  MISS:      49819
cpu0_DTLB RFO       ACCESS:    1155481  HIT:    1145355  MISS:      10126
cpu0_DTLB PREFETCH  ACCESS:          0  HIT:          0  MISS:          0
cpu0_DTLB WRITEBACK ACCESS:          0  HIT:          0  MISS:          0
cpu0_ITLB TOTAL     ACCESS:    4583417  HIT:    4583417  MISS:          0
cpu0_ITLB LOAD      ACCESS:    4583417  HIT:    4583417  MISS:          0
cpu0_ITLB RFO       ACCESS:          0  HIT:          0  MISS:          0
cpu0_ITLB PREFETCH  ACCESS:          0  HIT:          0  MISS:          0
cpu0_ITLB WRITEBACK ACCESS:          0  HIT:          0  MISS:          0
cpu0_STLB TOTAL     ACCESS:      59945  HIT:      44508  MISS:      15437
cpu0_STLB LOAD      ACCESS:      49819  HIT:      34778  MISS:      15041
cpu0_STLB RFO       ACCESS:      10126  HIT:       9730  MISS:        396
cpu0_STLB PREFETCH  ACCESS:          0  HIT:          0  MISS:          0
cpu0_STLB WRITEBACK ACCESS:          0  HIT:          0  MISS:          0
cpu0_L1D TOTAL     ACCESS:   16437308  HIT:   15396708  MISS:    1040600
cpu0_L1D LOAD      ACCESS:   13532556  HIT:   12518302  MISS:    1014254
cpu0_L1D RFO       ACCESS:    2889315  HIT:    2863978  MISS:      25337
cpu0_L1D PREFETCH  ACCESS:          0  HIT:          0  MISS:          0
cpu0_L1D WRITEBACK ACCESS:          0  HIT:          0  MISS:          0
cpu0_L2C TOTAL     ACCESS:    1066324  HIT:      77803  MISS:     988521
cpu0_L2C LOAD      ACCESS:    1014254  HIT:      51125  MISS:     963129
cpu0_L2C RFO       ACCESS:      25337  HIT:          0  MISS:      25337
cpu0_L2C PREFETCH  ACCESS:          0  HIT:          0  MISS:          0
cpu0_L2C WRITEBACK ACCESS:      25724  HIT:      25724  MISS:          0
LLC TOTAL     ACCESS:    1013855  HIT:      25692  MISS:     988163
LLC LOAD      ACCESS:     963129  HIT:        314  MISS:     962815
LLC RFO       ACCESS:      25337  HIT:          0  MISS:      25337
LLC PREFETCH  ACCESS:          0  HIT:          0  MISS:          0
LLC WRITEBACK ACCESS:      25334  HIT:      25332  MISS:          2
Heartbeat CPU 0 instructions: 104000002 cycles: 171319629 heartbeat IPC: 0.35274 cumulative IPC: 0.35269 (Simulation time: 3 hr 10 min 16 sec) 

Region of Interest Statistics
cpu0_DTLB TOTAL     ACCESS:   16974674  HIT:   16912341  MISS:      62333
cpu0_DTLB LOAD      ACCESS:   15774770  HIT:   15722975  MISS:      51795
cpu0_DTLB RFO       ACCESS:    1199904  HIT:    1189366  MISS:      10538
cpu0_DTLB PREFETCH  ACCESS:          0  HIT:          0  MISS:          0
cpu0_DTLB WRITEBACK ACCESS:          0  HIT:          0  MISS:          0
cpu0_ITLB TOTAL     ACCESS:    4759693  HIT:    4759693  MISS:          0
cpu0_ITLB LOAD      ACCESS:    4759693  HIT:    4759693  MISS:          0
cpu0_ITLB RFO       ACCESS:          0  HIT:          0  MISS:          0
cpu0_ITLB PREFETCH  ACCESS:          0  HIT:          0  MISS:          0
cpu0_ITLB WRITEBACK ACCESS:          0  HIT:          0  MISS:          0
cpu0_STLB TOTAL     ACCESS:      62333  HIT:      46304  MISS:      16029
cpu0_STLB LOAD      ACCESS:      51795  HIT:      36177  MISS:      15618
cpu0_STLB RFO       ACCESS:      10538  HIT:      10127  MISS:        411
cpu0_STLB PREFETCH  ACCESS:          0  HIT:          0  MISS:          0
cpu0_STLB WRITEBACK ACCESS:          0  HIT:          0  MISS:          0
cpu0_L1D TOTAL     ACCESS:   17069466  HIT:   15988850  MISS:    1080616
cpu0_L1D LOAD      ACCESS:   14052986  HIT:   12999728  MISS:    1053258
cpu0_L1D RFO       ACCESS:    3000451  HIT:    2974140  MISS:      26311
cpu0_L1D PREFETCH  ACCESS:          0  HIT:          0  MISS:          0
cpu0_L1D WRITEBACK ACCESS:          0  HIT:          0  MISS:          0
cpu0_L2C TOTAL     ACCESS:    1107331  HIT:      80800  MISS:    1026531
cpu0_L2C LOAD      ACCESS:    1053258  HIT:      53095  MISS:    1000163
cpu0_L2C RFO       ACCESS:      26311  HIT:          0  MISS:      26311
cpu0_L2C PREFETCH  ACCESS:          0  HIT:          0  MISS:          0
cpu0_L2C WRITEBACK ACCESS:      26715  HIT:      26715  MISS:          0
LLC TOTAL     ACCESS:    1052904  HIT:      26739  MISS:    1026165
LLC LOAD      ACCESS:    1000163  HIT:        322  MISS:     999841
LLC RFO       ACCESS:      26311  HIT:          0  MISS:      26311
LLC PREFETCH  ACCESS:          0  HIT:          0  MISS:          0
LLC WRITEBACK ACCESS:      26373  HIT:      26369  MISS:          4
Heartbeat CPU 0 instructions: 106000002 cycles: 176990618 heartbeat IPC: 0.352672 cumulative IPC: 0.35269 (Simulation time: 3 hr 15 min 45 sec) 

Region of Interest Statistics
cpu0_DTLB TOTAL     ACCESS:   17603552  HIT:   17539263  MISS:      64289
cpu0_DTLB LOAD      ACCESS:   16359232  HIT:   16305872  MISS:      53360
cpu0_DTLB RFO       ACCESS:    1244320  HIT:    1233391  MISS:      10929
cpu0_DTLB PREFETCH  ACCESS:          0  HIT:          0  MISS:          0
cpu0_DTLB WRITEBACK ACCESS:          0  HIT:          0  MISS:          0
cpu0_ITLB TOTAL     ACCESS:    4935960  HIT:    4935960  MISS:          0
cpu0_ITLB LOAD      ACCESS:    4935960  HIT:    4935960  MISS:          0
cpu0_ITLB RFO       ACCESS:          0  HIT:          0  MISS:          0
cpu0_ITLB PREFETCH  ACCESS:          0  HIT:          0  MISS:          0
cpu0_ITLB WRITEBACK ACCESS:          0  HIT:          0  MISS:          0
cpu0_STLB TOTAL     ACCESS:      64289  HIT:      47666  MISS:      16623
cpu0_STLB LOAD      ACCESS:      53360  HIT:      37163  MISS:      16197
cpu0_STLB RFO       ACCESS:      10929  HIT:      10503  MISS:        426
cpu0_STLB PREFETCH  ACCESS:          0  HIT:          0  MISS:          0
cpu0_STLB WRITEBACK ACCESS:          0  HIT:          0  MISS:          0
cpu0_L1D TOTAL     ACCESS:   17701648  HIT:   16581021  MISS:    1120627
cpu0_L1D LOAD      ACCESS:   14573468  HIT:   13481208  MISS:    1092260
cpu0_L1D RFO       ACCESS:    3111557  HIT:    3084271  MISS:      27286
cpu0_L1D PREFETCH  ACCESS:          0  HIT:          0  MISS:          0
cpu0_L1D WRITEBACK ACCESS:          0  HIT:          0  MISS:          0
cpu0_L2C TOTAL     ACCESS:    1148332  HIT:      83762  MISS:    1064570
cpu0_L2C LOAD      ACCESS:    1092260  HIT:      55034  MISS:    1037226
cpu0_L2C RFO       ACCESS:      27286  HIT:          0  MISS:      27286
cpu0_L2C PREFETCH  ACCESS:          0  HIT:          0  MISS:          0
cpu0_L2C WRITEBACK ACCESS:      27705  HIT:      27705  MISS:          0
LLC TOTAL     ACCESS:    1091906  HIT:      27740  MISS:    1064166
LLC LOAD      ACCESS:    1037226  HIT:        359  MISS:    1036867
LLC RFO       ACCESS:      27286  HIT:          0  MISS:      27286
LLC PREFETCH  ACCESS:          0  HIT:          0  MISS:          0
LLC WRITEBACK ACCESS:      27336  HIT:      27332  MISS:          4
Heartbeat CPU 0 instructions: 108000003 cycles: 182660883 heartbeat IPC: 0.352717 cumulative IPC: 0.352691 (Simulation time: 3 hr 20 min 57 sec) 

Region of Interest Statistics
cpu0_DTLB TOTAL     ACCESS:   18232184  HIT:   18165512  MISS:      66672
cpu0_DTLB LOAD      ACCESS:   16943440  HIT:   16888107  MISS:      55333
cpu0_DTLB RFO       ACCESS:    1288744  HIT:    1277405  MISS:      11339
cpu0_DTLB PREFETCH  ACCESS:          0  HIT:          0  MISS:          0
cpu0_DTLB WRITEBACK ACCESS:          0  HIT:          0  MISS:          0
cpu0_ITLB TOTAL     ACCESS:    5112222  HIT:    5112222  MISS:          0
cpu0_ITLB LOAD      ACCESS:    5112222  HIT:    5112222  MISS:          0
cpu0_ITLB RFO       ACCESS:          0  HIT:          0  MISS:          0
cpu0_ITLB PREFETCH  ACCESS:          0  HIT:          0  MISS:          0
cpu0_ITLB WRITEBACK ACCESS:          0  HIT:          0  MISS:          0
cpu0_STLB TOTAL     ACCESS:      66672  HIT:      49448  MISS:      17224
cpu0_STLB LOAD      ACCESS:      55333  HIT:      38551  MISS:      16782
cpu0_STLB RFO       ACCESS:      11339  HIT:      10897  MISS:        442
cpu0_STLB PREFETCH  ACCESS:          0  HIT:          0  MISS:          0
cpu0_STLB WRITEBACK ACCESS:          0  HIT:          0  MISS:          0
cpu0_L1D TOTAL     ACCESS:   18333832  HIT:   17173184  MISS:    1160648
cpu0_L1D LOAD      ACCESS:   15093916  HIT:   13962647  MISS:    1131269
cpu0_L1D RFO       ACCESS:    3222692  HIT:    3194432  MISS:      28260
cpu0_L1D PREFETCH  ACCESS:          0  HIT:          0  MISS:          0
cpu0_L1D WRITEBACK ACCESS:          0  HIT:          0  MISS:          0
cpu0_L2C TOTAL     ACCESS:    1189343  HIT:      86717  MISS:    1102626
cpu0_L2C LOAD      ACCESS:    1131269  HIT:      56962  MISS:    1074307
cpu0_L2C RFO       ACCESS:      28260  HIT:          0  MISS:      28260
cpu0_L2C PREFETCH  ACCESS:          0  HIT:          0  MISS:          0
cpu0_L2C WRITEBACK ACCESS:      28695  HIT:      28695  MISS:          0
LLC TOTAL     ACCESS:    1130909  HIT:      28740  MISS:    1102169
LLC LOAD      ACCESS:    1074307  HIT:        411  MISS:    1073896
LLC RFO       ACCESS:      28260  HIT:          0  MISS:      28260
LLC PREFETCH  ACCESS:          0  HIT:          0  MISS:          0
LLC WRITEBACK ACCESS:      28283  HIT:      28279  MISS:          4
Heartbeat CPU 0 instructions: 110000003 cycles: 188332719 heartbeat IPC: 0.352619 cumulative IPC: 0.352688 (Simulation time: 3 hr 26 min 24 sec) 

Region of Interest Statistics
cpu0_DTLB TOTAL     ACCESS:   18860887  HIT:   18791814  MISS:      69073
cpu0_DTLB LOAD      ACCESS:   17527716  HIT:   17470391  MISS:      57325
cpu0_DTLB RFO       ACCESS:    1333171  HIT:    1321423  MISS:      11748
cpu0_DTLB PREFETCH  ACCESS:          0  HIT:          0  MISS:          0
cpu0_DTLB WRITEBACK ACCESS:          0  HIT:          0  MISS:          0
cpu0_ITLB TOTAL     ACCESS:    5288520  HIT:    5288520  MISS:          0
cpu0_ITLB LOAD      ACCESS:    5288520  HIT:    5288520  MISS:          0
cpu0_ITLB RFO       ACCESS:          0  HIT:          0  MISS:          0
cpu0_ITLB PREFETCH  ACCESS:          0  HIT:          0  MISS:          0
cpu0_ITLB WRITEBACK ACCESS:          0  HIT:          0  MISS:          0
cpu0_STLB TOTAL     ACCESS:      69073  HIT:      51257  MISS:      17816
cpu0_STLB LOAD      ACCESS:      57325  HIT:      39966  MISS:      17359
cpu0_STLB RFO       ACCESS:      11748  HIT:      11291  MISS:        457
cpu0_STLB PREFETCH  ACCESS:          0  HIT:          0  MISS:          0
cpu0_STLB WRITEBACK ACCESS:          0  HIT:          0  MISS:          0
cpu0_L1D TOTAL     ACCESS:   18965996  HIT:   17765323  MISS:    1200673
cpu0_L1D LOAD      ACCESS:   15614363  HIT:   14444083  MISS:    1170280
cpu0_L1D RFO       ACCESS:    3333817  HIT:    3304582  MISS:      29235
cpu0_L1D PREFETCH  ACCESS:          0  HIT:          0  MISS:          0
cpu0_L1D WRITEBACK ACCESS:          0  HIT:          0  MISS:          0
cpu0_L2C TOTAL     ACCESS:    1230359  HIT:      89721  MISS:    1140638
cpu0_L2C LOAD      ACCESS:    1170280  HIT:      58938  MISS:    1111342
cpu0_L2C RFO       ACCESS:      29235  HIT:          0  MISS:      29235
cpu0_L2C PREFETCH  ACCESS:          0  HIT:          0  MISS:          0
cpu0_L2C WRITEBACK ACCESS:      29686  HIT:      29686  MISS:          0
LLC TOTAL     ACCESS:    1169945  HIT:      29767  MISS:    1140178
LLC LOAD      ACCESS:    1111342  HIT:        412  MISS:    1110930
LLC RFO       ACCESS:      29235  HIT:          0  MISS:      29235
LLC PREFETCH  ACCESS:          0  HIT:          0  MISS:          0
LLC WRITEBACK ACCESS:      29307  HIT:      29303  MISS:          4
Heartbeat CPU 0 instructions: 112000001 cycles: 194004110 heartbeat IPC: 0.352647 cumulative IPC: 0.352687 (Simulation time: 3 hr 31 min 48 sec) 

Region of Interest Statistics
cpu0_DTLB TOTAL     ACCESS:   19489624  HIT:   19418333  MISS:      71291
cpu0_DTLB LOAD      ACCESS:   18111966  HIT:   18052771  MISS:      59195
cpu0_DTLB RFO       ACCESS:    1377658  HIT:    1365562  MISS:      12096
cpu0_DTLB PREFETCH  ACCESS:          0  HIT:          0  MISS:          0
cpu0_DTLB WRITEBACK ACCESS:          0  HIT:          0  MISS:          0
cpu0_ITLB TOTAL     ACCESS:    5464766  HIT:    5464766  MISS:          0
cpu0_ITLB LOAD      ACCESS:    5464766  HIT:    5464766  MISS:          0
cpu0_ITLB RFO       ACCESS:          0  HIT:          0  MISS:          0
cpu0_ITLB PREFETCH  ACCESS:          0  HIT:          0  MISS:          0
cpu0_ITLB WRITEBACK ACCESS:          0  HIT:          0  MISS:          0
cpu0_STLB TOTAL     ACCESS:      71292  HIT:      52884  MISS:      18408
cpu0_STLB LOAD      ACCESS:      59196  HIT:      41260  MISS:      17936
cpu0_STLB RFO       ACCESS:      12096  HIT:      11624  MISS:        472
cpu0_STLB PREFETCH  ACCESS:          0  HIT:          0  MISS:          0
cpu0_STLB WRITEBACK ACCESS:          0  HIT:          0  MISS:          0
cpu0_L1D TOTAL     ACCESS:   19598130  HIT:   18357429  MISS:    1240701
cpu0_L1D LOAD      ACCESS:   16134766  HIT:   14925472  MISS:    1209294
cpu0_L1D RFO       ACCESS:    3444956  HIT:    3414747  MISS:      30209
cpu0_L1D PREFETCH  ACCESS:          0  HIT:          0  MISS:          0
cpu0_L1D WRITEBACK ACCESS:          0  HIT:          0  MISS:          0
cpu0_L2C TOTAL     ACCESS:    1271372  HIT:      92689  MISS:    1178683
cpu0_L2C LOAD      ACCESS:    1209294  HIT:      60884  MISS:    1148410
cpu0_L2C RFO       ACCESS:      30209  HIT:          0  MISS:      30209
cpu0_L2C PREFETCH  ACCESS:          0  HIT:          0  MISS:          0
cpu0_L2C WRITEBACK ACCESS:      30671  HIT:      30671  MISS:          0
LLC TOTAL     ACCESS:    1208884  HIT:      30697  MISS:    1178187
LLC LOAD      ACCESS:    1148410  HIT:        445  MISS:    1147965
LLC RFO       ACCESS:      30209  HIT:          0  MISS:      30209
LLC PREFETCH  ACCESS:          0  HIT:          0  MISS:          0
LLC WRITEBACK ACCESS:      30201  HIT:      30197  MISS:          4
Heartbeat CPU 0 instructions: 114000002 cycles: 199674354 heartbeat IPC: 0.352719 cumulative IPC: 0.352688 (Simulation time: 3 hr 37 min 26 sec) 

Region of Interest Statistics
cpu0_DTLB TOTAL     ACCESS:   20118331  HIT:   20044738  MISS:      73593
cpu0_DTLB LOAD      ACCESS:   18696218  HIT:   18635098  MISS:      61120
cpu0_DTLB RFO       ACCESS:    1422113  HIT:    1409640  MISS:      12473
cpu0_DTLB PREFETCH  ACCESS:          0  HIT:          0  MISS:          0
cpu0_DTLB WRITEBACK ACCESS:          0  HIT:          0  MISS:          0
cpu0_ITLB TOTAL     ACCESS:    5641042  HIT:    5641042  MISS:          0
cpu0_ITLB LOAD      ACCESS:    5641042  HIT:    5641042  MISS:          0
cpu0_ITLB RFO       ACCESS:          0  HIT:          0  MISS:          0
cpu0_ITLB PREFETCH  ACCESS:          0  HIT:          0  MISS:          0
cpu0_ITLB WRITEBACK ACCESS:          0  HIT:          0  MISS:          0
cpu0_STLB TOTAL     ACCESS:      73593  HIT:      54592  MISS:      19001
cpu0_STLB LOAD      ACCESS:      61120  HIT:      42606  MISS:      18514
cpu0_STLB RFO       ACCESS:      12473  HIT:      11986  MISS:        487
cpu0_STLB PREFETCH  ACCESS:          0  HIT:          0  MISS:          0
cpu0_STLB WRITEBACK ACCESS:          0  HIT:          0  MISS:          0
cpu0_L1D TOTAL     ACCESS:   20230303  HIT:   18949587  MISS:    1280716
cpu0_L1D LOAD      ACCESS:   16655236  HIT:   15406939  MISS:    1248297
cpu0_L1D RFO       ACCESS:    3556066  HIT:    3524883  MISS:      31183
cpu0_L1D PREFETCH  ACCESS:          0  HIT:          0  MISS:          0
cpu0_L1D WRITEBACK ACCESS:          0  HIT:          0  MISS:          0
cpu0_L2C TOTAL     ACCESS:    1312370  HIT:      95684  MISS:    1216686
cpu0_L2C LOAD      ACCESS:    1248297  HIT:      62861  MISS:    1185436
cpu0_L2C RFO       ACCESS:      31183  HIT:          0  MISS:      31183
cpu0_L2C PREFETCH  ACCESS:          0  HIT:          0  MISS:          0
cpu0_L2C WRITEBACK ACCESS:      31654  HIT:      31654  MISS:          0
LLC TOTAL     ACCESS:    1247913  HIT:      31725  MISS:    1216188
LLC LOAD      ACCESS:    1185436  HIT:        445  MISS:    1184991
LLC RFO       ACCESS:      31183  HIT:          0  MISS:      31183
LLC PREFETCH  ACCESS:          0  HIT:          0  MISS:          0
LLC WRITEBACK ACCESS:      31227  HIT:      31223  MISS:          4
Heartbeat CPU 0 instructions: 116000001 cycles: 205344540 heartbeat IPC: 0.352722 cumulative IPC: 0.352689 (Simulation time: 3 hr 42 min 47 sec) 

Region of Interest Statistics
cpu0_DTLB TOTAL     ACCESS:   20746941  HIT:   20670960  MISS:      75981
cpu0_DTLB LOAD      ACCESS:   19280417  HIT:   19217323  MISS:      63094
[...]
cpu0_DTLB LOAD      ACCESS:  437608134  HIT:  436176843  MISS:    1431291
cpu0_DTLB RFO       ACCESS:   33287388  HIT:   32995131  MISS:     292257
cpu0_DTLB PREFETCH  ACCESS:          0  HIT:          0  MISS:          0
cpu0_DTLB WRITEBACK ACCESS:          0  HIT:          0  MISS:          0
cpu0_ITLB TOTAL     ACCESS:  132041270  HIT:  132041270  MISS:          0
cpu0_ITLB LOAD      ACCESS:  132041270  HIT:  132041270  MISS:          0
cpu0_ITLB RFO       ACCESS:          0  HIT:          0  MISS:          0
cpu0_ITLB PREFETCH  ACCESS:          0  HIT:          0  MISS:          0
cpu0_ITLB WRITEBACK ACCESS:          0  HIT:          0  MISS:          0
cpu0_STLB TOTAL     ACCESS:    1723548  HIT:    1278775  MISS:     444773
cpu0_STLB LOAD      ACCESS:    1431291  HIT:     997923  MISS:     433368
cpu0_STLB RFO       ACCESS:     292257  HIT:     280852  MISS:      11405
cpu0_STLB PREFETCH  ACCESS:          0  HIT:          0  MISS:          0
cpu0_STLB WRITEBACK ACCESS:          0  HIT:          0  MISS:          0
cpu0_L1D TOTAL     ACCESS:  473516548  HIT:  443534506  MISS:   29982042
cpu0_L1D LOAD      ACCESS:  389837477  HIT:  360619567  MISS:   29217910
cpu0_L1D RFO       ACCESS:   83234293  HIT:   82504402  MISS:     729891
cpu0_L1D PREFETCH  ACCESS:          0  HIT:          0  MISS:          0
cpu0_L1D WRITEBACK ACCESS:          0  HIT:          0  MISS:          0
cpu0_L2C TOTAL     ACCESS:   30723001  HIT:    2248926  MISS:   28474075
cpu0_L2C LOAD      ACCESS:   29217910  HIT:    1474411  MISS:   27743499
cpu0_L2C RFO       ACCESS:     729891  HIT:          0  MISS:     729891
cpu0_L2C PREFETCH  ACCESS:          0  HIT:          0  MISS:          0
cpu0_L2C WRITEBACK ACCESS:     740959  HIT:     740959  MISS:          0
LLC TOTAL     ACCESS:   29204309  HIT:     737742  MISS:   28466567
LLC LOAD      ACCESS:   27743499  HIT:       7402  MISS:   27736097
LLC RFO       ACCESS:     729891  HIT:          0  MISS:     729891
LLC PREFETCH  ACCESS:          0  HIT:          0  MISS:          0
LLC WRITEBACK ACCESS:     730234  HIT:     730139  MISS:         95
Heartbeat CPU 0 instructions: 1550000003 cycles: 4271400227 heartbeat IPC: 0.352589 cumulative IPC: 0.352677 (Simulation time: 27 hr 7 min 4 sec) 

Region of Interest Statistics
cpu0_DTLB TOTAL     ACCESS:  471524383  HIT:  469798681  MISS:    1725702
cpu0_DTLB LOAD      ACCESS:  438192489  HIT:  436759364  MISS:    1433125
cpu0_DTLB RFO       ACCESS:   33331894  HIT:   33039317  MISS:     292577
cpu0_DTLB PREFETCH  ACCESS:          0  HIT:          0  MISS:          0
cpu0_DTLB WRITEBACK ACCESS:          0  HIT:          0  MISS:          0
cpu0_ITLB TOTAL     ACCESS:  132217538  HIT:  132217538  MISS:          0
cpu0_ITLB LOAD      ACCESS:  132217538  HIT:  132217538  MISS:          0
cpu0_ITLB RFO       ACCESS:          0  HIT:          0  MISS:          0
cpu0_ITLB PREFETCH  ACCESS:          0  HIT:          0  MISS:          0
cpu0_ITLB WRITEBACK ACCESS:          0  HIT:          0  MISS:          0
cpu0_STLB TOTAL     ACCESS:    1725702  HIT:    1280329  MISS:     445373
cpu0_STLB LOAD      ACCESS:    1433125  HIT:     999172  MISS:     433953
cpu0_STLB RFO       ACCESS:     292577  HIT:     281157  MISS:      11420
cpu0_STLB PREFETCH  ACCESS:          0  HIT:          0  MISS:          0
cpu0_STLB WRITEBACK ACCESS:          0  HIT:          0  MISS:          0
cpu0_L1D TOTAL     ACCESS:  474148753  HIT:  444126681  MISS:   30022072
cpu0_L1D LOAD      ACCESS:  390357960  HIT:  361101028  MISS:   29256932
cpu0_L1D RFO       ACCESS:   83345420  HIT:   82614555  MISS:     730865
cpu0_L1D PREFETCH  ACCESS:          0  HIT:          0  MISS:          0
cpu0_L1D WRITEBACK ACCESS:          0  HIT:          0  MISS:          0
cpu0_L2C TOTAL     ACCESS:   30764017  HIT:    2251923  MISS:   28512094
cpu0_L2C LOAD      ACCESS:   29256932  HIT:    1476390  MISS:   27780542
cpu0_L2C RFO       ACCESS:     730865  HIT:          0  MISS:     730865
cpu0_L2C PREFETCH  ACCESS:          0  HIT:          0  MISS:          0
cpu0_L2C WRITEBACK ACCESS:     741945  HIT:     741945  MISS:          0
LLC TOTAL     ACCESS:   29243225  HIT:     738639  MISS:   28504586
LLC LOAD      ACCESS:   27780542  HIT:       7402  MISS:   27773140
LLC RFO       ACCESS:     730865  HIT:          0  MISS:     730865
LLC PREFETCH  ACCESS:          0  HIT:          0  MISS:          0
LLC WRITEBACK ACCESS:     731131  HIT:     731036  MISS:         95
Finished CPU 0 instructions: 1500000003 cycles: 4253189380 cumulative IPC: 0.352677 (Simulation time: 27 hr 7 min 4 sec) 

ChampSim completed all CPUs

Region of Interest Statistics

CPU 0 cumulative IPC: 0.352677 instructions: 1500000003 cycles: 4253189380
cpu0_DTLB TOTAL     ACCESS:  471524384  HIT:  469798682  MISS:    1725702
cpu0_DTLB LOAD      ACCESS:  438192490  HIT:  436759365  MISS:    1433125
cpu0_DTLB RFO       ACCESS:   33331894  HIT:   33039317  MISS:     292577
cpu0_DTLB PREFETCH  ACCESS:          0  HIT:          0  MISS:          0
cpu0_DTLB WRITEBACK ACCESS:          0  HIT:          0  MISS:          0
cpu0_DTLB TRANSLATION ACCESS:          0  HIT:          0  MISS:          0
cpu0_DTLB PREFETCH  REQUESTED:          0  ISSUED:          0  USEFUL:          0  USELESS:          0
cpu0_DTLB AVERAGE MISS LATENCY: 74.5395 cycles
cpu0_ITLB TOTAL     ACCESS:  132217538  HIT:  132217538  MISS:          0
cpu0_ITLB LOAD      ACCESS:  132217538  HIT:  132217538  MISS:          0
cpu0_ITLB RFO       ACCESS:          0  HIT:          0  MISS:          0
cpu0_ITLB PREFETCH  ACCESS:          0  HIT:          0  MISS:          0
cpu0_ITLB WRITEBACK ACCESS:          0  HIT:          0  MISS:          0
cpu0_ITLB TRANSLATION ACCESS:          0  HIT:          0  MISS:          0
cpu0_ITLB PREFETCH  REQUESTED:          0  ISSUED:          0  USEFUL:          0  USELESS:          0
cpu0_ITLB AVERAGE MISS LATENCY: -nan cycles
cpu0_STLB TOTAL     ACCESS:    1725702  HIT:    1280329  MISS:     445373
cpu0_STLB LOAD      ACCESS:    1433125  HIT:     999172  MISS:     433953
cpu0_STLB RFO       ACCESS:     292577  HIT:     281157  MISS:      11420
cpu0_STLB PREFETCH  ACCESS:          0  HIT:          0  MISS:          0
cpu0_STLB WRITEBACK ACCESS:          0  HIT:          0  MISS:          0
cpu0_STLB TRANSLATION ACCESS:          0  HIT:          0  MISS:          0
cpu0_STLB PREFETCH  REQUESTED:          0  ISSUED:          0  USEFUL:          0  USELESS:          0
cpu0_STLB AVERAGE MISS LATENCY: 253.161 cycles
cpu0_L1D TOTAL     ACCESS:  474148754  HIT:  444126682  MISS:   30022072
cpu0_L1D LOAD      ACCESS:  390357960  HIT:  361101028  MISS:   29256932
cpu0_L1D RFO       ACCESS:   83345421  HIT:   82614556  MISS:     730865
cpu0_L1D PREFETCH  ACCESS:          0  HIT:          0  MISS:          0
cpu0_L1D WRITEBACK ACCESS:          0  HIT:          0  MISS:          0
cpu0_L1D TRANSLATION ACCESS:     445373  HIT:     411098  MISS:      34275
cpu0_L1D PREFETCH  REQUESTED:          0  ISSUED:          0  USEFUL:          0  USELESS:          0
cpu0_L1D AVERAGE MISS LATENCY: 1152.31 cycles
cpu0_L2C TOTAL     ACCESS:   30764017  HIT:    2251923  MISS:   28512094
cpu0_L2C LOAD      ACCESS:   29256932  HIT:    1476390  MISS:   27780542
cpu0_L2C RFO       ACCESS:     730865  HIT:          0  MISS:     730865
cpu0_L2C PREFETCH  ACCESS:          0  HIT:          0  MISS:          0
cpu0_L2C WRITEBACK ACCESS:     741945  HIT:     741945  MISS:          0
cpu0_L2C TRANSLATION ACCESS:      34275  HIT:      33588  MISS:        687
cpu0_L2C PREFETCH  REQUESTED:          0  ISSUED:          0  USEFUL:          0  USELESS:          0
cpu0_L2C AVERAGE MISS LATENCY: 1201.3 cycles
LLC TOTAL     ACCESS:   29243225  HIT:     738639  MISS:   28504586
LLC LOAD      ACCESS:   27780542  HIT:       7402  MISS:   27773140
LLC RFO       ACCESS:     730865  HIT:          0  MISS:     730865
LLC PREFETCH  ACCESS:          0  HIT:          0  MISS:          0
LLC WRITEBACK ACCESS:     731131  HIT:     731036  MISS:         95
LLC TRANSLATION ACCESS:        687  HIT:        201  MISS:        486
LLC PREFETCH  REQUESTED:          0  ISSUED:          0  USEFUL:          0  USELESS:          0
LLC AVERAGE MISS LATENCY: 1180.61 cycles
~~~~~~~~~~Reuse Distance Profiler output~~~~~~~~~~
0	40495584	4276512
1	13613968	6486864
2	11196992	6003536
3	11587120	9405648
4	12569008	9464048
5	9960160	8346416
6	13739968	10288432
7	22028048	17872064
8	13998448	12373808
9	14372064	13669104
10	12237488	12119600
11	11145728	10730112
12	11255504	10739152
13	10006576	7724112
14	9472464	8180112
15	10637216	8807888
16	13008768	12657392
17	9129008	8221328
18	7033952	6381136
19	5439760	5135072
20	4928160	4713392
21	2861232	2715152
22	4681520	4405344
23	3511360	3174208
24	3396144	3183904
25	3761984	3741120
26	2712192	2580880
27	3375552	3366016
28	3580688	3424544
29	2436384	2281360
30	2164992	2154960
31	1906544	1896896
32	2324144	2319728
33	2045712	2035200
34	1194384	1046192
35	2271728	1853776
36	1504320	1104688
37	2754896	2579472
38	1938048	1392032
39	2971296	2279760
40	3112800	3053024
41	2045360	1847424
42	1864576	1442192
43	1117328	948464
44	1197248	1065216
45	1132768	971408
46	1970944	1692816
47	1290448	1011856
48	2387344	2240224
49	2000928	1985776
50	976608	833184
51	572736	549488
52	1084704	943056
53	1113696	977312
54	696864	683328
55	1520112	1378496
56	1695632	1677840
57	1969552	1952512
58	2907408	2892288
59	3333120	3070720
60	2336224	2200144
61	2155440	2144768
62	2577424	2292944
63	3025472	3021360
64	5133120	4971056
66	5678352	5387920
68	6978352	6415056
70	8769584	8600400
72	9590400	9067824
74	6850832	6832960
76	6869392	6743488
78	7985536	7802192
80	7917408	7607968
82	7671184	7496224
84	4899104	4844416
86	4583104	4407424
88	2819088	2634944
90	3151136	3002192
92	1301136	1140992
94	1081568	826768
96	1470112	1437728
98	2023184	1749296
100	983264	853984
102	458832	318896
104	47904	46832
106	281488	280176
108	23600	23280
110	165312	160688
112	6128	6128
114	11904	11904
116	2480	2480
118	304	304
120	576	576
122	624	624
124	0	0
126	2144	2144
128	5824	5792
132	528	528
136	5328	5328
140	176	176
144	0	0
148	0	0
152	240	240
156	224	224
160	176	176
164	5120	5120
168	0	0
172	0	0
176	0	0
180	0	0
184	0	0
188	0	0
192	0	0
196	0	0
200	0	0
204	0	0
208	0	0
212	0	0
216	0	0
220	0	0
224	0	0
228	0	0
232	0	0
236	0	0
240	0	0
244	0	0
248	0	0
252	0	0
256	0	0
264	0	0
272	0	0
280	0	0
288	0	0
296	0	0
304	0	0
312	0	0
320	0	0
328	496	496
336	1888	1888
344	144800	144800
352	34384	34384
360	369392	369392
368	373376	373376
376	618240	618240
384	362464	362464
392	153296	153296
400	266032	266032
408	5648	5648
416	0	0
424	64	64
432	0	0
440	0	0
448	0	0
456	0	0
464	288	288
472	32160	32160
480	35056	35056
488	8544	8544
496	816	816
504	0	0
512	0	0
528	0	0
544	0	0
560	0	0
576	0	0
592	0	0
608	0	0
624	0	0
640	0	0
656	0	0
672	0	0
688	0	0
704	0	0
720	0	0
736	0	0
752	0	0
768	0	0
784	0	0
800	0	0
816	0	0
832	0	0
848	0	0
864	0	0
880	0	0
896	0	0
912	0	0
928	0	0
944	0	0
960	0	0
976	0	0
992	0	0
1008	0	0
1024	0	0
1056	0	0
1088	0	0
1120	0	0
1152	0	0
1184	0	0
1216	0	0
1248	0	0
1280	0	0
1312	0	0
1344	0	0
1376	0	0
1408	0	0
1440	0	0
1472	0	0
1504	0	0
1536	0	0
1568	0	0
1600	0	0
1632	0	0
1664	0	0
1696	0	0
1728	0	0
1760	0	0
1792	0	0
1824	0	0
1856	0	0
1888	0	0
1920	0	0
1952	0	0
1984	0	0
2016	0	0
2048	0	0
2112	0	0
2176	0	0
2240	0	0
2304	0	0
2368	0	0
2432	0	0
2496	0	0
2560	0	0
2624	0	0
2688	0	0
2752	0	0
2816	0	0
2880	0	0
2944	0	0
3008	0	0
3072	0	0
3136	0	0
3200	0	0
3264	0	0
3328	0	0
3392	0	0
3456	0	0
3520	0	0
3584	0	0
3648	0	0
3712	0	0
3776	0	0
3840	0	0
3904	0	0
3968	0	0
4032	0	0
4096	0	0
4224	0	0
4352	0	0
4480	0	0
4608	0	0
4736	0	0
4864	0	0
4992	0	0
5120	0	0
5248	0	0
5376	0	0
5504	0	0
5632	0	0
5760	0	0
5888	0	0
6016	0	0
6144	0	0
6272	0	0
6400	0	0
6528	0	0
6656	0	0
6784	0	0
6912	0	0
7040	0	0
7168	0	0
7296	0	0
7424	0	0
7552	0	0
7680	0	0
7808	0	0
7936	0	0
8064	0	0
8192	0	0
8448	0	0
8704	0	0
8960	0	0
9216	0	0
9472	0	0
9728	0	0
9984	0	0
10240	0	0
10496	0	0
10752	0	0
11008	0	0
11264	0	0
11520	0	0
11776	0	0
12032	0	0
12288	0	0
12544	0	0
12800	0	0
13056	0	0
13312	0	0
13568	0	0
13824	0	0
14080	0	0
14336	0	0
14592	0	0
14848	0	0
15104	0	0
15360	0	0
15616	0	0
15872	0	0
16128	0	0
16384	0	0
16896	0	0
17408	0	0
17920	0	0
18432	0	0
18944	0	0
19456	0	0
19968	0	0
20480	0	0
20992	0	0
21504	0	0
22016	0	0
22528	0	0
23040	0	0
23552	0	0
24064	0	0
24576	0	0
25088	0	0
25600	0	0
26112	0	0
26624	0	0
27136	0	0
27648	0	0
28160	0	0
28672	0	0
29184	0	0
29696	0	0
30208	0	0
30720	0	0
31232	0	0
31744	0	0
32256	0	0
32768	0	0
33792	0	0
34816	0	0
35840	0	0
36864	0	0
37888	0	0
38912	0	0
39936	0	0
40960	0	0
41984	1440240	1440240
43008	36416	36416
44032	0	0
45056	16	16
46080	32	32
47104	0	0
48128	16	16
49152	32	32
50176	0	0
51200	0	0
52224	19632	19632
53248	28800	28800
54272	688	688
55296	0	0
56320	0	0
57344	0	0
58368	0	0
59392	0	0
60416	0	0
61440	0	0
62464	0	0
63488	0	0
64512	0	0
65536	0	0
67584	0	0
69632	0	0
71680	0	0
73728	0	0
75776	0	0
77824	0	0
79872	0	0
81920	0	0
83968	0	0
86016	0	0
88064	0	0
90112	0	0
92160	0	0
94208	0	0
96256	0	0
98304	0	0
100352	0	0
102400	0	0
104448	0	0
106496	0	0
108544	0	0
110592	0	0
112640	0	0
114688	0	0
116736	0	0
118784	0	0
120832	0	0
122880	0	0
124928	0	0
126976	0	0
129024	0	0
131072	0	0
135168	0	0
139264	0	0
143360	0	0
147456	0	0
151552	0	0
155648	0	0
159744	0	0
163840	0	0
167936	0	0
172032	0	0
176128	0	0
180224	0	0
184320	0	0
188416	0	0
192512	0	0
196608	0	0
200704	0	0
204800	0	0
208896	0	0
212992	0	0
217088	0	0
221184	0	0
225280	0	0
229376	0	0
233472	0	0
237568	0	0
241664	0	0
245760	0	0
249856	0	0
253952	0	0
258048	0	0
262144	0	0
270336	0	0
278528	0	0
286720	0	0
294912	0	0
303104	0	0
311296	0	0
319488	0	0
327680	0	0
335872	0	0
344064	0	0
352256	0	0
360448	0	0
368640	0	0
376832	0	0
385024	0	0
393216	0	0
401408	0	0
409600	0	0
417792	0	0
425984	0	0
434176	0	0
442368	0	0
450560	0	0
458752	0	0
466944	0	0
475136	0	0
483328	0	0
491520	0	0
499712	0	0
507904	0	0
516096	0	0
524288	0	0
540672	0	0
557056	0	0
573440	0	0
589824	0	0
606208	0	0
622592	0	0
638976	0	0
655360	0	0
671744	0	0
688128	0	0
704512	0	0
720896	0	0
737280	0	0
753664	0	0
770048	0	0
786432	0	0
802816	0	0
819200	0	0
835584	0	0
851968	0	0
868352	0	0
884736	0	0
901120	0	0
917504	0	0
933888	0	0
950272	0	0
966656	0	0
983040	0	0
999424	0	0
1015808	0	0
1032192	0	0
1048576	0	0
1081344	0	0
1114112	0	0
1146880	0	0
1179648	0	0
1212416	0	0
1245184	0	0
1277952	0	0
1310720	0	0
1343488	0	0
1376256	0	0
1409024	0	0
1441792	0	0
1474560	0	0
1507328	0	0
1540096	0	0
1572864	0	0
1605632	0	0
1638400	0	0
1671168	0	0
1703936	0	0
1736704	0	0
1769472	0	0
1802240	0	0
1835008	0	0
1867776	0	0
1900544	0	0
1933312	0	0
1966080	0	0
1998848	0	0
2031616	0	0
2064384	0	0
2097152	0	0
2162688	0	0
2228224	0	0
2293760	0	0
2359296	0	0
2424832	0	0
2490368	0	0
2555904	0	0
2621440	0	0
2686976	0	0
2752512	0	0
2818048	0	0
2883584	0	0
2949120	0	0
3014656	0	0
3080192	0	0
3145728	0	0
3211264	0	0
3276800	0	0
3342336	0	0
3407872	0	0
3473408	0	0
3538944	0	0
3604480	0	0
3670016	0	0
3735552	0	0
3801088	0	0
3866624	0	0
3932160	0	0
3997696	0	0
4063232	0	0
4128768	0	0
4194304	0	0
4325376	0	0
4456448	0	0
4587520	0	0
4718592	0	0
4849664	0	0
4980736	0	0
5111808	0	0
5242880	0	0
5373952	0	0
5505024	0	0
5636096	1448912	1448912
5767168	1952	1952
5898240	1584	1584
6029312	1424	1424
6160384	1600	1600
6291456	1456	1456
6422528	1520	1520
6553600	1632	1632
6684672	1584	1584
6815744	1520	1520
6946816	1936	1936
7077888	31104	31104
7208960	0	0
7340032	0	0
7471104	0	0
7602176	0	0
7733248	0	0
7864320	0	0
7995392	0	0
8126464	0	0
8257536	0	0
8388608	0	0
8650752	0	0
8912896	0	0
9175040	0	0
9437184	0	0
9699328	0	0
9961472	0	0
10223616	0	0
10485760	0	0
10747904	0	0
11010048	0	0
11272192	0	0
11534336	0	0
11796480	0	0
12058624	0	0
12320768	0	0
12582912	0	0
12845056	0	0
13107200	0	0
13369344	0	0
13631488	0	0
13893632	0	0
14155776	0	0
14417920	0	0
14680064	0	0
14942208	0	0
15204352	0	0
15466496	0	0
15728640	0	0
15990784	0	0
16252928	0	0
16515072	0	0
16777216	0	0
17301504	0	0
17825792	0	0
18350080	0	0
18874368	0	0
19398656	0	0
19922944	0	0
20447232	0	0
20971520	0	0
21495808	0	0
22020096	0	0
22544384	0	0
23068672	0	0
23592960	0	0
24117248	0	0
24641536	0	0
25165824	0	0
25690112	0	0
26214400	0	0
26738688	0	0
27262976	0	0
27787264	0	0
28311552	0	0
28835840	0	0
29360128	0	0
29884416	0	0
30408704	0	0
30932992	0	0
31457280	0	0
31981568	0	0
32505856	0	0
33030144	0	0
33554432	0	0
34603008	0	0
35651584	0	0
36700160	0	0
37748736	0	0
38797312	0	0
39845888	0	0
40894464	0	0
41943040	0	0
42991616	0	0
44040192	0	0
45088768	0	0
46137344	0	0
47185920	0	0
48234496	0	0
49283072	0	0
50331648	0	0
51380224	0	0
52428800	0	0
53477376	0	0
54525952	0	0
55574528	0	0
56623104	0	0
57671680	0	0
58720256	0	0
59768832	0	0
60817408	0	0
61865984	0	0
62914560	0	0
63963136	0	0
65011712	0	0
66060288	0	0
67108864	0	0
69206016	0	0
71303168	0	0
73400320	0	0
75497472	0	0
77594624	0	0
79691776	0	0
81788928	0	0
83886080	0	0
85983232	0	0
88080384	0	0
90177536	0	0
92274688	0	0
94371840	0	0
96468992	0	0
98566144	0	0
100663296	0	0
102760448	0	0
104857600	0	0
106954752	0	0
109051904	0	0
111149056	0	0
113246208	0	0
115343360	0	0
117440512	0	0
119537664	0	0
121634816	0	0
123731968	0	0
125829120	0	0
127926272	0	0
130023424	0	0
132120576	0	0
134217728	0	0
138412032	0	0
142606336	0	0
146800640	0	0
150994944	0	0
155189248	0	0
159383552	0	0
163577856	0	0
167772160	0	0
171966464	0	0
176160768	0	0
180355072	0	0
184549376	0	0
188743680	0	0
192937984	0	0
197132288	0	0
201326592	0	0
205520896	0	0
209715200	0	0
213909504	0	0
218103808	0	0
222298112	0	0
226492416	0	0
230686720	0	0
234881024	0	0
239075328	0	0
243269632	0	0
247463936	0	0
251658240	0	0
255852544	0	0
260046848	0	0
264241152	0	0
268435456	0	0
276824064	0	0
285212672	0	0
293601280	0	0
301989888	0	0
310378496	0	0
318767104	0	0
327155712	0	0
335544320	0	0
343932928	0	0
352321536	0	0
360710144	0	0
369098752	0	0
377487360	0	0
385875968	0	0
394264576	0	0
402653184	0	0
411041792	0	0
419430400	0	0
427819008	0	0
436207616	0	0
444596224	0	0
452984832	0	0
461373440	0	0
469762048	0	0
478150656	0	0
486539264	0	0
494927872	0	0
503316480	0	0
511705088	0	0
520093696	0	0
528482304	0	0
536870912	0	0
553648128	0	0
570425344	0	0
587202560	0	0
603979776	0	0
620756992	0	0
637534208	0	0
654311424	0	0
671088640	0	0
687865856	0	0
704643072	0	0
721420288	0	0
738197504	0	0
754974720	0	0
771751936	0	0
788529152	0	0
805306368	0	0
822083584	0	0
838860800	0	0
855638016	0	0
872415232	0	0
889192448	0	0
905969664	0	0
922746880	0	0
939524096	0	0
956301312	0	0
973078528	0	0
989855744	0	0
1006632960	0	0
1023410176	0	0
1040187392	0	0
1056964608	0	0
1073741824	0	0
1107296256	0	0
1140850688	0	0
1174405120	0	0
1207959552	0	0
1241513984	0	0
1275068416	0	0
1308622848	0	0
1342177280	0	0
1375731712	0	0
1409286144	0	0
1442840576	0	0
1476395008	0	0
1509949440	0	0
1543503872	0	0
1577058304	0	0
1610612736	0	0
1644167168	0	0
1677721600	0	0
1711276032	0	0
1744830464	0	0
1778384896	0	0
1811939328	0	0
1845493760	0	0
1879048192	0	0
1912602624	0	0
1946157056	0	0
1979711488	0	0
2013265920	0	0
2046820352	0	0
2080374784	0	0
2113929216	0	0
2147483648	0	0
2214592512	0	0
2281701376	0	0
2348810240	0	0
2415919104	0	0
2483027968	0	0
2550136832	0	0
2617245696	0	0
2684354560	0	0
2751463424	0	0
2818572288	0	0
2885681152	0	0
2952790016	0	0
3019898880	0	0
3087007744	0	0
3154116608	0	0
3221225472	0	0
3288334336	0	0
3355443200	0	0
3422552064	0	0
3489660928	0	0
3556769792	0	0
3623878656	0	0
3690987520	0	0
3758096384	0	0
3825205248	0	0
3892314112	0	0
3959422976	0	0
4026531840	0	0
4093640704	0	0
4160749568	0	0
4227858432	0	0
~~~~~~~~~~Reuse Distance Profiler output end~~~~~~~~~~

Sampler size:1747361

DRAM Statistics
 CHANNEL 0
 RQ ROW_BUFFER_HIT:       1689  ROW_BUFFER_MISS:   28502802
 DBUS AVG_CONGESTED_CYCLE:    3.99988
 WQ ROW_BUFFER_HIT:     173772  ROW_BUFFER_MISS:     557279  FULL:          0


CPU 0 Branch Prediction Accuracy: 62.4636% MPKI: 9.36962 Average ROB Occupancy at Mispredict: 291.138
Branch type MPKI
BRANCH_DIRECT_JUMP: 0
BRANCH_INDIRECT: 0
BRANCH_CONDITIONAL: 9.36962
BRANCH_DIRECT_CALL: 0
BRANCH_INDIRECT_CALL: 0
BRANCH_RETURN: 0

