
*** ChampSim Multicore Out-of-Order Simulator ***

Warmup Instructions: 50000000
Simulation Instructions: 1500000000
Number of CPUs: 1
Off-chip DRAM Size: 4 GiB Channels: 1 Width: 64-bit Data Rate: 3200 MT/s

VirtualMemory physical capacity: 8588881920 num_ppages: 2096895
VirtualMemory page size: 4096 log2_page_size: 12

CPU 0 runs /s/traces/champsim_traces/607.cactuBSSN_s-3477B.champsimtrace.xz
CPU 0 Bimodal branch predictor
Basic BTB sets: 1024 ways: 8 indirect buffer size: 4096 RAS size: 64
Initializing LRU.
Initializing LRU.
Initializing LRU.
Initializing LRU.
Initializing rdLRU.
Initializing LRU.
Initializing LRU.
Heartbeat CPU 0 instructions: 2000000 cycles: 748534 heartbeat IPC: 2.67189 cumulative IPC: 2.67189 (Simulation time: 0 hr 1 min 43 sec) 
Heartbeat CPU 0 instructions: 4000003 cycles: 1497035 heartbeat IPC: 2.67201 cumulative IPC: 2.67195 (Simulation time: 0 hr 3 min 21 sec) 
Heartbeat CPU 0 instructions: 6000000 cycles: 2244965 heartbeat IPC: 2.67404 cumulative IPC: 2.67265 (Simulation time: 0 hr 5 min 0 sec) 
Heartbeat CPU 0 instructions: 8000002 cycles: 2993669 heartbeat IPC: 2.67129 cumulative IPC: 2.67231 (Simulation time: 0 hr 6 min 47 sec) 
Heartbeat CPU 0 instructions: 10000003 cycles: 3741571 heartbeat IPC: 2.67415 cumulative IPC: 2.67267 (Simulation time: 0 hr 8 min 37 sec) 
Heartbeat CPU 0 instructions: 12000000 cycles: 4490208 heartbeat IPC: 2.67152 cumulative IPC: 2.67248 (Simulation time: 0 hr 10 min 28 sec) 
Heartbeat CPU 0 instructions: 14000002 cycles: 5236947 heartbeat IPC: 2.67831 cumulative IPC: 2.67331 (Simulation time: 0 hr 12 min 18 sec) 
Heartbeat CPU 0 instructions: 16000002 cycles: 5985184 heartbeat IPC: 2.67295 cumulative IPC: 2.67327 (Simulation time: 0 hr 14 min 9 sec) 
Heartbeat CPU 0 instructions: 18000002 cycles: 6733455 heartbeat IPC: 2.67283 cumulative IPC: 2.67322 (Simulation time: 0 hr 16 min 1 sec) 
Heartbeat CPU 0 instructions: 20000002 cycles: 7481820 heartbeat IPC: 2.67249 cumulative IPC: 2.67315 (Simulation time: 0 hr 17 min 53 sec) 
Heartbeat CPU 0 instructions: 22000002 cycles: 8229950 heartbeat IPC: 2.67333 cumulative IPC: 2.67316 (Simulation time: 0 hr 19 min 44 sec) 
Heartbeat CPU 0 instructions: 24000000 cycles: 8978509 heartbeat IPC: 2.6718 cumulative IPC: 2.67305 (Simulation time: 0 hr 21 min 35 sec) 
Heartbeat CPU 0 instructions: 26000003 cycles: 9726633 heartbeat IPC: 2.67336 cumulative IPC: 2.67307 (Simulation time: 0 hr 23 min 25 sec) 
Heartbeat CPU 0 instructions: 28000000 cycles: 10475412 heartbeat IPC: 2.67101 cumulative IPC: 2.67293 (Simulation time: 0 hr 25 min 14 sec) 
Heartbeat CPU 0 instructions: 30000003 cycles: 11223513 heartbeat IPC: 2.67344 cumulative IPC: 2.67296 (Simulation time: 0 hr 26 min 58 sec) 
Heartbeat CPU 0 instructions: 32000003 cycles: 11972175 heartbeat IPC: 2.67143 cumulative IPC: 2.67286 (Simulation time: 0 hr 28 min 43 sec) 
Heartbeat CPU 0 instructions: 34000001 cycles: 12720113 heartbeat IPC: 2.67402 cumulative IPC: 2.67293 (Simulation time: 0 hr 30 min 29 sec) 
Heartbeat CPU 0 instructions: 36000003 cycles: 13468609 heartbeat IPC: 2.67203 cumulative IPC: 2.67288 (Simulation time: 0 hr 32 min 9 sec) 
Heartbeat CPU 0 instructions: 38000003 cycles: 14216597 heartbeat IPC: 2.67384 cumulative IPC: 2.67293 (Simulation time: 0 hr 33 min 51 sec) 
Heartbeat CPU 0 instructions: 40000004 cycles: 14965121 heartbeat IPC: 2.67193 cumulative IPC: 2.67288 (Simulation time: 0 hr 35 min 37 sec) 
Heartbeat CPU 0 instructions: 42000001 cycles: 15713230 heartbeat IPC: 2.6734 cumulative IPC: 2.67291 (Simulation time: 0 hr 37 min 22 sec) 
Heartbeat CPU 0 instructions: 44000004 cycles: 16461666 heartbeat IPC: 2.67224 cumulative IPC: 2.67288 (Simulation time: 0 hr 39 min 8 sec) 
Heartbeat CPU 0 instructions: 46000001 cycles: 17209793 heartbeat IPC: 2.67334 cumulative IPC: 2.6729 (Simulation time: 0 hr 40 min 53 sec) 
Heartbeat CPU 0 instructions: 48000001 cycles: 17958236 heartbeat IPC: 2.67221 cumulative IPC: 2.67287 (Simulation time: 0 hr 42 min 39 sec) 
Heartbeat CPU 0 instructions: 50000000 cycles: 18706472 heartbeat IPC: 2.67295 cumulative IPC: 2.67287 (Simulation time: 0 hr 44 min 22 sec) 

Warmup complete CPU 0 instructions: 50000005 cycles: 18706475 (Simulation time: 0 hr 44 min 22 sec) 

Heartbeat CPU 0 instructions: 52000001 cycles: 19977900 heartbeat IPC: 1.57304 cumulative IPC: 1.57304 (Simulation time: 0 hr 46 min 35 sec) 

Region of Interest Statistics
cpu0_DTLB TOTAL     ACCESS:     531304  HIT:     456260  MISS:      75044
cpu0_DTLB LOAD      ACCESS:     456309  HIT:     390291  MISS:      66018
cpu0_DTLB RFO       ACCESS:      74995  HIT:      65969  MISS:       9026
cpu0_DTLB PREFETCH  ACCESS:          0  HIT:          0  MISS:          0
cpu0_DTLB WRITEBACK ACCESS:          0  HIT:          0  MISS:          0
cpu0_ITLB TOTAL     ACCESS:      38920  HIT:      38920  MISS:          0
cpu0_ITLB LOAD      ACCESS:      38920  HIT:      38920  MISS:          0
cpu0_ITLB RFO       ACCESS:          0  HIT:          0  MISS:          0
cpu0_ITLB PREFETCH  ACCESS:          0  HIT:          0  MISS:          0
cpu0_ITLB WRITEBACK ACCESS:          0  HIT:          0  MISS:          0
cpu0_L1I TOTAL     ACCESS:     195848  HIT:     166728  MISS:      29120
cpu0_L1I LOAD      ACCESS:     195848  HIT:     166728  MISS:      29120
cpu0_L1I RFO       ACCESS:          0  HIT:          0  MISS:          0
cpu0_L1I PREFETCH  ACCESS:          0  HIT:          0  MISS:          0
cpu0_L1I WRITEBACK ACCESS:          0  HIT:          0  MISS:          0
cpu0_STLB TOTAL     ACCESS:      75044  HIT:      74978  MISS:         66
cpu0_STLB LOAD      ACCESS:      66018  HIT:      65953  MISS:         65
cpu0_STLB RFO       ACCESS:       9026  HIT:       9025  MISS:          1
cpu0_STLB PREFETCH  ACCESS:          0  HIT:          0  MISS:          0
cpu0_STLB WRITEBACK ACCESS:          0  HIT:          0  MISS:          0
cpu0_L1D TOTAL     ACCESS:     750714  HIT:     605389  MISS:     145325
cpu0_L1D LOAD      ACCESS:     593389  HIT:     460255  MISS:     133134
cpu0_L1D RFO       ACCESS:     157259  HIT:     145134  MISS:      12125
cpu0_L1D PREFETCH  ACCESS:          0  HIT:          0  MISS:          0
cpu0_L1D WRITEBACK ACCESS:          0  HIT:          0  MISS:          0
cpu0_L2C TOTAL     ACCESS:     187355  HIT:     177168  MISS:      10187
cpu0_L2C LOAD      ACCESS:     162233  HIT:     153258  MISS:       8975
cpu0_L2C RFO       ACCESS:      12113  HIT:      10921  MISS:       1192
cpu0_L2C PREFETCH  ACCESS:          0  HIT:          0  MISS:          0
cpu0_L2C WRITEBACK ACCESS:      12943  HIT:      12937  MISS:          6
LLC TOTAL     ACCESS:      11182  HIT:       5938  MISS:       5244
LLC LOAD      ACCESS:       8975  HIT:       4907  MISS:       4068
LLC RFO       ACCESS:       1186  HIT:         13  MISS:       1173
LLC PREFETCH  ACCESS:          0  HIT:          0  MISS:          0
LLC WRITEBACK ACCESS:       1007  HIT:       1007  MISS:          0
Heartbeat CPU 0 instructions: 54000003 cycles: 21239085 heartbeat IPC: 1.58581 cumulative IPC: 1.5794 (Simulation time: 0 hr 48 min 46 sec) 

Region of Interest Statistics
cpu0_DTLB TOTAL     ACCESS:    1062892  HIT:     912704  MISS:     150188
cpu0_DTLB LOAD      ACCESS:     912944  HIT:     780932  MISS:     132012
cpu0_DTLB RFO       ACCESS:     149948  HIT:     131772  MISS:      18176
cpu0_DTLB PREFETCH  ACCESS:          0  HIT:          0  MISS:          0
cpu0_DTLB WRITEBACK ACCESS:          0  HIT:          0  MISS:          0
cpu0_ITLB TOTAL     ACCESS:      77724  HIT:      77724  MISS:          0
cpu0_ITLB LOAD      ACCESS:      77724  HIT:      77724  MISS:          0
cpu0_ITLB RFO       ACCESS:          0  HIT:          0  MISS:          0
cpu0_ITLB PREFETCH  ACCESS:          0  HIT:          0  MISS:          0
cpu0_ITLB WRITEBACK ACCESS:          0  HIT:          0  MISS:          0
cpu0_L1I TOTAL     ACCESS:     391591  HIT:     334027  MISS:      57564
cpu0_L1I LOAD      ACCESS:     391591  HIT:     334027  MISS:      57564
cpu0_L1I RFO       ACCESS:          0  HIT:          0  MISS:          0
cpu0_L1I PREFETCH  ACCESS:          0  HIT:          0  MISS:          0
cpu0_L1I WRITEBACK ACCESS:          0  HIT:          0  MISS:          0
cpu0_STLB TOTAL     ACCESS:     150188  HIT:     150041  MISS:        147
cpu0_STLB LOAD      ACCESS:     132012  HIT:     131891  MISS:        121
cpu0_STLB RFO       ACCESS:      18176  HIT:      18150  MISS:         26
cpu0_STLB PREFETCH  ACCESS:          0  HIT:          0  MISS:          0
cpu0_STLB WRITEBACK ACCESS:          0  HIT:          0  MISS:          0
cpu0_L1D TOTAL     ACCESS:    1501201  HIT:    1210441  MISS:     290760
cpu0_L1D LOAD      ACCESS:    1186649  HIT:     920455  MISS:     266194
cpu0_L1D RFO       ACCESS:     314405  HIT:     289986  MISS:      24419
cpu0_L1D PREFETCH  ACCESS:          0  HIT:          0  MISS:          0
cpu0_L1D WRITEBACK ACCESS:          0  HIT:          0  MISS:          0
cpu0_L2C TOTAL     ACCESS:     374344  HIT:     352636  MISS:      21708
cpu0_L2C LOAD      ACCESS:     323730  HIT:     304437  MISS:      19293
cpu0_L2C RFO       ACCESS:      24393  HIT:      22049  MISS:       2344
cpu0_L2C PREFETCH  ACCESS:          0  HIT:          0  MISS:          0
cpu0_L2C WRITEBACK ACCESS:      26074  HIT:      26062  MISS:         12
LLC TOTAL     ACCESS:      23851  HIT:      13485  MISS:      10366
LLC LOAD      ACCESS:      19293  HIT:      11255  MISS:       8038
LLC RFO       ACCESS:       2338  HIT:         13  MISS:       2325
LLC PREFETCH  ACCESS:          0  HIT:          0  MISS:          0
LLC WRITEBACK ACCESS:       2161  HIT:       2161  MISS:          0
Heartbeat CPU 0 instructions: 56000002 cycles: 22518475 heartbeat IPC: 1.56324 cumulative IPC: 1.57398 (Simulation time: 0 hr 50 min 55 sec) 

Region of Interest Statistics
cpu0_DTLB TOTAL     ACCESS:    1592892  HIT:    1367235  MISS:     225657
cpu0_DTLB LOAD      ACCESS:    1367750  HIT:    1169325  MISS:     198425
cpu0_DTLB RFO       ACCESS:     225142  HIT:     197910  MISS:      27232
cpu0_DTLB PREFETCH  ACCESS:          0  HIT:          0  MISS:          0
cpu0_DTLB WRITEBACK ACCESS:          0  HIT:          0  MISS:          0
cpu0_ITLB TOTAL     ACCESS:     116548  HIT:     116548  MISS:          0
cpu0_ITLB LOAD      ACCESS:     116548  HIT:     116548  MISS:          0
cpu0_ITLB RFO       ACCESS:          0  HIT:          0  MISS:          0
cpu0_ITLB PREFETCH  ACCESS:          0  HIT:          0  MISS:          0
cpu0_ITLB WRITEBACK ACCESS:          0  HIT:          0  MISS:          0
cpu0_L1I TOTAL     ACCESS:     587466  HIT:     501005  MISS:      86461
cpu0_L1I LOAD      ACCESS:     587466  HIT:     501005  MISS:      86461
cpu0_L1I RFO       ACCESS:          0  HIT:          0  MISS:          0
cpu0_L1I PREFETCH  ACCESS:          0  HIT:          0  MISS:          0
cpu0_L1I WRITEBACK ACCESS:          0  HIT:          0  MISS:          0
cpu0_STLB TOTAL     ACCESS:     225657  HIT:     225418  MISS:        239
cpu0_STLB LOAD      ACCESS:     198425  HIT:     198237  MISS:        188
cpu0_STLB RFO       ACCESS:      27232  HIT:      27181  MISS:         51
cpu0_STLB PREFETCH  ACCESS:          0  HIT:          0  MISS:          0
cpu0_STLB WRITEBACK ACCESS:          0  HIT:          0  MISS:          0
cpu0_L1D TOTAL     ACCESS:    2251397  HIT:    1814806  MISS:     436591
cpu0_L1D LOAD      ACCESS:    1779578  HIT:    1379854  MISS:     399724
cpu0_L1D RFO       ACCESS:     471580  HIT:     434952  MISS:      36628
cpu0_L1D PREFETCH  ACCESS:          0  HIT:          0  MISS:          0
cpu0_L1D WRITEBACK ACCESS:          0  HIT:          0  MISS:          0
cpu0_L2C TOTAL     ACCESS:     562093  HIT:     529295  MISS:      32798
cpu0_L2C LOAD      ACCESS:     486140  HIT:     457141  MISS:      28999
cpu0_L2C RFO       ACCESS:      36591  HIT:      32923  MISS:       3668
cpu0_L2C PREFETCH  ACCESS:          0  HIT:          0  MISS:          0
cpu0_L2C WRITEBACK ACCESS:      39123  HIT:      39106  MISS:         17
LLC TOTAL     ACCESS:      36254  HIT:      20553  MISS:      15701
LLC LOAD      ACCESS:      28999  HIT:      16826  MISS:      12173
LLC RFO       ACCESS:       3593  HIT:         69  MISS:       3524
LLC PREFETCH  ACCESS:          0  HIT:          0  MISS:          0
LLC WRITEBACK ACCESS:       3548  HIT:       3548  MISS:          0
Heartbeat CPU 0 instructions: 58000002 cycles: 23788925 heartbeat IPC: 1.57425 cumulative IPC: 1.57404 (Simulation time: 0 hr 53 min 3 sec) 

Region of Interest Statistics
cpu0_DTLB TOTAL     ACCESS:    2124295  HIT:    1823250  MISS:     301045
cpu0_DTLB LOAD      ACCESS:    1824151  HIT:    1559477  MISS:     264674
cpu0_DTLB RFO       ACCESS:     300144  HIT:     263773  MISS:      36371
cpu0_DTLB PREFETCH  ACCESS:          0  HIT:          0  MISS:          0
cpu0_DTLB WRITEBACK ACCESS:          0  HIT:          0  MISS:          0
cpu0_ITLB TOTAL     ACCESS:     155455  HIT:     155455  MISS:          0
cpu0_ITLB LOAD      ACCESS:     155455  HIT:     155455  MISS:          0
cpu0_ITLB RFO       ACCESS:          0  HIT:          0  MISS:          0
cpu0_ITLB PREFETCH  ACCESS:          0  HIT:          0  MISS:          0
cpu0_ITLB WRITEBACK ACCESS:          0  HIT:          0  MISS:          0
cpu0_L1I TOTAL     ACCESS:     783379  HIT:     667685  MISS:     115694
cpu0_L1I LOAD      ACCESS:     783379  HIT:     667685  MISS:     115694
cpu0_L1I RFO       ACCESS:          0  HIT:          0  MISS:          0
cpu0_L1I PREFETCH  ACCESS:          0  HIT:          0  MISS:          0
cpu0_L1I WRITEBACK ACCESS:          0  HIT:          0  MISS:          0
cpu0_STLB TOTAL     ACCESS:     301045  HIT:     300710  MISS:        335
cpu0_STLB LOAD      ACCESS:     264674  HIT:     264415  MISS:        259
cpu0_STLB RFO       ACCESS:      36371  HIT:      36295  MISS:         76
cpu0_STLB PREFETCH  ACCESS:          0  HIT:          0  MISS:          0
cpu0_STLB WRITEBACK ACCESS:          0  HIT:          0  MISS:          0
cpu0_L1D TOTAL     ACCESS:    3002482  HIT:    2420230  MISS:     582252
cpu0_L1D LOAD      ACCESS:    2373417  HIT:    1840276  MISS:     533141
cpu0_L1D RFO       ACCESS:     628730  HIT:     579954  MISS:      48776
cpu0_L1D PREFETCH  ACCESS:          0  HIT:          0  MISS:          0
cpu0_L1D WRITEBACK ACCESS:          0  HIT:          0  MISS:          0
cpu0_L2C TOTAL     ACCESS:     749955  HIT:     706744  MISS:      43211
cpu0_L2C LOAD      ACCESS:     648769  HIT:     610762  MISS:      38007
cpu0_L2C RFO       ACCESS:      48728  HIT:      43718  MISS:       5010
cpu0_L2C PREFETCH  ACCESS:          0  HIT:          0  MISS:          0
cpu0_L2C WRITEBACK ACCESS:      52123  HIT:      52098  MISS:         25
LLC TOTAL     ACCESS:      47898  HIT:      27018  MISS:      20880
LLC LOAD      ACCESS:      38007  HIT:      21806  MISS:      16201
LLC RFO       ACCESS:       4840  HIT:        165  MISS:       4675
LLC PREFETCH  ACCESS:          0  HIT:          0  MISS:          0
LLC WRITEBACK ACCESS:       4882  HIT:       4882  MISS:          0
Heartbeat CPU 0 instructions: 60000004 cycles: 25063173 heartbeat IPC: 1.56955 cumulative IPC: 1.57314 (Simulation time: 0 hr 55 min 11 sec) 

Region of Interest Statistics
cpu0_DTLB TOTAL     ACCESS:    2655193  HIT:    2278884  MISS:     376309
cpu0_DTLB LOAD      ACCESS:    2279897  HIT:    1949102  MISS:     330795
cpu0_DTLB RFO       ACCESS:     375296  HIT:     329782  MISS:      45514
cpu0_DTLB PREFETCH  ACCESS:          0  HIT:          0  MISS:          0
cpu0_DTLB WRITEBACK ACCESS:          0  HIT:          0  MISS:          0
cpu0_ITLB TOTAL     ACCESS:     194405  HIT:     194405  MISS:          0
cpu0_ITLB LOAD      ACCESS:     194405  HIT:     194405  MISS:          0
cpu0_ITLB RFO       ACCESS:          0  HIT:          0  MISS:          0
cpu0_ITLB PREFETCH  ACCESS:          0  HIT:          0  MISS:          0
cpu0_ITLB WRITEBACK ACCESS:          0  HIT:          0  MISS:          0
cpu0_L1I TOTAL     ACCESS:     979350  HIT:     834657  MISS:     144693
cpu0_L1I LOAD      ACCESS:     979350  HIT:     834657  MISS:     144693
cpu0_L1I RFO       ACCESS:          0  HIT:          0  MISS:          0
cpu0_L1I PREFETCH  ACCESS:          0  HIT:          0  MISS:          0
cpu0_L1I WRITEBACK ACCESS:          0  HIT:          0  MISS:          0
cpu0_STLB TOTAL     ACCESS:     376309  HIT:     375925  MISS:        384
cpu0_STLB LOAD      ACCESS:     330795  HIT:     330487  MISS:        308
cpu0_STLB RFO       ACCESS:      45514  HIT:      45438  MISS:         76
cpu0_STLB PREFETCH  ACCESS:          0  HIT:          0  MISS:          0
cpu0_STLB WRITEBACK ACCESS:          0  HIT:          0  MISS:          0
cpu0_L1D TOTAL     ACCESS:    3752760  HIT:    3025474  MISS:     727286
cpu0_L1D LOAD      ACCESS:    2966411  HIT:    2300434  MISS:     665977
cpu0_L1D RFO       ACCESS:     785965  HIT:     725040  MISS:      60925
cpu0_L1D PREFETCH  ACCESS:          0  HIT:          0  MISS:          0
cpu0_L1D WRITEBACK ACCESS:          0  HIT:          0  MISS:          0
cpu0_L2C TOTAL     ACCESS:     936967  HIT:     882801  MISS:      54166
cpu0_L2C LOAD      ACCESS:     810586  HIT:     762949  MISS:      47637
cpu0_L2C RFO       ACCESS:      60864  HIT:      54546  MISS:       6318
cpu0_L2C PREFETCH  ACCESS:          0  HIT:          0  MISS:          0
cpu0_L2C WRITEBACK ACCESS:      65133  HIT:      65102  MISS:         31
LLC TOTAL     ACCESS:      60151  HIT:      34087  MISS:      26064
LLC LOAD      ACCESS:      47637  HIT:      27427  MISS:      20210
LLC RFO       ACCESS:       6067  HIT:        217  MISS:       5850
LLC PREFETCH  ACCESS:          0  HIT:          0  MISS:          0
LLC WRITEBACK ACCESS:       6267  HIT:       6267  MISS:          0
Heartbeat CPU 0 instructions: 62000004 cycles: 26331891 heartbeat IPC: 1.57639 cumulative IPC: 1.57368 (Simulation time: 0 hr 57 min 23 sec) 

Region of Interest Statistics
cpu0_DTLB TOTAL     ACCESS:    3186205  HIT:    2734348  MISS:     451857
cpu0_DTLB LOAD      ACCESS:    2735873  HIT:    2338583  MISS:     397290
cpu0_DTLB RFO       ACCESS:     450332  HIT:     395765  MISS:      54567
cpu0_DTLB PREFETCH  ACCESS:          0  HIT:          0  MISS:          0
cpu0_DTLB WRITEBACK ACCESS:          0  HIT:          0  MISS:          0
cpu0_ITLB TOTAL     ACCESS:     233280  HIT:     233280  MISS:          0
cpu0_ITLB LOAD      ACCESS:     233280  HIT:     233280  MISS:          0
cpu0_ITLB RFO       ACCESS:          0  HIT:          0  MISS:          0
cpu0_ITLB PREFETCH  ACCESS:          0  HIT:          0  MISS:          0
cpu0_ITLB WRITEBACK ACCESS:          0  HIT:          0  MISS:          0
cpu0_L1I TOTAL     ACCESS:    1175270  HIT:    1002026  MISS:     173244
cpu0_L1I LOAD      ACCESS:    1175270  HIT:    1002026  MISS:     173244
cpu0_L1I RFO       ACCESS:          0  HIT:          0  MISS:          0
cpu0_L1I PREFETCH  ACCESS:          0  HIT:          0  MISS:          0
cpu0_L1I WRITEBACK ACCESS:          0  HIT:          0  MISS:          0
cpu0_STLB TOTAL     ACCESS:     451857  HIT:     451377  MISS:        480
cpu0_STLB LOAD      ACCESS:     397290  HIT:     396911  MISS:        379
cpu0_STLB RFO       ACCESS:      54567  HIT:      54466  MISS:        101
cpu0_STLB PREFETCH  ACCESS:          0  HIT:          0  MISS:          0
cpu0_STLB WRITEBACK ACCESS:          0  HIT:          0  MISS:          0
cpu0_L1D TOTAL     ACCESS:    4502565  HIT:    3629641  MISS:     872924
cpu0_L1D LOAD      ACCESS:    3558998  HIT:    2759699  MISS:     799299
cpu0_L1D RFO       ACCESS:     943087  HIT:     869942  MISS:      73145
cpu0_L1D PREFETCH  ACCESS:          0  HIT:          0  MISS:          0
cpu0_L1D WRITEBACK ACCESS:          0  HIT:          0  MISS:          0
cpu0_L2C TOTAL     ACCESS:    1124191  HIT:    1059636  MISS:      64555
cpu0_L2C LOAD      ACCESS:     972446  HIT:     915650  MISS:      56796
cpu0_L2C RFO       ACCESS:      73073  HIT:      65576  MISS:       7497
cpu0_L2C PREFETCH  ACCESS:          0  HIT:          0  MISS:          0
cpu0_L2C WRITEBACK ACCESS:      78192  HIT:      78157  MISS:         35
LLC TOTAL     ACCESS:      71718  HIT:      40433  MISS:      31285
LLC LOAD      ACCESS:      56796  HIT:      32541  MISS:      24255
LLC RFO       ACCESS:       7245  HIT:        220  MISS:       7025
LLC PREFETCH  ACCESS:          0  HIT:          0  MISS:          0
LLC WRITEBACK ACCESS:       7450  HIT:       7449  MISS:          1
Heartbeat CPU 0 instructions: 64000001 cycles: 27599339 heartbeat IPC: 1.57797 cumulative IPC: 1.5743 (Simulation time: 0 hr 59 min 29 sec) 

Region of Interest Statistics
cpu0_DTLB TOTAL     ACCESS:    3716010  HIT:    3188855  MISS:     527155
cpu0_DTLB LOAD      ACCESS:    3190444  HIT:    2726903  MISS:     463541
cpu0_DTLB RFO       ACCESS:     525566  HIT:     461952  MISS:      63614
cpu0_DTLB PREFETCH  ACCESS:          0  HIT:          0  MISS:          0
cpu0_DTLB WRITEBACK ACCESS:          0  HIT:          0  MISS:          0
cpu0_ITLB TOTAL     ACCESS:     272179  HIT:     272179  MISS:          0
cpu0_ITLB LOAD      ACCESS:     272179  HIT:     272179  MISS:          0
cpu0_ITLB RFO       ACCESS:          0  HIT:          0  MISS:          0
cpu0_ITLB PREFETCH  ACCESS:          0  HIT:          0  MISS:          0
cpu0_ITLB WRITEBACK ACCESS:          0  HIT:          0  MISS:          0
cpu0_L1I TOTAL     ACCESS:    1371139  HIT:    1168960  MISS:     202179
cpu0_L1I LOAD      ACCESS:    1371139  HIT:    1168960  MISS:     202179
cpu0_L1I RFO       ACCESS:          0  HIT:          0  MISS:          0
cpu0_L1I PREFETCH  ACCESS:          0  HIT:          0  MISS:          0
cpu0_L1I WRITEBACK ACCESS:          0  HIT:          0  MISS:          0
cpu0_STLB TOTAL     ACCESS:     527155  HIT:     526587  MISS:        568
cpu0_STLB LOAD      ACCESS:     463541  HIT:     463099  MISS:        442
cpu0_STLB RFO       ACCESS:      63614  HIT:      63488  MISS:        126
cpu0_STLB PREFETCH  ACCESS:          0  HIT:          0  MISS:          0
cpu0_STLB WRITEBACK ACCESS:          0  HIT:          0  MISS:          0
cpu0_L1D TOTAL     ACCESS:    5252565  HIT:    4234063  MISS:    1018502
cpu0_L1D LOAD      ACCESS:    4151683  HIT:    3219111  MISS:     932572
cpu0_L1D RFO       ACCESS:    1100314  HIT:    1014952  MISS:      85362
cpu0_L1D PREFETCH  ACCESS:          0  HIT:          0  MISS:          0
cpu0_L1D WRITEBACK ACCESS:          0  HIT:          0  MISS:          0
cpu0_L2C TOTAL     ACCESS:    1311772  HIT:    1236137  MISS:      75635
cpu0_L2C LOAD      ACCESS:    1134629  HIT:    1068008  MISS:      66621
cpu0_L2C RFO       ACCESS:      85282  HIT:      76589  MISS:       8693
cpu0_L2C PREFETCH  ACCESS:          0  HIT:          0  MISS:          0
cpu0_L2C WRITEBACK ACCESS:      91293  HIT:      91258  MISS:         35
LLC TOTAL     ACCESS:      83920  HIT:      47440  MISS:      36480
LLC LOAD      ACCESS:      66620  HIT:      38321  MISS:      28299
LLC RFO       ACCESS:       8417  HIT:        242  MISS:       8175
LLC PREFETCH  ACCESS:          0  HIT:          0  MISS:          0
LLC WRITEBACK ACCESS:       8597  HIT:       8595  MISS:          2
Heartbeat CPU 0 instructions: 66000004 cycles: 28864407 heartbeat IPC: 1.58095 cumulative IPC: 1.57512 (Simulation time: 1 hr 1 min 37 sec) 

Region of Interest Statistics
cpu0_DTLB TOTAL     ACCESS:    4247570  HIT:    3645016  MISS:     602554
cpu0_DTLB LOAD      ACCESS:    3646893  HIT:    3117048  MISS:     529845
cpu0_DTLB RFO       ACCESS:     600677  HIT:     527968  MISS:      72709
cpu0_DTLB PREFETCH  ACCESS:          0  HIT:          0  MISS:          0
cpu0_DTLB WRITEBACK ACCESS:          0  HIT:          0  MISS:          0
cpu0_ITLB TOTAL     ACCESS:     311006  HIT:     311006  MISS:          0
cpu0_ITLB LOAD      ACCESS:     311006  HIT:     311006  MISS:          0
cpu0_ITLB RFO       ACCESS:          0  HIT:          0  MISS:          0
cpu0_ITLB PREFETCH  ACCESS:          0  HIT:          0  MISS:          0
cpu0_ITLB WRITEBACK ACCESS:          0  HIT:          0  MISS:          0
cpu0_L1I TOTAL     ACCESS:    1566893  HIT:    1335903  MISS:     230990
cpu0_L1I LOAD      ACCESS:    1566893  HIT:    1335903  MISS:     230990
cpu0_L1I RFO       ACCESS:          0  HIT:          0  MISS:          0
cpu0_L1I PREFETCH  ACCESS:          0  HIT:          0  MISS:          0
cpu0_L1I WRITEBACK ACCESS:          0  HIT:          0  MISS:          0
cpu0_STLB TOTAL     ACCESS:     602554  HIT:     601922  MISS:        632
cpu0_STLB LOAD      ACCESS:     529845  HIT:     529339  MISS:        506
cpu0_STLB RFO       ACCESS:      72709  HIT:      72583  MISS:        126
cpu0_STLB PREFETCH  ACCESS:          0  HIT:          0  MISS:          0
cpu0_STLB WRITEBACK ACCESS:          0  HIT:          0  MISS:          0
cpu0_L1D TOTAL     ACCESS:    6003961  HIT:    4839478  MISS:    1164483
cpu0_L1D LOAD      ACCESS:    4745808  HIT:    3679406  MISS:    1066402
cpu0_L1D RFO       ACCESS:    1257521  HIT:    1160072  MISS:      97449
cpu0_L1D PREFETCH  ACCESS:          0  HIT:          0  MISS:          0
cpu0_L1D WRITEBACK ACCESS:          0  HIT:          0  MISS:          0
cpu0_L2C TOTAL     ACCESS:    1499489  HIT:    1413009  MISS:      86480
cpu0_L2C LOAD      ACCESS:    1297240  HIT:    1221065  MISS:      76175
cpu0_L2C RFO       ACCESS:      97357  HIT:      87397  MISS:       9960
cpu0_L2C PREFETCH  ACCESS:          0  HIT:          0  MISS:          0
cpu0_L2C WRITEBACK ACCESS:     104260  HIT:     104224  MISS:         36
LLC TOTAL     ACCESS:      95924  HIT:      54302  MISS:      41622
LLC LOAD      ACCESS:      76174  HIT:      43908  MISS:      32266
LLC RFO       ACCESS:       9636  HIT:        286  MISS:       9350
LLC PREFETCH  ACCESS:          0  HIT:          0  MISS:          0
LLC WRITEBACK ACCESS:       9805  HIT:       9803  MISS:          2
Heartbeat CPU 0 instructions: 68000004 cycles: 30143091 heartbeat IPC: 1.56411 cumulative IPC: 1.57389 (Simulation time: 1 hr 3 min 50 sec) 

Region of Interest Statistics
cpu0_DTLB TOTAL     ACCESS:    4779467  HIT:    4101471  MISS:     677996
cpu0_DTLB LOAD      ACCESS:    4102960  HIT:    3506764  MISS:     596196
cpu0_DTLB RFO       ACCESS:     676507  HIT:     594707  MISS:      81800
cpu0_DTLB PREFETCH  ACCESS:          0  HIT:          0  MISS:          0
cpu0_DTLB WRITEBACK ACCESS:          0  HIT:          0  MISS:          0
cpu0_ITLB TOTAL     ACCESS:     349868  HIT:     349868  MISS:          0
cpu0_ITLB LOAD      ACCESS:     349868  HIT:     349868  MISS:          0
cpu0_ITLB RFO       ACCESS:          0  HIT:          0  MISS:          0
cpu0_ITLB PREFETCH  ACCESS:          0  HIT:          0  MISS:          0
cpu0_ITLB WRITEBACK ACCESS:          0  HIT:          0  MISS:          0
cpu0_L1I TOTAL     ACCESS:    1762658  HIT:    1503461  MISS:     259197
cpu0_L1I LOAD      ACCESS:    1762658  HIT:    1503461  MISS:     259197
cpu0_L1I RFO       ACCESS:          0  HIT:          0  MISS:          0
cpu0_L1I PREFETCH  ACCESS:          0  HIT:          0  MISS:          0
cpu0_L1I WRITEBACK ACCESS:          0  HIT:          0  MISS:          0
cpu0_STLB TOTAL     ACCESS:     677996  HIT:     677279  MISS:        717
cpu0_STLB LOAD      ACCESS:     596196  HIT:     595630  MISS:        566
cpu0_STLB RFO       ACCESS:      81800  HIT:      81649  MISS:        151
cpu0_STLB PREFETCH  ACCESS:          0  HIT:          0  MISS:          0
cpu0_STLB WRITEBACK ACCESS:          0  HIT:          0  MISS:          0
cpu0_L1D TOTAL     ACCESS:    6754384  HIT:    5444628  MISS:    1309756
cpu0_L1D LOAD      ACCESS:    5338840  HIT:    4139454  MISS:    1199386
cpu0_L1D RFO       ACCESS:    1414827  HIT:    1305174  MISS:     109653
cpu0_L1D PREFETCH  ACCESS:          0  HIT:          0  MISS:          0
cpu0_L1D WRITEBACK ACCESS:          0  HIT:          0  MISS:          0
cpu0_L2C TOTAL     ACCESS:    1685951  HIT:    1586803  MISS:      99148
cpu0_L2C LOAD      ACCESS:    1458413  HIT:    1371877  MISS:      86536
cpu0_L2C RFO       ACCESS:     109552  HIT:      97341  MISS:      12211
cpu0_L2C PREFETCH  ACCESS:          0  HIT:          0  MISS:          0
cpu0_L2C WRITEBACK ACCESS:     117269  HIT:     117233  MISS:         36
LLC TOTAL     ACCESS:     109923  HIT:      62983  MISS:      46940
LLC LOAD      ACCESS:      86535  HIT:      50151  MISS:      36384
LLC RFO       ACCESS:      10895  HIT:        345  MISS:      10550
LLC PREFETCH  ACCESS:          0  HIT:          0  MISS:          0
LLC WRITEBACK ACCESS:      12128  HIT:      12126  MISS:          2
Heartbeat CPU 0 instructions: 70000000 cycles: 31405888 heartbeat IPC: 1.58378 cumulative IPC: 1.57488 (Simulation time: 1 hr 6 min 0 sec) 

Region of Interest Statistics
cpu0_DTLB TOTAL     ACCESS:    5310938  HIT:    4557573  MISS:     753365
cpu0_DTLB LOAD      ACCESS:    4558760  HIT:    3896250  MISS:     662510
cpu0_DTLB RFO       ACCESS:     752178  HIT:     661323  MISS:      90855
cpu0_DTLB PREFETCH  ACCESS:          0  HIT:          0  MISS:          0
cpu0_DTLB WRITEBACK ACCESS:          0  HIT:          0  MISS:          0
cpu0_ITLB TOTAL     ACCESS:     388700  HIT:     388700  MISS:          0
cpu0_ITLB LOAD      ACCESS:     388700  HIT:     388700  MISS:          0
cpu0_ITLB RFO       ACCESS:          0  HIT:          0  MISS:          0
cpu0_ITLB PREFETCH  ACCESS:          0  HIT:          0  MISS:          0
cpu0_ITLB WRITEBACK ACCESS:          0  HIT:          0  MISS:          0
cpu0_L1I TOTAL     ACCESS:    1958399  HIT:    1670660  MISS:     287739
cpu0_L1I LOAD      ACCESS:    1958399  HIT:    1670660  MISS:     287739
cpu0_L1I RFO       ACCESS:          0  HIT:          0  MISS:          0
cpu0_L1I PREFETCH  ACCESS:          0  HIT:          0  MISS:          0
cpu0_L1I WRITEBACK ACCESS:          0  HIT:          0  MISS:          0
cpu0_STLB TOTAL     ACCESS:     753365  HIT:     752556  MISS:        809
cpu0_STLB LOAD      ACCESS:     662510  HIT:     661877  MISS:        633
cpu0_STLB RFO       ACCESS:      90855  HIT:      90679  MISS:        176
cpu0_STLB PREFETCH  ACCESS:          0  HIT:          0  MISS:          0
cpu0_STLB WRITEBACK ACCESS:          0  HIT:          0  MISS:          0
cpu0_L1D TOTAL     ACCESS:    7505266  HIT:    6049744  MISS:    1455522
cpu0_L1D LOAD      ACCESS:    5932488  HIT:    4599673  MISS:    1332815
cpu0_L1D RFO       ACCESS:    1571969  HIT:    1450071  MISS:     121898
cpu0_L1D PREFETCH  ACCESS:          0  HIT:          0  MISS:          0
cpu0_L1D WRITEBACK ACCESS:          0  HIT:          0  MISS:          0
cpu0_L2C TOTAL     ACCESS:    1873381  HIT:    1762257  MISS:     111124
cpu0_L2C LOAD      ACCESS:    1620364  HIT:    1523732  MISS:      96632
cpu0_L2C RFO       ACCESS:     121786  HIT:     107757  MISS:      14029
cpu0_L2C PREFETCH  ACCESS:          0  HIT:          0  MISS:          0
cpu0_L2C WRITEBACK ACCESS:     130422  HIT:     130382  MISS:         40
LLC TOTAL     ACCESS:     123217  HIT:      71153  MISS:      52064
LLC LOAD      ACCESS:      96631  HIT:      56275  MISS:      40356
LLC RFO       ACCESS:      12098  HIT:        398  MISS:      11700
LLC PREFETCH  ACCESS:          0  HIT:          0  MISS:          0
LLC WRITEBACK ACCESS:      14065  HIT:      14061  MISS:          4
Heartbeat CPU 0 instructions: 72000004 cycles: 32679414 heartbeat IPC: 1.57045 cumulative IPC: 1.57447 (Simulation time: 1 hr 8 min 9 sec) 

Region of Interest Statistics
cpu0_DTLB TOTAL     ACCESS:    5841236  HIT:    5012088  MISS:     829148
cpu0_DTLB LOAD      ACCESS:    5013939  HIT:    4284673  MISS:     729266
cpu0_DTLB RFO       ACCESS:     827297  HIT:     727415  MISS:      99882
cpu0_DTLB PREFETCH  ACCESS:          0  HIT:          0  MISS:          0
cpu0_DTLB WRITEBACK ACCESS:          0  HIT:          0  MISS:          0
cpu0_ITLB TOTAL     ACCESS:     427627  HIT:     427627  MISS:          0
cpu0_ITLB LOAD      ACCESS:     427627  HIT:     427627  MISS:          0
cpu0_ITLB RFO       ACCESS:          0  HIT:          0  MISS:          0
cpu0_ITLB PREFETCH  ACCESS:          0  HIT:          0  MISS:          0
cpu0_ITLB WRITEBACK ACCESS:          0  HIT:          0  MISS:          0
cpu0_L1I TOTAL     ACCESS:    2154353  HIT:    1837575  MISS:     316778
cpu0_L1I LOAD      ACCESS:    2154353  HIT:    1837575  MISS:     316778
cpu0_L1I RFO       ACCESS:          0  HIT:          0  MISS:          0
cpu0_L1I PREFETCH  ACCESS:          0  HIT:          0  MISS:          0
cpu0_L1I WRITEBACK ACCESS:          0  HIT:          0  MISS:          0
cpu0_STLB TOTAL     ACCESS:     829148  HIT:     828247  MISS:        901
cpu0_STLB LOAD      ACCESS:     729266  HIT:     728566  MISS:        700
cpu0_STLB RFO       ACCESS:      99882  HIT:      99681  MISS:        201
cpu0_STLB PREFETCH  ACCESS:          0  HIT:          0  MISS:          0
cpu0_STLB WRITEBACK ACCESS:          0  HIT:          0  MISS:          0
cpu0_L1D TOTAL     ACCESS:    8255553  HIT:    6654622  MISS:    1600931
cpu0_L1D LOAD      ACCESS:    6525493  HIT:    5059579  MISS:    1465914
cpu0_L1D RFO       ACCESS:    1729159  HIT:    1595043  MISS:     134116
cpu0_L1D PREFETCH  ACCESS:          0  HIT:          0  MISS:          0
cpu0_L1D WRITEBACK ACCESS:          0  HIT:          0  MISS:          0
cpu0_L2C TOTAL     ACCESS:    2060862  HIT:    1938578  MISS:     122284
cpu0_L2C LOAD      ACCESS:    1782476  HIT:    1676137  MISS:     106339
cpu0_L2C RFO       ACCESS:     133990  HIT:     118586  MISS:      15404
cpu0_L2C PREFETCH  ACCESS:          0  HIT:          0  MISS:          0
cpu0_L2C WRITEBACK ACCESS:     143495  HIT:     143440  MISS:         55
LLC TOTAL     ACCESS:     135526  HIT:      78242  MISS:      57284
LLC LOAD      ACCESS:     106338  HIT:      61939  MISS:      44399
LLC RFO       ACCESS:      13327  HIT:        452  MISS:      12875
LLC PREFETCH  ACCESS:          0  HIT:          0  MISS:          0
LLC WRITEBACK ACCESS:      15375  HIT:      15369  MISS:          6
Heartbeat CPU 0 instructions: 74000003 cycles: 33948351 heartbeat IPC: 1.57612 cumulative IPC: 1.57461 (Simulation time: 1 hr 10 min 21 sec) 

Region of Interest Statistics
cpu0_DTLB TOTAL     ACCESS:    6371935  HIT:    5467278  MISS:     904657
cpu0_DTLB LOAD      ACCESS:    5469869  HIT:    4674146  MISS:     795723
cpu0_DTLB RFO       ACCESS:     902066  HIT:     793132  MISS:     108934
cpu0_DTLB PREFETCH  ACCESS:          0  HIT:          0  MISS:          0
cpu0_DTLB WRITEBACK ACCESS:          0  HIT:          0  MISS:          0
cpu0_ITLB TOTAL     ACCESS:     466486  HIT:     466486  MISS:          0
cpu0_ITLB LOAD      ACCESS:     466486  HIT:     466486  MISS:          0
cpu0_ITLB RFO       ACCESS:          0  HIT:          0  MISS:          0
cpu0_ITLB PREFETCH  ACCESS:          0  HIT:          0  MISS:          0
cpu0_ITLB WRITEBACK ACCESS:          0  HIT:          0  MISS:          0
cpu0_L1I TOTAL     ACCESS:    2350158  HIT:    2004425  MISS:     345733
cpu0_L1I LOAD      ACCESS:    2350158  HIT:    2004425  MISS:     345733
cpu0_L1I RFO       ACCESS:          0  HIT:          0  MISS:          0
cpu0_L1I PREFETCH  ACCESS:          0  HIT:          0  MISS:          0
cpu0_L1I WRITEBACK ACCESS:          0  HIT:          0  MISS:          0
cpu0_STLB TOTAL     ACCESS:     904657  HIT:     903703  MISS:        954
cpu0_STLB LOAD      ACCESS:     795723  HIT:     794970  MISS:        753
cpu0_STLB RFO       ACCESS:     108934  HIT:     108733  MISS:        201
cpu0_STLB PREFETCH  ACCESS:          0  HIT:          0  MISS:          0
cpu0_STLB WRITEBACK ACCESS:          0  HIT:          0  MISS:          0
cpu0_L1D TOTAL     ACCESS:    9006644  HIT:    7260093  MISS:    1746551
cpu0_L1D LOAD      ACCESS:    7119371  HIT:    5520092  MISS:    1599279
cpu0_L1D RFO       ACCESS:    1886319  HIT:    1740001  MISS:     146318
cpu0_L1D PREFETCH  ACCESS:          0  HIT:          0  MISS:          0
cpu0_L1D WRITEBACK ACCESS:          0  HIT:          0  MISS:          0
cpu0_L2C TOTAL     ACCESS:    2248465  HIT:    2115955  MISS:     132510
cpu0_L2C LOAD      ACCESS:    1944778  HIT:    1829438  MISS:     115340
cpu0_L2C RFO       ACCESS:     146174  HIT:     129584  MISS:      16590
cpu0_L2C PREFETCH  ACCESS:          0  HIT:          0  MISS:          0
cpu0_L2C WRITEBACK ACCESS:     156559  HIT:     156488  MISS:         71
LLC TOTAL     ACCESS:     146884  HIT:      84363  MISS:      62521
LLC LOAD      ACCESS:     115339  HIT:      66887  MISS:      48452
LLC RFO       ACCESS:      14513  HIT:        463  MISS:      14050
LLC PREFETCH  ACCESS:          0  HIT:          0  MISS:          0
LLC WRITEBACK ACCESS:      16523  HIT:      16508  MISS:         15
Heartbeat CPU 0 instructions: 76000003 cycles: 35210543 heartbeat IPC: 1.58455 cumulative IPC: 1.57537 (Simulation time: 1 hr 12 min 29 sec) 

Region of Interest Statistics
cpu0_DTLB TOTAL     ACCESS:    6902905  HIT:    5922705  MISS:     980200
cpu0_DTLB LOAD      ACCESS:    5925911  HIT:    5063683  MISS:     862228
cpu0_DTLB RFO       ACCESS:     976994  HIT:     859022  MISS:     117972
cpu0_DTLB PREFETCH  ACCESS:          0  HIT:          0  MISS:          0
cpu0_DTLB WRITEBACK ACCESS:          0  HIT:          0  MISS:          0
cpu0_ITLB TOTAL     ACCESS:     505283  HIT:     505283  MISS:          0
cpu0_ITLB LOAD      ACCESS:     505283  HIT:     505283  MISS:          0
cpu0_ITLB RFO       ACCESS:          0  HIT:          0  MISS:          0
cpu0_ITLB PREFETCH  ACCESS:          0  HIT:          0  MISS:          0
cpu0_ITLB WRITEBACK ACCESS:          0  HIT:          0  MISS:          0
cpu0_L1I TOTAL     ACCESS:    2545959  HIT:    2171853  MISS:     374106
cpu0_L1I LOAD      ACCESS:    2545959  HIT:    2171853  MISS:     374106
cpu0_L1I RFO       ACCESS:          0  HIT:          0  MISS:          0
cpu0_L1I PREFETCH  ACCESS:          0  HIT:          0  MISS:          0
cpu0_L1I WRITEBACK ACCESS:          0  HIT:          0  MISS:          0
cpu0_STLB TOTAL     ACCESS:     980200  HIT:     979150  MISS:       1050
cpu0_STLB LOAD      ACCESS:     862228  HIT:     861404  MISS:        824
cpu0_STLB RFO       ACCESS:     117972  HIT:     117746  MISS:        226
cpu0_STLB PREFETCH  ACCESS:          0  HIT:          0  MISS:          0
cpu0_STLB WRITEBACK ACCESS:          0  HIT:          0  MISS:          0
cpu0_L1D TOTAL     ACCESS:    9756628  HIT:    7864558  MISS:    1892070
cpu0_L1D LOAD      ACCESS:    7712087  HIT:    5979577  MISS:    1732510
cpu0_L1D RFO       ACCESS:    2043491  HIT:    1884981  MISS:     158510
cpu0_L1D PREFETCH  ACCESS:          0  HIT:          0  MISS:          0
cpu0_L1D WRITEBACK ACCESS:          0  HIT:          0  MISS:          0
cpu0_L2C TOTAL     ACCESS:    2435344  HIT:    2292410  MISS:     142934
cpu0_L2C LOAD      ACCESS:    2106364  HIT:    1981811  MISS:     124553
cpu0_L2C RFO       ACCESS:     158353  HIT:     140613  MISS:      17740
cpu0_L2C PREFETCH  ACCESS:          0  HIT:          0  MISS:          0
cpu0_L2C WRITEBACK ACCESS:     169577  HIT:     169506  MISS:         71
LLC TOTAL     ACCESS:     158471  HIT:      90828  MISS:      67643
LLC LOAD      ACCESS:     124552  HIT:      72128  MISS:      52424
LLC RFO       ACCESS:      15663  HIT:        463  MISS:      15200
LLC PREFETCH  ACCESS:          0  HIT:          0  MISS:          0
LLC WRITEBACK ACCESS:      17686  HIT:      17671  MISS:         15
Heartbeat CPU 0 instructions: 78000000 cycles: 36477550 heartbeat IPC: 1.57852 cumulative IPC: 1.57559 (Simulation time: 1 hr 14 min 37 sec) 

Region of Interest Statistics
cpu0_DTLB TOTAL     ACCESS:    7433056  HIT:    6377191  MISS:    1055865
cpu0_DTLB LOAD      ACCESS:    6380910  HIT:    5452073  MISS:     928837
cpu0_DTLB RFO       ACCESS:    1052146  HIT:     925118  MISS:     127028
cpu0_DTLB PREFETCH  ACCESS:          0  HIT:          0  MISS:          0
cpu0_DTLB WRITEBACK ACCESS:          0  HIT:          0  MISS:          0
cpu0_ITLB TOTAL     ACCESS:     544144  HIT:     544144  MISS:          0
cpu0_ITLB LOAD      ACCESS:     544144  HIT:     544144  MISS:          0
cpu0_ITLB RFO       ACCESS:          0  HIT:          0  MISS:          0
cpu0_ITLB PREFETCH  ACCESS:          0  HIT:          0  MISS:          0
cpu0_ITLB WRITEBACK ACCESS:          0  HIT:          0  MISS:          0
cpu0_L1I TOTAL     ACCESS:    2741847  HIT:    2338933  MISS:     402914
cpu0_L1I LOAD      ACCESS:    2741847  HIT:    2338933  MISS:     402914
cpu0_L1I RFO       ACCESS:          0  HIT:          0  MISS:          0
cpu0_L1I PREFETCH  ACCESS:          0  HIT:          0  MISS:          0
cpu0_L1I WRITEBACK ACCESS:          0  HIT:          0  MISS:          0
cpu0_STLB TOTAL     ACCESS:    1055865  HIT:    1054738  MISS:       1127
cpu0_STLB LOAD      ACCESS:     928837  HIT:     927961  MISS:        876
cpu0_STLB RFO       ACCESS:     127028  HIT:     126777  MISS:        251
cpu0_STLB PREFETCH  ACCESS:          0  HIT:          0  MISS:          0
cpu0_STLB WRITEBACK ACCESS:          0  HIT:          0  MISS:          0
cpu0_L1D TOTAL     ACCESS:   10506628  HIT:    8468684  MISS:    2037944
cpu0_L1D LOAD      ACCESS:    8304827  HIT:    6438859  MISS:    1865968
cpu0_L1D RFO       ACCESS:    2200674  HIT:    2029825  MISS:     170849
cpu0_L1D PREFETCH  ACCESS:          0  HIT:          0  MISS:          0
cpu0_L1D WRITEBACK ACCESS:          0  HIT:          0  MISS:          0
cpu0_L2C TOTAL     ACCESS:    2623236  HIT:    2470061  MISS:     153175
cpu0_L2C LOAD      ACCESS:    2268615  HIT:    2135046  MISS:     133569
cpu0_L2C RFO       ACCESS:     170686  HIT:     151771  MISS:      18915
cpu0_L2C PREFETCH  ACCESS:          0  HIT:          0  MISS:          0
cpu0_L2C WRITEBACK ACCESS:     182808  HIT:     182735  MISS:         73
LLC TOTAL     ACCESS:     169984  HIT:      97127  MISS:      72857
LLC LOAD      ACCESS:     133568  HIT:      77106  MISS:      56462
LLC RFO       ACCESS:      16838  HIT:        463  MISS:      16375
LLC PREFETCH  ACCESS:          0  HIT:          0  MISS:          0
LLC WRITEBACK ACCESS:      18960  HIT:      18944  MISS:         16
Heartbeat CPU 0 instructions: 80000000 cycles: 37754273 heartbeat IPC: 1.56651 cumulative IPC: 1.57498 (Simulation time: 1 hr 16 min 46 sec) 

Region of Interest Statistics
cpu0_DTLB TOTAL     ACCESS:    7963292  HIT:    6831176  MISS:    1132116
cpu0_DTLB LOAD      ACCESS:    6836050  HIT:    5840045  MISS:     996005
cpu0_DTLB RFO       ACCESS:    1127242  HIT:     991131  MISS:     136111
cpu0_DTLB PREFETCH  ACCESS:          0  HIT:          0  MISS:          0
cpu0_DTLB WRITEBACK ACCESS:          0  HIT:          0  MISS:          0
cpu0_ITLB TOTAL     ACCESS:     582998  HIT:     582998  MISS:          0
cpu0_ITLB LOAD      ACCESS:     582998  HIT:     582998  MISS:          0
cpu0_ITLB RFO       ACCESS:          0  HIT:          0  MISS:          0
cpu0_ITLB PREFETCH  ACCESS:          0  HIT:          0  MISS:          0
cpu0_ITLB WRITEBACK ACCESS:          0  HIT:          0  MISS:          0
cpu0_L1I TOTAL     ACCESS:    2937697  HIT:    2506181  MISS:     431516
cpu0_L1I LOAD      ACCESS:    2937697  HIT:    2506181  MISS:     431516
cpu0_L1I RFO       ACCESS:          0  HIT:          0  MISS:          0
cpu0_L1I PREFETCH  ACCESS:          0  HIT:          0  MISS:          0
cpu0_L1I WRITEBACK ACCESS:          0  HIT:          0  MISS:          0
cpu0_STLB TOTAL     ACCESS:    1132116  HIT:    1130893  MISS:       1223
cpu0_STLB LOAD      ACCESS:     996005  HIT:     995058  MISS:        947
cpu0_STLB RFO       ACCESS:     136111  HIT:     135835  MISS:        276
cpu0_STLB PREFETCH  ACCESS:          0  HIT:          0  MISS:          0
cpu0_STLB WRITEBACK ACCESS:          0  HIT:          0  MISS:          0
cpu0_L1D TOTAL     ACCESS:   11256740  HIT:    9073070  MISS:    2183670
cpu0_L1D LOAD      ACCESS:    8897680  HIT:    6898259  MISS:    1999421
cpu0_L1D RFO       ACCESS:    2357837  HIT:    2174811  MISS:     183026
cpu0_L1D PREFETCH  ACCESS:          0  HIT:          0  MISS:          0
cpu0_L1D WRITEBACK ACCESS:          0  HIT:          0  MISS:          0
cpu0_L2C TOTAL     ACCESS:    2810593  HIT:    2647387  MISS:     163206
cpu0_L2C LOAD      ACCESS:    2430649  HIT:    2288278  MISS:     142371
cpu0_L2C RFO       ACCESS:     182842  HIT:     162742  MISS:      20100
cpu0_L2C PREFETCH  ACCESS:          0  HIT:          0  MISS:          0
cpu0_L2C WRITEBACK ACCESS:     195879  HIT:     195806  MISS:         73
LLC TOTAL     ACCESS:     181150  HIT:     102973  MISS:      78177
LLC LOAD      ACCESS:     142370  HIT:      81773  MISS:      60597
LLC RFO       ACCESS:      18023  HIT:        463  MISS:      17560
LLC PREFETCH  ACCESS:          0  HIT:          0  MISS:          0
LLC WRITEBACK ACCESS:      20095  HIT:      20079  MISS:         16
Heartbeat CPU 0 instructions: 82000000 cycles: 39016548 heartbeat IPC: 1.58444 cumulative IPC: 1.57557 (Simulation time: 1 hr 18 min 56 sec) 

Region of Interest Statistics
cpu0_DTLB TOTAL     ACCESS:    8494708  HIT:    7287698  MISS:    1207010
cpu0_DTLB LOAD      ACCESS:    7292448  HIT:    6230579  MISS:    1061869
cpu0_DTLB RFO       ACCESS:    1202260  HIT:    1057119  MISS:     145141
cpu0_DTLB PREFETCH  ACCESS:          0  HIT:          0  MISS:          0
cpu0_DTLB WRITEBACK ACCESS:          0  HIT:          0  MISS:          0
cpu0_ITLB TOTAL     ACCESS:     621934  HIT:     621934  MISS:          0
cpu0_ITLB LOAD      ACCESS:     621934  HIT:     621934  MISS:          0
cpu0_ITLB RFO       ACCESS:          0  HIT:          0  MISS:          0
cpu0_ITLB PREFETCH  ACCESS:          0  HIT:          0  MISS:          0
cpu0_ITLB WRITEBACK ACCESS:          0  HIT:          0  MISS:          0
cpu0_L1I TOTAL     ACCESS:    3133492  HIT:    2673216  MISS:     460276
cpu0_L1I LOAD      ACCESS:    3133492  HIT:    2673216  MISS:     460276
cpu0_L1I RFO       ACCESS:          0  HIT:          0  MISS:          0
cpu0_L1I PREFETCH  ACCESS:          0  HIT:          0  MISS:          0
cpu0_L1I WRITEBACK ACCESS:          0  HIT:          0  MISS:          0
cpu0_STLB TOTAL     ACCESS:    1207010  HIT:    1205723  MISS:       1287
cpu0_STLB LOAD      ACCESS:    1061869  HIT:    1060858  MISS:       1011
cpu0_STLB RFO       ACCESS:     145141  HIT:     144865  MISS:        276
cpu0_STLB PREFETCH  ACCESS:          0  HIT:          0  MISS:          0
cpu0_STLB WRITEBACK ACCESS:          0  HIT:          0  MISS:          0
cpu0_L1D TOTAL     ACCESS:   12006961  HIT:    9677694  MISS:    2329267
cpu0_L1D LOAD      ACCESS:    9490641  HIT:    7357883  MISS:    2132758
cpu0_L1D RFO       ACCESS:    2515033  HIT:    2319811  MISS:     195222
cpu0_L1D PREFETCH  ACCESS:          0  HIT:          0  MISS:          0
cpu0_L1D WRITEBACK ACCESS:          0  HIT:          0  MISS:          0
cpu0_L2C TOTAL     ACCESS:    2997961  HIT:    2825571  MISS:     172390
cpu0_L2C LOAD      ACCESS:    2592726  HIT:    2442354  MISS:     150372
cpu0_L2C RFO       ACCESS:     195020  HIT:     173755  MISS:      21265
cpu0_L2C PREFETCH  ACCESS:          0  HIT:          0  MISS:          0
cpu0_L2C WRITEBACK ACCESS:     208928  HIT:     208855  MISS:         73
LLC TOTAL     ACCESS:     191650  HIT:     108337  MISS:      83313
LLC LOAD      ACCESS:     150371  HIT:      85803  MISS:      64568
LLC RFO       ACCESS:      19188  HIT:        463  MISS:      18725
LLC PREFETCH  ACCESS:          0  HIT:          0  MISS:          0
LLC WRITEBACK ACCESS:      21411  HIT:      21395  MISS:         16
Heartbeat CPU 0 instructions: 84000003 cycles: 40291171 heartbeat IPC: 1.56909 cumulative IPC: 1.57519 (Simulation time: 1 hr 21 min 8 sec) 

Region of Interest Statistics
cpu0_DTLB TOTAL     ACCESS:    9026559  HIT:    7744389  MISS:    1282170
cpu0_DTLB LOAD      ACCESS:    7748481  HIT:    6620502  MISS:    1127979
cpu0_DTLB RFO       ACCESS:    1278078  HIT:    1123887  MISS:     154191
cpu0_DTLB PREFETCH  ACCESS:          0  HIT:          0  MISS:          0
cpu0_DTLB WRITEBACK ACCESS:          0  HIT:          0  MISS:          0
cpu0_ITLB TOTAL     ACCESS:     660839  HIT:     660839  MISS:          0
cpu0_ITLB LOAD      ACCESS:     660839  HIT:     660839  MISS:          0
cpu0_ITLB RFO       ACCESS:          0  HIT:          0  MISS:          0
cpu0_ITLB PREFETCH  ACCESS:          0  HIT:          0  MISS:          0
cpu0_ITLB WRITEBACK ACCESS:          0  HIT:          0  MISS:          0
cpu0_L1I TOTAL     ACCESS:    3329300  HIT:    2840587  MISS:     488713
cpu0_L1I LOAD      ACCESS:    3329300  HIT:    2840587  MISS:     488713
cpu0_L1I RFO       ACCESS:          0  HIT:          0  MISS:          0
cpu0_L1I PREFETCH  ACCESS:          0  HIT:          0  MISS:          0
cpu0_L1I WRITEBACK ACCESS:          0  HIT:          0  MISS:          0
cpu0_STLB TOTAL     ACCESS:    1282170  HIT:    1280802  MISS:       1368
cpu0_STLB LOAD      ACCESS:    1127979  HIT:    1126912  MISS:       1067
cpu0_STLB RFO       ACCESS:     154191  HIT:     153890  MISS:        301
cpu0_STLB PREFETCH  ACCESS:          0  HIT:          0  MISS:          0
cpu0_STLB WRITEBACK ACCESS:          0  HIT:          0  MISS:          0
cpu0_L1D TOTAL     ACCESS:   12756650  HIT:   10282076  MISS:    2474574
cpu0_L1D LOAD      ACCESS:   10083144  HIT:    7817452  MISS:    2265692
cpu0_L1D RFO       ACCESS:    2672138  HIT:    2464624  MISS:     207514
cpu0_L1D PREFETCH  ACCESS:          0  HIT:          0  MISS:          0
cpu0_L1D WRITEBACK ACCESS:          0  HIT:          0  MISS:          0
cpu0_L2C TOTAL     ACCESS:    3184838  HIT:    3001487  MISS:     183351
cpu0_L2C LOAD      ACCESS:    2754086  HIT:    2594887  MISS:     159199
cpu0_L2C RFO       ACCESS:     207298  HIT:     183951  MISS:      23347
cpu0_L2C PREFETCH  ACCESS:          0  HIT:          0  MISS:          0
cpu0_L2C WRITEBACK ACCESS:     222086  HIT:     222013  MISS:         73
LLC TOTAL     ACCESS:     204026  HIT:     115498  MISS:      88528
LLC LOAD      ACCESS:     159198  HIT:      90590  MISS:      68608
LLC RFO       ACCESS:      20577  HIT:        677  MISS:      19900
LLC PREFETCH  ACCESS:          0  HIT:          0  MISS:          0
LLC WRITEBACK ACCESS:      23519  HIT:      23503  MISS:         16
Heartbeat CPU 0 instructions: 86000000 cycles: 41564800 heartbeat IPC: 1.57031 cumulative IPC: 1.57492 (Simulation time: 1 hr 23 min 20 sec) 

Region of Interest Statistics
cpu0_DTLB TOTAL     ACCESS:    9557468  HIT:    8199645  MISS:    1357823
cpu0_DTLB LOAD      ACCESS:    8203685  HIT:    7009101  MISS:    1194584
cpu0_DTLB RFO       ACCESS:    1353783  HIT:    1190544  MISS:     163239
cpu0_DTLB PREFETCH  ACCESS:          0  HIT:          0  MISS:          0
cpu0_DTLB WRITEBACK ACCESS:          0  HIT:          0  MISS:          0
cpu0_ITLB TOTAL     ACCESS:     699709  HIT:     699709  MISS:          0
cpu0_ITLB LOAD      ACCESS:     699709  HIT:     699709  MISS:          0
cpu0_ITLB RFO       ACCESS:          0  HIT:          0  MISS:          0
cpu0_ITLB PREFETCH  ACCESS:          0  HIT:          0  MISS:          0
cpu0_ITLB WRITEBACK ACCESS:          0  HIT:          0  MISS:          0
cpu0_L1I TOTAL     ACCESS:    3525130  HIT:    3007371  MISS:     517759
cpu0_L1I LOAD      ACCESS:    3525130  HIT:    3007371  MISS:     517759
cpu0_L1I RFO       ACCESS:          0  HIT:          0  MISS:          0
cpu0_L1I PREFETCH  ACCESS:          0  HIT:          0  MISS:          0
cpu0_L1I WRITEBACK ACCESS:          0  HIT:          0  MISS:          0
cpu0_STLB TOTAL     ACCESS:    1357823  HIT:    1356363  MISS:       1460
cpu0_STLB LOAD      ACCESS:    1194584  HIT:    1193450  MISS:       1134
cpu0_STLB RFO       ACCESS:     163239  HIT:     162913  MISS:        326
cpu0_STLB PREFETCH  ACCESS:          0  HIT:          0  MISS:          0
cpu0_STLB WRITEBACK ACCESS:          0  HIT:          0  MISS:          0
cpu0_L1D TOTAL     ACCESS:   13506901  HIT:   10886728  MISS:    2620173
cpu0_L1D LOAD      ACCESS:   10676121  HIT:    8277152  MISS:    2398969
cpu0_L1D RFO       ACCESS:    2829320  HIT:    2609576  MISS:     219744
cpu0_L1D PREFETCH  ACCESS:          0  HIT:          0  MISS:          0
cpu0_L1D WRITEBACK ACCESS:          0  HIT:          0  MISS:          0
cpu0_L2C TOTAL     ACCESS:    3372530  HIT:    3177780  MISS:     194750
cpu0_L2C LOAD      ACCESS:    2916393  HIT:    2747848  MISS:     168545
cpu0_L2C RFO       ACCESS:     219517  HIT:     194160  MISS:      25357
cpu0_L2C PREFETCH  ACCESS:          0  HIT:          0  MISS:          0
cpu0_L2C WRITEBACK ACCESS:     235160  HIT:     235087  MISS:         73
LLC TOTAL     ACCESS:     216802  HIT:     123051  MISS:      93751
LLC LOAD      ACCESS:     168544  HIT:      95885  MISS:      72659
LLC RFO       ACCESS:      21985  HIT:        913  MISS:      21072
LLC PREFETCH  ACCESS:          0  HIT:          0  MISS:          0
LLC WRITEBACK ACCESS:      25498  HIT:      25482  MISS:         16
Heartbeat CPU 0 instructions: 88000001 cycles: 42824893 heartbeat IPC: 1.58719 cumulative IPC: 1.57556 (Simulation time: 1 hr 25 min 30 sec) 

Region of Interest Statistics
cpu0_DTLB TOTAL     ACCESS:   10087967  HIT:    8654689  MISS:    1433278
cpu0_DTLB LOAD      ACCESS:    8659422  HIT:    7398433  MISS:    1260989
cpu0_DTLB RFO       ACCESS:    1428545  HIT:    1256256  MISS:     172289
cpu0_DTLB PREFETCH  ACCESS:          0  HIT:          0  MISS:          0
cpu0_DTLB WRITEBACK ACCESS:          0  HIT:          0  MISS:          0
cpu0_ITLB TOTAL     ACCESS:     738581  HIT:     738581  MISS:          0
cpu0_ITLB LOAD      ACCESS:     738581  HIT:     738581  MISS:          0
cpu0_ITLB RFO       ACCESS:          0  HIT:          0  MISS:          0
cpu0_ITLB PREFETCH  ACCESS:          0  HIT:          0  MISS:          0
cpu0_ITLB WRITEBACK ACCESS:          0  HIT:          0  MISS:          0
cpu0_L1I TOTAL     ACCESS:    3720977  HIT:    3174295  MISS:     546682
cpu0_L1I LOAD      ACCESS:    3720977  HIT:    3174295  MISS:     546682
cpu0_L1I RFO       ACCESS:          0  HIT:          0  MISS:          0
cpu0_L1I PREFETCH  ACCESS:          0  HIT:          0  MISS:          0
cpu0_L1I WRITEBACK ACCESS:          0  HIT:          0  MISS:          0
cpu0_STLB TOTAL     ACCESS:    1433278  HIT:    1431758  MISS:       1520
cpu0_STLB LOAD      ACCESS:    1260989  HIT:    1259795  MISS:       1194
cpu0_STLB RFO       ACCESS:     172289  HIT:     171963  MISS:        326
cpu0_STLB PREFETCH  ACCESS:          0  HIT:          0  MISS:          0
cpu0_STLB WRITEBACK ACCESS:          0  HIT:          0  MISS:          0
cpu0_L1D TOTAL     ACCESS:   14257065  HIT:   11491404  MISS:    2765661
cpu0_L1D LOAD      ACCESS:   11269040  HIT:    8736853  MISS:    2532187
cpu0_L1D RFO       ACCESS:    2986505  HIT:    2754551  MISS:     231954
cpu0_L1D PREFETCH  ACCESS:          0  HIT:          0  MISS:          0
cpu0_L1D WRITEBACK ACCESS:          0  HIT:          0  MISS:          0
cpu0_L2C TOTAL     ACCESS:    3559990  HIT:    3355171  MISS:     204819
cpu0_L2C LOAD      ACCESS:    3078511  HIT:    2901056  MISS:     177455
cpu0_L2C RFO       ACCESS:     231712  HIT:     205202  MISS:      26510
cpu0_L2C PREFETCH  ACCESS:          0  HIT:          0  MISS:          0
cpu0_L2C WRITEBACK ACCESS:     248247  HIT:     248174  MISS:         73
LLC TOTAL     ACCESS:     227839  HIT:     128968  MISS:      98871
LLC LOAD      ACCESS:     177454  HIT:     100828  MISS:      76626
LLC RFO       ACCESS:      23138  HIT:        913  MISS:      22225
LLC PREFETCH  ACCESS:          0  HIT:          0  MISS:          0
LLC WRITEBACK ACCESS:      26466  HIT:      26450  MISS:         16
Heartbeat CPU 0 instructions: 90000001 cycles: 44101503 heartbeat IPC: 1.56665 cumulative IPC: 1.57511 (Simulation time: 1 hr 27 min 43 sec) 

Region of Interest Statistics
cpu0_DTLB TOTAL     ACCESS:   10619258  HIT:    9110436  MISS:    1508822
cpu0_DTLB LOAD      ACCESS:    9115911  HIT:    7788450  MISS:    1327461
cpu0_DTLB RFO       ACCESS:    1503347  HIT:    1321986  MISS:     181361
cpu0_DTLB PREFETCH  ACCESS:          0  HIT:          0  MISS:          0
cpu0_DTLB WRITEBACK ACCESS:          0  HIT:          0  MISS:          0
cpu0_ITLB TOTAL     ACCESS:     777452  HIT:     777452  MISS:          0
cpu0_ITLB LOAD      ACCESS:     777452  HIT:     777452  MISS:          0
cpu0_ITLB RFO       ACCESS:          0  HIT:          0  MISS:          0
cpu0_ITLB PREFETCH  ACCESS:          0  HIT:          0  MISS:          0
cpu0_ITLB WRITEBACK ACCESS:          0  HIT:          0  MISS:          0
cpu0_L1I TOTAL     ACCESS:    3916776  HIT:    3341479  MISS:     575297
cpu0_L1I LOAD      ACCESS:    3916776  HIT:    3341479  MISS:     575297
cpu0_L1I RFO       ACCESS:          0  HIT:          0  MISS:          0
cpu0_L1I PREFETCH  ACCESS:          0  HIT:          0  MISS:          0
cpu0_L1I WRITEBACK ACCESS:          0  HIT:          0  MISS:          0
cpu0_STLB TOTAL     ACCESS:    1508822  HIT:    1507217  MISS:       1605
cpu0_STLB LOAD      ACCESS:    1327461  HIT:    1326207  MISS:       1254
cpu0_STLB RFO       ACCESS:     181361  HIT:     181010  MISS:        351
cpu0_STLB PREFETCH  ACCESS:          0  HIT:          0  MISS:          0
cpu0_STLB WRITEBACK ACCESS:          0  HIT:          0  MISS:          0
cpu0_L1D TOTAL     ACCESS:   15007610  HIT:   12096230  MISS:    2911380
cpu0_L1D LOAD      ACCESS:   11862213  HIT:    9196563  MISS:    2665650
cpu0_L1D RFO       ACCESS:    3143792  HIT:    2899667  MISS:     244125
cpu0_L1D PREFETCH  ACCESS:          0  HIT:          0  MISS:          0
cpu0_L1D WRITEBACK ACCESS:          0  HIT:          0  MISS:          0
cpu0_L2C TOTAL     ACCESS:    3747271  HIT:    3531569  MISS:     215702
cpu0_L2C LOAD      ACCESS:    3240576  HIT:    3053465  MISS:     187111
cpu0_L2C RFO       ACCESS:     243870  HIT:     216160  MISS:      27710
cpu0_L2C PREFETCH  ACCESS:          0  HIT:          0  MISS:          0
cpu0_L2C WRITEBACK ACCESS:     261220  HIT:     261147  MISS:         73
LLC TOTAL     ACCESS:     239922  HIT:     135734  MISS:     104188
LLC LOAD      ACCESS:     187110  HIT:     106367  MISS:      80743
LLC RFO       ACCESS:      24338  HIT:        913  MISS:      23425
LLC PREFETCH  ACCESS:          0  HIT:          0  MISS:          0
LLC WRITEBACK ACCESS:      27666  HIT:      27650  MISS:         16
Heartbeat CPU 0 instructions: 92000002 cycles: 45363515 heartbeat IPC: 1.58477 cumulative IPC: 1.57557 (Simulation time: 1 hr 29 min 53 sec) 

Region of Interest Statistics
cpu0_DTLB TOTAL     ACCESS:   11150167  HIT:    9565868  MISS:    1584299
cpu0_DTLB LOAD      ACCESS:    9571855  HIT:    8178024  MISS:    1393831
cpu0_DTLB RFO       ACCESS:    1578312  HIT:    1387844  MISS:     190468
cpu0_DTLB PREFETCH  ACCESS:          0  HIT:          0  MISS:          0
cpu0_DTLB WRITEBACK ACCESS:          0  HIT:          0  MISS:          0
cpu0_ITLB TOTAL     ACCESS:     816306  HIT:     816306  MISS:          0
cpu0_ITLB LOAD      ACCESS:     816306  HIT:     816306  MISS:          0
cpu0_ITLB RFO       ACCESS:          0  HIT:          0  MISS:          0
cpu0_ITLB PREFETCH  ACCESS:          0  HIT:          0  MISS:          0
cpu0_ITLB WRITEBACK ACCESS:          0  HIT:          0  MISS:          0
cpu0_L1I TOTAL     ACCESS:    4112606  HIT:    3508579  MISS:     604027
cpu0_L1I LOAD      ACCESS:    4112606  HIT:    3508579  MISS:     604027
cpu0_L1I RFO       ACCESS:          0  HIT:          0  MISS:          0
cpu0_L1I PREFETCH  ACCESS:          0  HIT:          0  MISS:          0
cpu0_L1I WRITEBACK ACCESS:          0  HIT:          0  MISS:          0
cpu0_STLB TOTAL     ACCESS:    1584299  HIT:    1582598  MISS:       1701
cpu0_STLB LOAD      ACCESS:    1393831  HIT:    1392506  MISS:       1325
cpu0_STLB RFO       ACCESS:     190468  HIT:     190092  MISS:        376
cpu0_STLB PREFETCH  ACCESS:          0  HIT:          0  MISS:          0
cpu0_STLB WRITEBACK ACCESS:          0  HIT:          0  MISS:          0
cpu0_L1D TOTAL     ACCESS:   15758143  HIT:   12701277  MISS:    3056866
cpu0_L1D LOAD      ACCESS:   12455524  HIT:    9656780  MISS:    2798744
cpu0_L1D RFO       ACCESS:    3300918  HIT:    3044497  MISS:     256421
cpu0_L1D PREFETCH  ACCESS:          0  HIT:          0  MISS:          0
cpu0_L1D WRITEBACK ACCESS:          0  HIT:          0  MISS:          0
cpu0_L2C TOTAL     ACCESS:    3934560  HIT:    3708044  MISS:     226516
cpu0_L2C LOAD      ACCESS:    3402384  HIT:    3205660  MISS:     196724
cpu0_L2C RFO       ACCESS:     256160  HIT:     227300  MISS:      28860
cpu0_L2C PREFETCH  ACCESS:          0  HIT:          0  MISS:          0
cpu0_L2C WRITEBACK ACCESS:     274315  HIT:     274233  MISS:         82
LLC TOTAL     ACCESS:     251878  HIT:     142533  MISS:     109345
LLC LOAD      ACCESS:     196723  HIT:     111979  MISS:      84744
LLC RFO       ACCESS:      25488  HIT:        913  MISS:      24575
LLC PREFETCH  ACCESS:          0  HIT:          0  MISS:          0
LLC WRITEBACK ACCESS:      28817  HIT:      28795  MISS:         22
Heartbeat CPU 0 instructions: 94000001 cycles: 46628671 heartbeat IPC: 1.58083 cumulative IPC: 1.57581 (Simulation time: 1 hr 32 min 3 sec) 

Region of Interest Statistics
cpu0_DTLB TOTAL     ACCESS:   11680510  HIT:   10020934  MISS:    1659576
cpu0_DTLB LOAD      ACCESS:   10027166  HIT:    8567088  MISS:    1460078
cpu0_DTLB RFO       ACCESS:    1653344  HIT:    1453846  MISS:     199498
cpu0_DTLB PREFETCH  ACCESS:          0  HIT:          0  MISS:          0
cpu0_DTLB WRITEBACK ACCESS:          0  HIT:          0  MISS:          0
cpu0_ITLB TOTAL     ACCESS:     855106  HIT:     855106  MISS:          0
cpu0_ITLB LOAD      ACCESS:     855106  HIT:     855106  MISS:          0
cpu0_ITLB RFO       ACCESS:          0  HIT:          0  MISS:          0
cpu0_ITLB PREFETCH  ACCESS:          0  HIT:          0  MISS:          0
cpu0_ITLB WRITEBACK ACCESS:          0  HIT:          0  MISS:          0
cpu0_L1I TOTAL     ACCESS:    4308431  HIT:    3675426  MISS:     633005
cpu0_L1I LOAD      ACCESS:    4308431  HIT:    3675426  MISS:     633005
cpu0_L1I RFO       ACCESS:          0  HIT:          0  MISS:          0
cpu0_L1I PREFETCH  ACCESS:          0  HIT:          0  MISS:          0
cpu0_L1I WRITEBACK ACCESS:          0  HIT:          0  MISS:          0
cpu0_STLB TOTAL     ACCESS:    1659576  HIT:    1657787  MISS:       1789
cpu0_STLB LOAD      ACCESS:    1460078  HIT:    1458690  MISS:       1388
cpu0_STLB RFO       ACCESS:     199498  HIT:     199097  MISS:        401
cpu0_STLB PREFETCH  ACCESS:          0  HIT:          0  MISS:          0
cpu0_STLB WRITEBACK ACCESS:          0  HIT:          0  MISS:          0
cpu0_L1D TOTAL     ACCESS:   16508328  HIT:   13305916  MISS:    3202412
cpu0_L1D LOAD      ACCESS:   13048413  HIT:   10116421  MISS:    2931992
cpu0_L1D RFO       ACCESS:    3458126  HIT:    3189495  MISS:     268631
cpu0_L1D PREFETCH  ACCESS:          0  HIT:          0  MISS:          0
cpu0_L1D WRITEBACK ACCESS:          0  HIT:          0  MISS:          0
cpu0_L2C TOTAL     ACCESS:    4122129  HIT:    3884674  MISS:     237455
cpu0_L2C LOAD      ACCESS:    3564591  HIT:    3358157  MISS:     206434
cpu0_L2C RFO       ACCESS:     268358  HIT:     238323  MISS:      30035
cpu0_L2C PREFETCH  ACCESS:          0  HIT:          0  MISS:          0
cpu0_L2C WRITEBACK ACCESS:     287391  HIT:     287300  MISS:         91
LLC TOTAL     ACCESS:     263888  HIT:     149367  MISS:     114521
LLC LOAD      ACCESS:     206433  HIT:     117690  MISS:      88743
LLC RFO       ACCESS:      26663  HIT:        913  MISS:      25750
LLC PREFETCH  ACCESS:          0  HIT:          0  MISS:          0
LLC WRITEBACK ACCESS:      29897  HIT:      29873  MISS:         24
Heartbeat CPU 0 instructions: 96000000 cycles: 47896981 heartbeat IPC: 1.5769 cumulative IPC: 1.57585 (Simulation time: 1 hr 34 min 16 sec) 

Region of Interest Statistics
cpu0_DTLB TOTAL     ACCESS:   12211645  HIT:   10476972  MISS:    1734673
cpu0_DTLB LOAD      ACCESS:   10483301  HIT:    8957177  MISS:    1526124
cpu0_DTLB RFO       ACCESS:    1728344  HIT:    1519795  MISS:     208549
cpu0_DTLB PREFETCH  ACCESS:          0  HIT:          0  MISS:          0
cpu0_DTLB WRITEBACK ACCESS:          0  HIT:          0  MISS:          0
cpu0_ITLB TOTAL     ACCESS:     894020  HIT:     894020  MISS:          0
cpu0_ITLB LOAD      ACCESS:     894020  HIT:     894020  MISS:          0
cpu0_ITLB RFO       ACCESS:          0  HIT:          0  MISS:          0
cpu0_ITLB PREFETCH  ACCESS:          0  HIT:          0  MISS:          0
cpu0_ITLB WRITEBACK ACCESS:          0  HIT:          0  MISS:          0
cpu0_L1I TOTAL     ACCESS:    4504406  HIT:    3842282  MISS:     662124
cpu0_L1I LOAD      ACCESS:    4504406  HIT:    3842282  MISS:     662124
cpu0_L1I RFO       ACCESS:          0  HIT:          0  MISS:          0
cpu0_L1I PREFETCH  ACCESS:          0  HIT:          0  MISS:          0
cpu0_L1I WRITEBACK ACCESS:          0  HIT:          0  MISS:          0
cpu0_STLB TOTAL     ACCESS:    1734673  HIT:    1732820  MISS:       1853
cpu0_STLB LOAD      ACCESS:    1526124  HIT:    1524672  MISS:       1452
cpu0_STLB RFO       ACCESS:     208549  HIT:     208148  MISS:        401
cpu0_STLB PREFETCH  ACCESS:          0  HIT:          0  MISS:          0
cpu0_STLB WRITEBACK ACCESS:          0  HIT:          0  MISS:          0
cpu0_L1D TOTAL     ACCESS:   17258677  HIT:   13910782  MISS:    3347895
cpu0_L1D LOAD      ACCESS:   13641527  HIT:   10576267  MISS:    3065260
cpu0_L1D RFO       ACCESS:    3615297  HIT:    3334515  MISS:     280782
cpu0_L1D PREFETCH  ACCESS:          0  HIT:          0  MISS:          0
cpu0_L1D WRITEBACK ACCESS:          0  HIT:          0  MISS:          0
cpu0_L2C TOTAL     ACCESS:    4309661  HIT:    4061080  MISS:     248581
cpu0_L2C LOAD      ACCESS:    3726958  HIT:    3510602  MISS:     216356
cpu0_L2C RFO       ACCESS:     280488  HIT:     249278  MISS:      31210
cpu0_L2C PREFETCH  ACCESS:          0  HIT:          0  MISS:          0
cpu0_L2C WRITEBACK ACCESS:     300362  HIT:     300253  MISS:        109
LLC TOTAL     ACCESS:     276414  HIT:     156674  MISS:     119740
LLC LOAD      ACCESS:     216355  HIT:     123570  MISS:      92785
LLC RFO       ACCESS:      27838  HIT:        913  MISS:      26925
LLC PREFETCH  ACCESS:          0  HIT:          0  MISS:          0
LLC WRITEBACK ACCESS:      31315  HIT:      31289  MISS:         26
Heartbeat CPU 0 instructions: 98000003 cycles: 49162220 heartbeat IPC: 1.58073 cumulative IPC: 1.57606 (Simulation time: 1 hr 36 min 25 sec) 

Region of Interest Statistics
cpu0_DTLB TOTAL     ACCESS:   12742849  HIT:   10932976  MISS:    1809873
cpu0_DTLB LOAD      ACCESS:   10939712  HIT:    9347543  MISS:    1592169
cpu0_DTLB RFO       ACCESS:    1803137  HIT:    1585433  MISS:     217704
cpu0_DTLB PREFETCH  ACCESS:          0  HIT:          0  MISS:          0
cpu0_DTLB WRITEBACK ACCESS:          0  HIT:          0  MISS:          0
cpu0_ITLB TOTAL     ACCESS:     932934  HIT:     932934  MISS:          0
cpu0_ITLB LOAD      ACCESS:     932934  HIT:     932934  MISS:          0
cpu0_ITLB RFO       ACCESS:          0  HIT:          0  MISS:          0
cpu0_ITLB PREFETCH  ACCESS:          0  HIT:          0  MISS:          0
cpu0_ITLB WRITEBACK ACCESS:          0  HIT:          0  MISS:          0
cpu0_L1I TOTAL     ACCESS:    4700339  HIT:    4009355  MISS:     690984
cpu0_L1I LOAD      ACCESS:    4700339  HIT:    4009355  MISS:     690984
cpu0_L1I RFO       ACCESS:          0  HIT:          0  MISS:          0
cpu0_L1I PREFETCH  ACCESS:          0  HIT:          0  MISS:          0
cpu0_L1I WRITEBACK ACCESS:          0  HIT:          0  MISS:          0
cpu0_STLB TOTAL     ACCESS:    1809873  HIT:    1807935  MISS:       1938
cpu0_STLB LOAD      ACCESS:    1592169  HIT:    1590657  MISS:       1512
cpu0_STLB RFO       ACCESS:     217704  HIT:     217278  MISS:        426
cpu0_STLB PREFETCH  ACCESS:          0  HIT:          0  MISS:          0
cpu0_STLB WRITEBACK ACCESS:          0  HIT:          0  MISS:          0
cpu0_L1D TOTAL     ACCESS:   18009297  HIT:   14515806  MISS:    3493491
cpu0_L1D LOAD      ACCESS:   14234855  HIT:   11036293  MISS:    3198562
cpu0_L1D RFO       ACCESS:    3772504  HIT:    3479513  MISS:     292991
cpu0_L1D PREFETCH  ACCESS:          0  HIT:          0  MISS:          0
cpu0_L1D WRITEBACK ACCESS:          0  HIT:          0  MISS:          0
cpu0_L2C TOTAL     ACCESS:    4497132  HIT:    4238513  MISS:     258619
cpu0_L2C LOAD      ACCESS:    3889110  HIT:    3663917  MISS:     225193
cpu0_L2C RFO       ACCESS:     292684  HIT:     260324  MISS:      32360
cpu0_L2C PREFETCH  ACCESS:          0  HIT:          0  MISS:          0
cpu0_L2C WRITEBACK ACCESS:     313400  HIT:     313288  MISS:        112
LLC TOTAL     ACCESS:     287611  HIT:     162679  MISS:     124932
LLC LOAD      ACCESS:     225192  HIT:     128365  MISS:      96827
LLC RFO       ACCESS:      28988  HIT:        913  MISS:      28075
LLC PREFETCH  ACCESS:          0  HIT:          0  MISS:          0
LLC WRITEBACK ACCESS:      32477  HIT:      32451  MISS:         26
Heartbeat CPU 0 instructions: 100000001 cycles: 50426853 heartbeat IPC: 1.58148 cumulative IPC: 1.57627 (Simulation time: 1 hr 38 min 33 sec) 

Region of Interest Statistics
cpu0_DTLB TOTAL     ACCESS:   13273568  HIT:   11388596  MISS:    1884972
cpu0_DTLB LOAD      ACCESS:   11395450  HIT:    9737240  MISS:    1658210
cpu0_DTLB RFO       ACCESS:    1878118  HIT:    1651356  MISS:     226762
cpu0_DTLB PREFETCH  ACCESS:          0  HIT:          0  MISS:          0
cpu0_DTLB WRITEBACK ACCESS:          0  HIT:          0  MISS:          0
cpu0_ITLB TOTAL     ACCESS:     971860  HIT:     971860  MISS:          0
cpu0_ITLB LOAD      ACCESS:     971860  HIT:     971860  MISS:          0
cpu0_ITLB RFO       ACCESS:          0  HIT:          0  MISS:          0
cpu0_ITLB PREFETCH  ACCESS:          0  HIT:          0  MISS:          0
cpu0_ITLB WRITEBACK ACCESS:          0  HIT:          0  MISS:          0
cpu0_L1I TOTAL     ACCESS:    4896374  HIT:    4176432  MISS:     719942
cpu0_L1I LOAD      ACCESS:    4896374  HIT:    4176432  MISS:     719942
cpu0_L1I RFO       ACCESS:          0  HIT:          0  MISS:          0
cpu0_L1I PREFETCH  ACCESS:          0  HIT:          0  MISS:          0
cpu0_L1I WRITEBACK ACCESS:          0  HIT:          0  MISS:          0
cpu0_STLB TOTAL     ACCESS:    1884972  HIT:    1882942  MISS:       2030
cpu0_STLB LOAD      ACCESS:    1658210  HIT:    1656631  MISS:       1579
cpu0_STLB RFO       ACCESS:     226762  HIT:     226311  MISS:        451
cpu0_STLB PREFETCH  ACCESS:          0  HIT:          0  MISS:          0
cpu0_STLB WRITEBACK ACCESS:          0  HIT:          0  MISS:          0
cpu0_L1D TOTAL     ACCESS:   18759454  HIT:   15120175  MISS:    3639279
cpu0_L1D LOAD      ACCESS:   14827786  HIT:   11495721  MISS:    3332065
cpu0_L1D RFO       ACCESS:    3929638  HIT:    3624454  MISS:     305184
cpu0_L1D PREFETCH  ACCESS:          0  HIT:          0  MISS:          0
cpu0_L1D WRITEBACK ACCESS:          0  HIT:          0  MISS:          0
cpu0_L2C TOTAL     ACCESS:    4684918  HIT:    4416261  MISS:     268657
cpu0_L2C LOAD      ACCESS:    4051555  HIT:    3817564  MISS:     233991
cpu0_L2C RFO       ACCESS:     304870  HIT:     271321  MISS:      33549
cpu0_L2C PREFETCH  ACCESS:          0  HIT:          0  MISS:          0
cpu0_L2C WRITEBACK ACCESS:     326463  HIT:     326346  MISS:        117
LLC TOTAL     ACCESS:     298755  HIT:     168678  MISS:     130077
LLC LOAD      ACCESS:     233990  HIT:     133193  MISS:     100797
LLC RFO       ACCESS:      30170  HIT:        920  MISS:      29250
LLC PREFETCH  ACCESS:          0  HIT:          0  MISS:          0
LLC WRITEBACK ACCESS:      33595  HIT:      33569  MISS:         26
Heartbeat CPU 0 instructions: 102000004 cycles: 51701069 heartbeat IPC: 1.56959 cumulative IPC: 1.57602 (Simulation time: 1 hr 40 min 44 sec) 

Region of Interest Statistics
cpu0_DTLB TOTAL     ACCESS:   13804014  HIT:   11843559  MISS:    1960455
cpu0_DTLB LOAD      ACCESS:   11851010  HIT:   10126423  MISS:    1724587
cpu0_DTLB RFO       ACCESS:    1953004  HIT:    1717136  MISS:     235868
cpu0_DTLB PREFETCH  ACCESS:          0  HIT:          0  MISS:          0
cpu0_DTLB WRITEBACK ACCESS:          0  HIT:          0  MISS:          0
cpu0_ITLB TOTAL     ACCESS:    1010748  HIT:    1010748  MISS:          0
cpu0_ITLB LOAD      ACCESS:    1010748  HIT:    1010748  MISS:          0
cpu0_ITLB RFO       ACCESS:          0  HIT:          0  MISS:          0
cpu0_ITLB PREFETCH  ACCESS:          0  HIT:          0  MISS:          0
cpu0_ITLB WRITEBACK ACCESS:          0  HIT:          0  MISS:          0
cpu0_L1I TOTAL     ACCESS:    5092387  HIT:    4343587  MISS:     748800
cpu0_L1I LOAD      ACCESS:    5092387  HIT:    4343587  MISS:     748800
cpu0_L1I RFO       ACCESS:          0  HIT:          0  MISS:          0
cpu0_L1I PREFETCH  ACCESS:          0  HIT:          0  MISS:          0
cpu0_L1I WRITEBACK ACCESS:          0  HIT:          0  MISS:          0
cpu0_STLB TOTAL     ACCESS:    1960455  HIT:    1958333  MISS:       2122
cpu0_STLB LOAD      ACCESS:    1724587  HIT:    1722941  MISS:       1646
cpu0_STLB RFO       ACCESS:     235868  HIT:     235392  MISS:        476
cpu0_STLB PREFETCH  ACCESS:          0  HIT:          0  MISS:          0
cpu0_STLB WRITEBACK ACCESS:          0  HIT:          0  MISS:          0
cpu0_L1D TOTAL     ACCESS:   19509490  HIT:   15724633  MISS:    3784857
cpu0_L1D LOAD      ACCESS:   15420477  HIT:   11955098  MISS:    3465379
cpu0_L1D RFO       ACCESS:    4086891  HIT:    3769535  MISS:     317356
cpu0_L1D PREFETCH  ACCESS:          0  HIT:          0  MISS:          0
cpu0_L1D WRITEBACK ACCESS:          0  HIT:          0  MISS:          0
cpu0_L2C TOTAL     ACCESS:    4872377  HIT:    4592356  MISS:     280021
cpu0_L2C LOAD      ACCESS:    4213708  HIT:    3969598  MISS:     244110
cpu0_L2C RFO       ACCESS:     317032  HIT:     282283  MISS:      34749
cpu0_L2C PREFETCH  ACCESS:          0  HIT:          0  MISS:          0
cpu0_L2C WRITEBACK ACCESS:     339515  HIT:     339398  MISS:        117
LLC TOTAL     ACCESS:     311187  HIT:     175792  MISS:     135395
LLC LOAD      ACCESS:     244109  HIT:     139193  MISS:     104916
LLC RFO       ACCESS:      31370  HIT:        921  MISS:      30449
LLC PREFETCH  ACCESS:          0  HIT:          0  MISS:          0
LLC WRITEBACK ACCESS:      34663  HIT:      34637  MISS:         26
Heartbeat CPU 0 instructions: 104000004 cycles: 52962919 heartbeat IPC: 1.58497 cumulative IPC: 1.57635 (Simulation time: 1 hr 42 min 45 sec) 

Region of Interest Statistics
cpu0_DTLB TOTAL     ACCESS:   14334651  HIT:   12298724  MISS:    2035927
cpu0_DTLB LOAD      ACCESS:   12306988  HIT:   10516101  MISS:    1790887
cpu0_DTLB RFO       ACCESS:    2027663  HIT:    1782623  MISS:     245040
cpu0_DTLB PREFETCH  ACCESS:          0  HIT:          0  MISS:          0
cpu0_DTLB WRITEBACK ACCESS:          0  HIT:          0  MISS:          0
cpu0_ITLB TOTAL     ACCESS:    1049656  HIT:    1049656  MISS:          0
cpu0_ITLB LOAD      ACCESS:    1049656  HIT:    1049656  MISS:          0
cpu0_ITLB RFO       ACCESS:          0  HIT:          0  MISS:          0
cpu0_ITLB PREFETCH  ACCESS:          0  HIT:          0  MISS:          0
cpu0_ITLB WRITEBACK ACCESS:          0  HIT:          0  MISS:          0
cpu0_L1I TOTAL     ACCESS:    5288387  HIT:    4510429  MISS:     777958
cpu0_L1I LOAD      ACCESS:    5288387  HIT:    4510429  MISS:     777958
cpu0_L1I RFO       ACCESS:          0  HIT:          0  MISS:          0
cpu0_L1I PREFETCH  ACCESS:          0  HIT:          0  MISS:          0
cpu0_L1I WRITEBACK ACCESS:          0  HIT:          0  MISS:          0
cpu0_STLB TOTAL     ACCESS:    2035927  HIT:    2033752  MISS:       2175
cpu0_STLB LOAD      ACCESS:    1790887  HIT:    1789188  MISS:       1699
cpu0_STLB RFO       ACCESS:     245040  HIT:     244564  MISS:        476
cpu0_STLB PREFETCH  ACCESS:          0  HIT:          0  MISS:          0
cpu0_STLB WRITEBACK ACCESS:          0  HIT:          0  MISS:          0
cpu0_L1D TOTAL     ACCESS:   20261037  HIT:   16330762  MISS:    3930275
cpu0_L1D LOAD      ACCESS:   16014756  HIT:   12416143  MISS:    3598613
cpu0_L1D RFO       ACCESS:    4244106  HIT:    3914619  MISS:     329487
cpu0_L1D PREFETCH  ACCESS:          0  HIT:          0  MISS:          0
cpu0_L1D WRITEBACK ACCESS:          0  HIT:          0  MISS:          0
cpu0_L2C TOTAL     ACCESS:    5059923  HIT:    4768815  MISS:     291108
cpu0_L2C LOAD      ACCESS:    4376079  HIT:    4122049  MISS:     254030
cpu0_L2C RFO       ACCESS:     329148  HIT:     293248  MISS:      35900
cpu0_L2C PREFETCH  ACCESS:          0  HIT:          0  MISS:          0
cpu0_L2C WRITEBACK ACCESS:     352521  HIT:     352404  MISS:        117
LLC TOTAL     ACCESS:     323524  HIT:     183011  MISS:     140513
LLC LOAD      ACCESS:     254029  HIT:     145146  MISS:     108883
LLC RFO       ACCESS:      32521  HIT:        921  MISS:      31600
LLC PREFETCH  ACCESS:          0  HIT:          0  MISS:          0
LLC WRITEBACK ACCESS:      35913  HIT:      35887  MISS:         26
Heartbeat CPU 0 instructions: 106000003 cycles: 54230517 heartbeat IPC: 1.57779 cumulative IPC: 1.5764 (Simulation time: 1 hr 44 min 49 sec) 

Region of Interest Statistics
cpu0_DTLB TOTAL     ACCESS:   14865653  HIT:   12754730  MISS:    2110923
cpu0_DTLB LOAD      ACCESS:   12763102  HIT:   10906246  MISS:    1856856
cpu0_DTLB RFO       ACCESS:    2102551  HIT:    1848484  MISS:     254067
cpu0_DTLB PREFETCH  ACCESS:          0  HIT:          0  MISS:          0
cpu0_DTLB WRITEBACK ACCESS:          0  HIT:          0  MISS:          0
cpu0_ITLB TOTAL     ACCESS:    1088473  HIT:    1088473  MISS:          0
cpu0_ITLB LOAD      ACCESS:    1088473  HIT:    1088473  MISS:          0
cpu0_ITLB RFO       ACCESS:          0  HIT:          0  MISS:          0
cpu0_ITLB PREFETCH  ACCESS:          0  HIT:          0  MISS:          0
cpu0_ITLB WRITEBACK ACCESS:          0  HIT:          0  MISS:          0
cpu0_L1I TOTAL     ACCESS:    5484222  HIT:    4677569  MISS:     806653
cpu0_L1I LOAD      ACCESS:    5484222  HIT:    4677569  MISS:     806653
cpu0_L1I RFO       ACCESS:          0  HIT:          0  MISS:          0
cpu0_L1I PREFETCH  ACCESS:          0  HIT:          0  MISS:          0
cpu0_L1I WRITEBACK ACCESS:          0  HIT:          0  MISS:          0
cpu0_STLB TOTAL     ACCESS:    2110923  HIT:    2108652  MISS:       2271
cpu0_STLB LOAD      ACCESS:    1856856  HIT:    1855086  MISS:       1770
cpu0_STLB RFO       ACCESS:     254067  HIT:     253566  MISS:        501
cpu0_STLB PREFETCH  ACCESS:          0  HIT:          0  MISS:          0
cpu0_STLB WRITEBACK ACCESS:          0  HIT:          0  MISS:          0
cpu0_L1D TOTAL     ACCESS:   21010829  HIT:   16935182  MISS:    4075647
cpu0_L1D LOAD      ACCESS:   16607187  HIT:   12875513  MISS:    3731674
cpu0_L1D RFO       ACCESS:    4401371  HIT:    4059669  MISS:     341702
cpu0_L1D PREFETCH  ACCESS:          0  HIT:          0  MISS:          0
cpu0_L1D WRITEBACK ACCESS:          0  HIT:          0  MISS:          0
cpu0_L2C TOTAL     ACCESS:    5246986  HIT:    4945556  MISS:     301430
cpu0_L2C LOAD      ACCESS:    4537820  HIT:    4274692  MISS:     263128
cpu0_L2C RFO       ACCESS:     341347  HIT:     304272  MISS:      37075
cpu0_L2C PREFETCH  ACCESS:          0  HIT:          0  MISS:          0
[...]
cpu0_DTLB LOAD      ACCESS:  341416333  HIT:  291708249  MISS:   49708084
cpu0_DTLB RFO       ACCESS:   56206855  HIT:   49414204  MISS:    6792651
cpu0_DTLB PREFETCH  ACCESS:          0  HIT:          0  MISS:          0
cpu0_DTLB WRITEBACK ACCESS:          0  HIT:          0  MISS:          0
cpu0_ITLB TOTAL     ACCESS:   29119246  HIT:   29119246  MISS:          0
cpu0_ITLB LOAD      ACCESS:   29119246  HIT:   29119246  MISS:          0
cpu0_ITLB RFO       ACCESS:          0  HIT:          0  MISS:          0
cpu0_ITLB PREFETCH  ACCESS:          0  HIT:          0  MISS:          0
cpu0_ITLB WRITEBACK ACCESS:          0  HIT:          0  MISS:          0
cpu0_L1I TOTAL     ACCESS:  146710082  HIT:  125111439  MISS:   21598643
cpu0_L1I LOAD      ACCESS:  146710082  HIT:  125111439  MISS:   21598643
cpu0_L1I RFO       ACCESS:          0  HIT:          0  MISS:          0
cpu0_L1I PREFETCH  ACCESS:          0  HIT:          0  MISS:          0
cpu0_L1I WRITEBACK ACCESS:          0  HIT:          0  MISS:          0
cpu0_STLB TOTAL     ACCESS:   56500735  HIT:   56438345  MISS:      62390
cpu0_STLB LOAD      ACCESS:   49708084  HIT:   49659623  MISS:      48461
cpu0_STLB RFO       ACCESS:    6792651  HIT:    6778722  MISS:      13929
cpu0_STLB PREFETCH  ACCESS:          0  HIT:          0  MISS:          0
cpu0_STLB WRITEBACK ACCESS:          0  HIT:          0  MISS:          0
cpu0_L1D TOTAL     ACCESS:  561993952  HIT:  452951522  MISS:  109042430
cpu0_L1D LOAD      ACCESS:  444200623  HIT:  344365183  MISS:   99835440
cpu0_L1D RFO       ACCESS:  117731583  HIT:  108585842  MISS:    9145741
cpu0_L1D PREFETCH  ACCESS:          0  HIT:          0  MISS:          0
cpu0_L1D WRITEBACK ACCESS:          0  HIT:          0  MISS:          0
cpu0_L2C TOTAL     ACCESS:  140402989  HIT:  132381660  MISS:    8021329
cpu0_L2C LOAD      ACCESS:  121420282  HIT:  114371967  MISS:    7048315
cpu0_L2C RFO       ACCESS:    9136070  HIT:    8194585  MISS:     941485
cpu0_L2C PREFETCH  ACCESS:          0  HIT:          0  MISS:          0
cpu0_L2C WRITEBACK ACCESS:    9785388  HIT:    9782784  MISS:       2604
LLC TOTAL     ACCESS:    8914962  HIT:    4969716  MISS:    3945246
LLC LOAD      ACCESS:    7048282  HIT:    3981099  MISS:    3067183
LLC RFO       ACCESS:     893705  HIT:      16844  MISS:     876861
LLC PREFETCH  ACCESS:          0  HIT:          0  MISS:          0
LLC WRITEBACK ACCESS:     944050  HIT:     942959  MISS:       1091
Heartbeat CPU 0 instructions: 1550000001 cycles: 971523419 heartbeat IPC: 1.5764 cumulative IPC: 1.57428 (Simulation time: 19 hr 27 min 3 sec) 

Region of Interest Statistics
cpu0_DTLB TOTAL     ACCESS:  398153937  HIT:  341578235  MISS:   56575702
cpu0_DTLB LOAD      ACCESS:  341871958  HIT:  292097968  MISS:   49773990
cpu0_DTLB RFO       ACCESS:   56281979  HIT:   49480267  MISS:    6801712
cpu0_DTLB PREFETCH  ACCESS:          0  HIT:          0  MISS:          0
cpu0_DTLB WRITEBACK ACCESS:          0  HIT:          0  MISS:          0
cpu0_ITLB TOTAL     ACCESS:   29158163  HIT:   29158163  MISS:          0
cpu0_ITLB LOAD      ACCESS:   29158163  HIT:   29158163  MISS:          0
cpu0_ITLB RFO       ACCESS:          0  HIT:          0  MISS:          0
cpu0_ITLB PREFETCH  ACCESS:          0  HIT:          0  MISS:          0
cpu0_ITLB WRITEBACK ACCESS:          0  HIT:          0  MISS:          0
cpu0_L1I TOTAL     ACCESS:  146906056  HIT:  125278661  MISS:   21627395
cpu0_L1I LOAD      ACCESS:  146906056  HIT:  125278661  MISS:   21627395
cpu0_L1I RFO       ACCESS:          0  HIT:          0  MISS:          0
cpu0_L1I PREFETCH  ACCESS:          0  HIT:          0  MISS:          0
cpu0_L1I WRITEBACK ACCESS:          0  HIT:          0  MISS:          0
cpu0_STLB TOTAL     ACCESS:   56575702  HIT:   56513248  MISS:      62454
cpu0_STLB LOAD      ACCESS:   49773990  HIT:   49725465  MISS:      48525
cpu0_STLB RFO       ACCESS:    6801712  HIT:    6787783  MISS:      13929
cpu0_STLB PREFETCH  ACCESS:          0  HIT:          0  MISS:          0
cpu0_STLB WRITEBACK ACCESS:          0  HIT:          0  MISS:          0
cpu0_L1D TOTAL     ACCESS:  562744338  HIT:  453556385  MISS:  109187953
cpu0_L1D LOAD      ACCESS:  444793738  HIT:  344824977  MISS:   99968761
cpu0_L1D RFO       ACCESS:  117888790  HIT:  108730911  MISS:    9157879
cpu0_L1D PREFETCH  ACCESS:          0  HIT:          0  MISS:          0
cpu0_L1D WRITEBACK ACCESS:          0  HIT:          0  MISS:          0
cpu0_L2C TOTAL     ACCESS:  140590205  HIT:  132559227  MISS:    8030978
cpu0_L2C LOAD      ACCESS:  121582332  HIT:  114525618  MISS:    7056714
cpu0_L2C RFO       ACCESS:    9148192  HIT:    8205478  MISS:     942714
cpu0_L2C PREFETCH  ACCESS:          0  HIT:          0  MISS:          0
cpu0_L2C WRITEBACK ACCESS:    9798368  HIT:    9795762  MISS:       2606
LLC TOTAL     ACCESS:    8925834  HIT:    4975377  MISS:    3950457
LLC LOAD      ACCESS:    7056681  HIT:    3985463  MISS:    3071218
LLC RFO       ACCESS:     894923  HIT:      16887  MISS:     878036
LLC PREFETCH  ACCESS:          0  HIT:          0  MISS:          0
LLC WRITEBACK ACCESS:     945286  HIT:     944195  MISS:       1091
Finished CPU 0 instructions: 1500000001 cycles: 952816945 cumulative IPC: 1.57428 (Simulation time: 19 hr 27 min 3 sec) 

ChampSim completed all CPUs

Region of Interest Statistics

CPU 0 cumulative IPC: 1.57428 instructions: 1500000001 cycles: 952816945
cpu0_DTLB TOTAL     ACCESS:  398153938  HIT:  341578236  MISS:   56575702
cpu0_DTLB LOAD      ACCESS:  341871959  HIT:  292097969  MISS:   49773990
cpu0_DTLB RFO       ACCESS:   56281979  HIT:   49480267  MISS:    6801712
cpu0_DTLB PREFETCH  ACCESS:          0  HIT:          0  MISS:          0
cpu0_DTLB WRITEBACK ACCESS:          0  HIT:          0  MISS:          0
cpu0_DTLB TRANSLATION ACCESS:          0  HIT:          0  MISS:          0
cpu0_DTLB PREFETCH  REQUESTED:          0  ISSUED:          0  USEFUL:          0  USELESS:          0
cpu0_DTLB AVERAGE MISS LATENCY: 9.62186 cycles
cpu0_ITLB TOTAL     ACCESS:   29158163  HIT:   29158163  MISS:          0
cpu0_ITLB LOAD      ACCESS:   29158163  HIT:   29158163  MISS:          0
cpu0_ITLB RFO       ACCESS:          0  HIT:          0  MISS:          0
cpu0_ITLB PREFETCH  ACCESS:          0  HIT:          0  MISS:          0
cpu0_ITLB WRITEBACK ACCESS:          0  HIT:          0  MISS:          0
cpu0_ITLB TRANSLATION ACCESS:          0  HIT:          0  MISS:          0
cpu0_ITLB PREFETCH  REQUESTED:          0  ISSUED:          0  USEFUL:          0  USELESS:          0
cpu0_ITLB AVERAGE MISS LATENCY: -nan cycles
cpu0_L1I TOTAL     ACCESS:  146906056  HIT:  125278661  MISS:   21627395
cpu0_L1I LOAD      ACCESS:  146906056  HIT:  125278661  MISS:   21627395
cpu0_L1I RFO       ACCESS:          0  HIT:          0  MISS:          0
cpu0_L1I PREFETCH  ACCESS:          0  HIT:          0  MISS:          0
cpu0_L1I WRITEBACK ACCESS:          0  HIT:          0  MISS:          0
cpu0_L1I TRANSLATION ACCESS:          0  HIT:          0  MISS:          0
cpu0_L1I PREFETCH  REQUESTED:          0  ISSUED:          0  USEFUL:          0  USELESS:          0
cpu0_L1I AVERAGE MISS LATENCY: 11.2085 cycles
cpu0_STLB TOTAL     ACCESS:   56575702  HIT:   56513248  MISS:      62454
cpu0_STLB LOAD      ACCESS:   49773990  HIT:   49725465  MISS:      48525
cpu0_STLB RFO       ACCESS:    6801712  HIT:    6787783  MISS:      13929
cpu0_STLB PREFETCH  ACCESS:          0  HIT:          0  MISS:          0
cpu0_STLB WRITEBACK ACCESS:          0  HIT:          0  MISS:          0
cpu0_STLB TRANSLATION ACCESS:          0  HIT:          0  MISS:          0
cpu0_STLB PREFETCH  REQUESTED:          0  ISSUED:          0  USEFUL:          0  USELESS:          0
cpu0_STLB AVERAGE MISS LATENCY: 198.086 cycles
cpu0_L1D TOTAL     ACCESS:  562744338  HIT:  453556385  MISS:  109187953
cpu0_L1D LOAD      ACCESS:  444793738  HIT:  344824977  MISS:   99968761
cpu0_L1D RFO       ACCESS:  117888790  HIT:  108730911  MISS:    9157879
cpu0_L1D PREFETCH  ACCESS:          0  HIT:          0  MISS:          0
cpu0_L1D WRITEBACK ACCESS:          0  HIT:          0  MISS:          0
cpu0_L1D TRANSLATION ACCESS:      61810  HIT:        497  MISS:      61313
cpu0_L1D PREFETCH  REQUESTED:          0  ISSUED:          0  USEFUL:          0  USELESS:          0
cpu0_L1D AVERAGE MISS LATENCY: 48.4774 cycles
cpu0_L2C TOTAL     ACCESS:  140590206  HIT:  132559228  MISS:    8030978
cpu0_L2C LOAD      ACCESS:  121582333  HIT:  114525619  MISS:    7056714
cpu0_L2C RFO       ACCESS:    9148192  HIT:    8205478  MISS:     942714
cpu0_L2C PREFETCH  ACCESS:          0  HIT:          0  MISS:          0
cpu0_L2C WRITEBACK ACCESS:    9798368  HIT:    9795762  MISS:       2606
cpu0_L2C TRANSLATION ACCESS:      61313  HIT:      32369  MISS:      28944
cpu0_L2C PREFETCH  REQUESTED:          0  ISSUED:          0  USEFUL:          0  USELESS:          0
cpu0_L2C AVERAGE MISS LATENCY: 499.381 cycles
LLC TOTAL     ACCESS:    8925834  HIT:    4975377  MISS:    3950457
LLC LOAD      ACCESS:    7056681  HIT:    3985463  MISS:    3071218
LLC RFO       ACCESS:     894923  HIT:      16887  MISS:     878036
LLC PREFETCH  ACCESS:          0  HIT:          0  MISS:          0
LLC WRITEBACK ACCESS:     945286  HIT:     944195  MISS:       1091
LLC TRANSLATION ACCESS:      28944  HIT:      28832  MISS:        112
LLC PREFETCH  REQUESTED:          0  ISSUED:          0  USEFUL:          0  USELESS:          0
LLC AVERAGE MISS LATENCY: 972.768 cycles
~~~~~~~~~~Reuse Distance Profiler output~~~~~~~~~~
0	0	0
1	0	0
2	0	0
3	0	0
4	0	0
5	0	0
6	0	0
7	0	0
8	0	0
9	0	0
10	0	0
11	0	0
12	0	0
13	0	0
14	0	0
15	0	0
16	0	0
17	0	0
18	0	0
19	0	0
20	0	0
21	0	0
22	0	0
23	0	0
24	0	0
25	0	0
26	0	0
27	0	0
28	0	0
29	0	0
30	0	0
31	0	0
32	0	0
33	0	0
34	0	0
35	0	0
36	0	0
37	0	0
38	0	0
39	0	0
40	0	0
41	0	0
42	0	0
43	0	0
44	0	0
45	0	0
46	0	0
47	0	0
48	0	0
49	0	0
50	0	0
51	0	0
52	0	0
53	0	0
54	0	0
55	0	0
56	0	0
57	0	0
58	0	0
59	0	0
60	0	0
61	0	0
62	0	0
63	0	0
64	0	0
66	0	0
68	0	0
70	0	0
72	0	0
74	0	0
76	0	0
78	0	0
80	0	0
82	0	0
84	0	0
86	0	0
88	0	0
90	0	0
92	0	0
94	0	0
96	0	0
98	0	0
100	0	0
102	0	0
104	0	0
106	0	0
108	0	0
110	0	0
112	0	0
114	0	0
116	0	0
118	0	0
120	0	0
122	0	0
124	0	0
126	0	0
128	0	0
132	0	0
136	0	0
140	0	0
144	0	0
148	0	0
152	0	0
156	0	0
160	0	0
164	0	0
168	0	0
172	0	0
176	0	0
180	0	0
184	0	0
188	0	0
192	0	0
196	0	0
200	0	0
204	0	0
208	0	0
212	0	0
216	0	0
220	0	0
224	0	0
228	0	0
232	0	0
236	0	0
240	0	0
244	0	0
248	0	0
252	0	0
256	0	0
264	0	0
272	0	0
280	0	0
288	0	0
296	0	0
304	0	0
312	0	0
320	0	0
328	0	0
336	0	0
344	0	0
352	0	0
360	0	0
368	0	0
376	0	0
384	0	0
392	0	0
400	0	0
408	0	0
416	0	0
424	0	0
432	0	0
440	0	0
448	0	0
456	0	0
464	0	0
472	0	0
480	0	0
488	0	0
496	0	0
504	0	0
512	0	0
528	0	0
544	0	0
560	0	0
576	0	0
592	0	0
608	0	0
624	0	0
640	0	0
656	0	0
672	0	0
688	0	0
704	0	0
720	0	0
736	0	0
752	0	0
768	0	0
784	0	0
800	0	0
816	0	0
832	0	0
848	0	0
864	0	0
880	0	0
896	0	0
912	0	0
928	0	0
944	0	0
960	0	0
976	0	0
992	0	0
1008	0	0
1024	0	0
1056	0	0
1088	0	0
1120	0	0
1152	0	0
1184	0	0
1216	0	0
1248	0	0
1280	0	0
1312	0	0
1344	0	0
1376	0	0
1408	0	0
1440	0	0
1472	0	0
1504	0	0
1536	0	0
1568	0	0
1600	0	0
1632	0	0
1664	0	0
1696	0	0
1728	0	0
1760	0	0
1792	0	0
1824	0	0
1856	0	0
1888	0	0
1920	0	0
1952	0	0
1984	0	0
2016	0	0
2048	0	0
2112	0	0
2176	0	0
2240	0	0
2304	0	0
2368	0	0
2432	0	0
2496	0	0
2560	0	0
2624	0	0
2688	0	0
2752	0	0
2816	0	0
2880	0	0
2944	0	0
3008	0	0
3072	0	0
3136	0	0
3200	0	0
3264	0	0
3328	0	0
3392	0	0
3456	0	0
3520	0	0
3584	0	0
3648	0	0
3712	0	0
3776	0	0
3840	0	0
3904	0	0
3968	0	0
4032	0	0
4096	0	0
4224	0	0
4352	0	0
4480	0	0
4608	0	0
4736	0	0
4864	0	0
4992	0	0
5120	0	0
5248	0	0
5376	0	0
5504	0	0
5632	0	0
5760	0	0
5888	0	0
6016	0	0
6144	0	0
6272	0	0
6400	0	0
6528	0	0
6656	0	0
6784	0	0
6912	0	0
7040	0	0
7168	0	0
7296	0	0
7424	0	0
7552	0	0
7680	0	0
7808	0	0
7936	0	0
8064	0	0
8192	0	0
8448	0	0
8704	0	0
8960	0	0
9216	0	0
9472	0	0
9728	0	0
9984	0	0
10240	0	0
10496	0	0
10752	0	0
11008	0	0
11264	0	0
11520	0	0
11776	0	0
12032	0	0
12288	0	0
12544	0	0
12800	0	0
13056	0	0
13312	0	0
13568	0	0
13824	0	0
14080	0	0
14336	0	0
14592	0	0
14848	0	0
15104	0	0
15360	0	0
15616	0	0
15872	0	0
16128	0	0
16384	0	0
16896	0	0
17408	0	0
17920	0	0
18432	0	0
18944	0	0
19456	0	0
19968	0	0
20480	0	0
20992	0	0
21504	0	0
22016	0	0
22528	0	0
23040	0	0
23552	0	0
24064	0	0
24576	0	0
25088	0	0
25600	0	0
26112	0	0
26624	0	0
27136	0	0
27648	0	0
28160	0	0
28672	0	0
29184	0	0
29696	0	0
30208	0	0
30720	0	0
31232	0	0
31744	0	0
32256	0	0
32768	0	0
33792	0	0
34816	0	0
35840	0	0
36864	0	0
37888	0	0
38912	0	0
39936	0	0
40960	0	0
41984	0	0
43008	0	0
44032	0	0
45056	0	0
46080	0	0
47104	0	0
48128	0	0
49152	0	0
50176	0	0
51200	0	0
52224	0	0
53248	0	0
54272	0	0
55296	0	0
56320	0	0
57344	0	0
58368	0	0
59392	0	0
60416	0	0
61440	0	0
62464	0	0
63488	0	0
64512	0	0
65536	0	0
67584	0	0
69632	0	0
71680	0	0
73728	0	0
75776	0	0
77824	0	0
79872	0	0
81920	0	0
83968	0	0
86016	0	0
88064	0	0
90112	0	0
92160	0	0
94208	0	0
96256	0	0
98304	0	0
100352	0	0
102400	0	0
104448	0	0
106496	0	0
108544	0	0
110592	0	0
112640	0	0
114688	0	0
116736	0	0
118784	0	0
120832	0	0
122880	0	0
124928	0	0
126976	0	0
129024	0	0
131072	0	0
135168	0	0
139264	0	0
143360	0	0
147456	0	0
151552	0	0
155648	0	0
159744	0	0
163840	0	0
167936	0	0
172032	0	0
176128	0	0
180224	0	0
184320	0	0
188416	0	0
192512	0	0
196608	0	0
200704	0	0
204800	0	0
208896	0	0
212992	0	0
217088	0	0
221184	0	0
225280	0	0
229376	0	0
233472	0	0
237568	0	0
241664	0	0
245760	0	0
249856	0	0
253952	0	0
258048	0	0
262144	0	0
270336	0	0
278528	0	0
286720	0	0
294912	0	0
303104	0	0
311296	0	0
319488	0	0
327680	0	0
335872	0	0
344064	0	0
352256	0	0
360448	0	0
368640	0	0
376832	0	0
385024	0	0
393216	0	0
401408	0	0
409600	0	0
417792	0	0
425984	0	0
434176	0	0
442368	0	0
450560	0	0
458752	0	0
466944	0	0
475136	0	0
483328	0	0
491520	0	0
499712	0	0
507904	0	0
516096	0	0
524288	0	0
540672	0	0
557056	0	0
573440	0	0
589824	0	0
606208	0	0
622592	0	0
638976	0	0
655360	0	0
671744	0	0
688128	0	0
704512	0	0
720896	0	0
737280	0	0
753664	0	0
770048	0	0
786432	0	0
802816	0	0
819200	0	0
835584	0	0
851968	0	0
868352	0	0
884736	0	0
901120	0	0
917504	0	0
933888	0	0
950272	0	0
966656	0	0
983040	0	0
999424	0	0
1015808	0	0
1032192	0	0
1048576	0	0
1081344	0	0
1114112	0	0
1146880	0	0
1179648	0	0
1212416	0	0
1245184	0	0
1277952	0	0
1310720	0	0
1343488	0	0
1376256	0	0
1409024	0	0
1441792	0	0
1474560	0	0
1507328	0	0
1540096	0	0
1572864	0	0
1605632	0	0
1638400	0	0
1671168	0	0
1703936	0	0
1736704	0	0
1769472	0	0
1802240	0	0
1835008	0	0
1867776	0	0
1900544	0	0
1933312	0	0
1966080	0	0
1998848	0	0
2031616	0	0
2064384	0	0
2097152	0	0
2162688	0	0
2228224	0	0
2293760	0	0
2359296	0	0
2424832	0	0
2490368	0	0
2555904	0	0
2621440	0	0
2686976	0	0
2752512	0	0
2818048	0	0
2883584	0	0
2949120	0	0
3014656	0	0
3080192	0	0
3145728	0	0
3211264	0	0
3276800	0	0
3342336	0	0
3407872	0	0
3473408	0	0
3538944	0	0
3604480	0	0
3670016	0	0
3735552	0	0
3801088	0	0
3866624	0	0
3932160	0	0
3997696	0	0
4063232	0	0
4128768	0	0
4194304	0	0
4325376	0	0
4456448	0	0
4587520	0	0
4718592	0	0
4849664	0	0
4980736	0	0
5111808	0	0
5242880	0	0
5373952	0	0
5505024	0	0
5636096	0	0
5767168	0	0
5898240	0	0
6029312	0	0
6160384	0	0
6291456	0	0
6422528	0	0
6553600	0	0
6684672	0	0
6815744	0	0
6946816	0	0
7077888	0	0
7208960	0	0
7340032	0	0
7471104	0	0
7602176	0	0
7733248	0	0
7864320	0	0
7995392	0	0
8126464	0	0
8257536	0	0
8388608	0	0
8650752	0	0
8912896	0	0
9175040	0	0
9437184	0	0
9699328	0	0
9961472	0	0
10223616	0	0
10485760	0	0
10747904	0	0
11010048	0	0
11272192	0	0
11534336	0	0
11796480	0	0
12058624	0	0
12320768	0	0
12582912	0	0
12845056	0	0
13107200	0	0
13369344	0	0
13631488	0	0
13893632	0	0
14155776	0	0
14417920	0	0
14680064	0	0
14942208	0	0
15204352	0	0
15466496	0	0
15728640	0	0
15990784	0	0
16252928	0	0
16515072	0	0
16777216	0	0
17301504	0	0
17825792	0	0
18350080	0	0
18874368	0	0
19398656	0	0
19922944	0	0
20447232	0	0
20971520	0	0
21495808	0	0
22020096	0	0
22544384	0	0
23068672	0	0
23592960	0	0
24117248	0	0
24641536	0	0
25165824	0	0
25690112	0	0
26214400	0	0
26738688	0	0
27262976	0	0
27787264	0	0
28311552	0	0
28835840	0	0
29360128	0	0
29884416	0	0
30408704	0	0
30932992	0	0
31457280	0	0
31981568	0	0
32505856	0	0
33030144	0	0
33554432	0	0
34603008	0	0
35651584	0	0
36700160	0	0
37748736	0	0
38797312	0	0
39845888	0	0
40894464	0	0
41943040	0	0
42991616	0	0
44040192	0	0
45088768	0	0
46137344	0	0
47185920	0	0
48234496	0	0
49283072	0	0
50331648	0	0
51380224	0	0
52428800	0	0
53477376	0	0
54525952	0	0
55574528	0	0
56623104	0	0
57671680	0	0
58720256	0	0
59768832	0	0
60817408	0	0
61865984	0	0
62914560	0	0
63963136	0	0
65011712	0	0
66060288	0	0
67108864	0	0
69206016	0	0
71303168	0	0
73400320	0	0
75497472	0	0
77594624	0	0
79691776	0	0
81788928	0	0
83886080	0	0
85983232	0	0
88080384	0	0
90177536	0	0
92274688	0	0
94371840	0	0
96468992	0	0
98566144	0	0
100663296	0	0
102760448	0	0
104857600	0	0
106954752	0	0
109051904	0	0
111149056	0	0
113246208	0	0
115343360	0	0
117440512	0	0
119537664	0	0
121634816	0	0
123731968	0	0
125829120	0	0
127926272	0	0
130023424	0	0
132120576	0	0
134217728	0	0
138412032	0	0
142606336	0	0
146800640	0	0
150994944	0	0
155189248	0	0
159383552	0	0
163577856	0	0
167772160	0	0
171966464	0	0
176160768	0	0
180355072	0	0
184549376	0	0
188743680	0	0
192937984	0	0
197132288	0	0
201326592	0	0
205520896	0	0
209715200	0	0
213909504	0	0
218103808	0	0
222298112	0	0
226492416	0	0
230686720	0	0
234881024	0	0
239075328	0	0
243269632	0	0
247463936	0	0
251658240	0	0
255852544	0	0
260046848	0	0
264241152	0	0
268435456	0	0
276824064	0	0
285212672	0	0
293601280	0	0
301989888	0	0
310378496	0	0
318767104	0	0
327155712	0	0
335544320	0	0
343932928	0	0
352321536	0	0
360710144	0	0
369098752	0	0
377487360	0	0
385875968	0	0
394264576	0	0
402653184	0	0
411041792	0	0
419430400	0	0
427819008	0	0
436207616	0	0
444596224	0	0
452984832	0	0
461373440	0	0
469762048	0	0
478150656	0	0
486539264	0	0
494927872	0	0
503316480	0	0
511705088	0	0
520093696	0	0
528482304	0	0
536870912	0	0
553648128	0	0
570425344	0	0
587202560	0	0
603979776	0	0
620756992	0	0
637534208	0	0
654311424	0	0
671088640	0	0
687865856	0	0
704643072	0	0
721420288	0	0
738197504	0	0
754974720	0	0
771751936	0	0
788529152	0	0
805306368	0	0
822083584	0	0
838860800	0	0
855638016	0	0
872415232	0	0
889192448	0	0
905969664	0	0
922746880	0	0
939524096	0	0
956301312	0	0
973078528	0	0
989855744	0	0
1006632960	0	0
1023410176	0	0
1040187392	0	0
1056964608	0	0
1073741824	0	0
1107296256	0	0
1140850688	0	0
1174405120	0	0
1207959552	0	0
1241513984	0	0
1275068416	0	0
1308622848	0	0
1342177280	0	0
1375731712	0	0
1409286144	0	0
1442840576	0	0
1476395008	0	0
1509949440	0	0
1543503872	0	0
1577058304	0	0
1610612736	0	0
1644167168	0	0
1677721600	0	0
1711276032	0	0
1744830464	0	0
1778384896	0	0
1811939328	0	0
1845493760	0	0
1879048192	0	0
1912602624	0	0
1946157056	0	0
1979711488	0	0
2013265920	0	0
2046820352	0	0
2080374784	0	0
2113929216	0	0
2147483648	0	0
2214592512	0	0
2281701376	0	0
2348810240	0	0
2415919104	0	0
2483027968	0	0
2550136832	0	0
2617245696	0	0
2684354560	0	0
2751463424	0	0
2818572288	0	0
2885681152	0	0
2952790016	0	0
3019898880	0	0
3087007744	0	0
3154116608	0	0
3221225472	0	0
3288334336	0	0
3355443200	0	0
3422552064	0	0
3489660928	0	0
3556769792	0	0
3623878656	0	0
3690987520	0	0
3758096384	0	0
3825205248	0	0
3892314112	0	0
3959422976	0	0
4026531840	0	0
4093640704	0	0
4160749568	0	0
4227858432	0	0
~~~~~~~~~~Reuse Distance Profiler output end~~~~~~~~~~

Sampler size:0

DRAM Statistics
 CHANNEL 0
 RQ ROW_BUFFER_HIT:        228  ROW_BUFFER_MISS:    3949138
 DBUS AVG_CONGESTED_CYCLE:    3.99992
 WQ ROW_BUFFER_HIT:      14956  ROW_BUFFER_MISS:     863224  FULL:          0


CPU 0 Branch Prediction Accuracy: 99.9626% MPKI: 0.00331333 Average ROB Occupancy at Mispredict: 63.2821
Branch type MPKI
BRANCH_DIRECT_JUMP: 6.66667e-07
BRANCH_INDIRECT: 1.33333e-06
BRANCH_CONDITIONAL: 0.00330733
BRANCH_DIRECT_CALL: 2e-06
BRANCH_INDIRECT_CALL: 0
BRANCH_RETURN: 2e-06

