
*** ChampSim Multicore Out-of-Order Simulator ***

Warmup Instructions: 50000000
Simulation Instructions: 1500000000
Number of CPUs: 1
Off-chip DRAM Size: 4 GiB Channels: 1 Width: 64-bit Data Rate: 3200 MT/s

VirtualMemory physical capacity: 8588881920 num_ppages: 2096895
VirtualMemory page size: 4096 log2_page_size: 12

CPU 0 runs /s/traces/champsim_traces/625.x264_s-39B.champsimtrace.xz
CPU 0 Bimodal branch predictor
Basic BTB sets: 1024 ways: 8 indirect buffer size: 4096 RAS size: 64
Initializing LRU.
Initializing LRU.
Initializing LRU.
Initializing LRU.
Initializing rdLRU.
Initializing LRU.
Initializing LRU.
Heartbeat CPU 0 instructions: 2000000 cycles: 506810 heartbeat IPC: 3.94625 cumulative IPC: 3.94625 (Simulation time: 0 hr 0 min 57 sec) 
Heartbeat CPU 0 instructions: 4000003 cycles: 1016845 heartbeat IPC: 3.92131 cumulative IPC: 3.93374 (Simulation time: 0 hr 1 min 57 sec) 
Heartbeat CPU 0 instructions: 6000000 cycles: 1521086 heartbeat IPC: 3.96635 cumulative IPC: 3.94455 (Simulation time: 0 hr 2 min 54 sec) 
Heartbeat CPU 0 instructions: 8000001 cycles: 2023989 heartbeat IPC: 3.97691 cumulative IPC: 3.95259 (Simulation time: 0 hr 3 min 47 sec) 
Heartbeat CPU 0 instructions: 10000000 cycles: 2536021 heartbeat IPC: 3.906 cumulative IPC: 3.94319 (Simulation time: 0 hr 4 min 45 sec) 
Heartbeat CPU 0 instructions: 12000000 cycles: 3041054 heartbeat IPC: 3.96014 cumulative IPC: 3.946 (Simulation time: 0 hr 5 min 41 sec) 
Heartbeat CPU 0 instructions: 14000003 cycles: 3541959 heartbeat IPC: 3.99278 cumulative IPC: 3.95262 (Simulation time: 0 hr 6 min 31 sec) 
Heartbeat CPU 0 instructions: 16000003 cycles: 4052842 heartbeat IPC: 3.91479 cumulative IPC: 3.94785 (Simulation time: 0 hr 7 min 28 sec) 
Heartbeat CPU 0 instructions: 18000003 cycles: 4559454 heartbeat IPC: 3.94779 cumulative IPC: 3.94784 (Simulation time: 0 hr 8 min 19 sec) 
Heartbeat CPU 0 instructions: 20000003 cycles: 5060283 heartbeat IPC: 3.99338 cumulative IPC: 3.95235 (Simulation time: 0 hr 9 min 10 sec) 
Heartbeat CPU 0 instructions: 22000002 cycles: 5570289 heartbeat IPC: 3.92152 cumulative IPC: 3.94953 (Simulation time: 0 hr 10 min 2 sec) 
Heartbeat CPU 0 instructions: 24000003 cycles: 6077583 heartbeat IPC: 3.94249 cumulative IPC: 3.94894 (Simulation time: 0 hr 10 min 53 sec) 
Heartbeat CPU 0 instructions: 26000003 cycles: 6579215 heartbeat IPC: 3.98699 cumulative IPC: 3.95184 (Simulation time: 0 hr 11 min 41 sec) 
Heartbeat CPU 0 instructions: 28000003 cycles: 7085338 heartbeat IPC: 3.95161 cumulative IPC: 3.95182 (Simulation time: 0 hr 12 min 29 sec) 
Heartbeat CPU 0 instructions: 30000000 cycles: 7593374 heartbeat IPC: 3.93672 cumulative IPC: 3.95081 (Simulation time: 0 hr 13 min 18 sec) 
Heartbeat CPU 0 instructions: 32000002 cycles: 8095462 heartbeat IPC: 3.98337 cumulative IPC: 3.95283 (Simulation time: 0 hr 14 min 7 sec) 
Heartbeat CPU 0 instructions: 34000001 cycles: 8599049 heartbeat IPC: 3.97151 cumulative IPC: 3.95393 (Simulation time: 0 hr 14 min 55 sec) 
Heartbeat CPU 0 instructions: 36000003 cycles: 9108153 heartbeat IPC: 3.92847 cumulative IPC: 3.9525 (Simulation time: 0 hr 15 min 50 sec) 
Heartbeat CPU 0 instructions: 38000003 cycles: 9613085 heartbeat IPC: 3.96093 cumulative IPC: 3.95295 (Simulation time: 0 hr 16 min 41 sec) 
Heartbeat CPU 0 instructions: 40000003 cycles: 10115386 heartbeat IPC: 3.98168 cumulative IPC: 3.95437 (Simulation time: 0 hr 17 min 27 sec) 
Heartbeat CPU 0 instructions: 42000001 cycles: 10624490 heartbeat IPC: 3.92847 cumulative IPC: 3.95313 (Simulation time: 0 hr 18 min 18 sec) 
Heartbeat CPU 0 instructions: 44000002 cycles: 11128561 heartbeat IPC: 3.9677 cumulative IPC: 3.95379 (Simulation time: 0 hr 19 min 10 sec) 
Heartbeat CPU 0 instructions: 46000003 cycles: 11629940 heartbeat IPC: 3.989 cumulative IPC: 3.95531 (Simulation time: 0 hr 19 min 59 sec) 
Heartbeat CPU 0 instructions: 48000000 cycles: 12140342 heartbeat IPC: 3.91847 cumulative IPC: 3.95376 (Simulation time: 0 hr 20 min 53 sec) 
Heartbeat CPU 0 instructions: 50000001 cycles: 12645210 heartbeat IPC: 3.96143 cumulative IPC: 3.95407 (Simulation time: 0 hr 21 min 43 sec) 

Warmup complete CPU 0 instructions: 50000001 cycles: 12645210 (Simulation time: 0 hr 21 min 43 sec) 

Heartbeat CPU 0 instructions: 52000000 cycles: 13385737 heartbeat IPC: 2.70078 cumulative IPC: 2.70078 (Simulation time: 0 hr 22 min 32 sec) 

Region of Interest Statistics
cpu0_DTLB TOTAL     ACCESS:     252928  HIT:     252238  MISS:        690
cpu0_DTLB LOAD      ACCESS:     179800  HIT:     179350  MISS:        450
cpu0_DTLB RFO       ACCESS:      73128  HIT:      72888  MISS:        240
cpu0_DTLB PREFETCH  ACCESS:          0  HIT:          0  MISS:          0
cpu0_DTLB WRITEBACK ACCESS:          0  HIT:          0  MISS:          0
cpu0_ITLB TOTAL     ACCESS:      65254  HIT:      65239  MISS:         15
cpu0_ITLB LOAD      ACCESS:      65254  HIT:      65239  MISS:         15
cpu0_ITLB RFO       ACCESS:          0  HIT:          0  MISS:          0
cpu0_ITLB PREFETCH  ACCESS:          0  HIT:          0  MISS:          0
cpu0_ITLB WRITEBACK ACCESS:          0  HIT:          0  MISS:          0
cpu0_L1I TOTAL     ACCESS:      56607  HIT:      51942  MISS:       4665
cpu0_L1I LOAD      ACCESS:      56607  HIT:      51942  MISS:       4665
cpu0_L1I RFO       ACCESS:          0  HIT:          0  MISS:          0
cpu0_L1I PREFETCH  ACCESS:          0  HIT:          0  MISS:          0
cpu0_L1I WRITEBACK ACCESS:          0  HIT:          0  MISS:          0
cpu0_STLB TOTAL     ACCESS:        705  HIT:        670  MISS:         35
cpu0_STLB LOAD      ACCESS:        465  HIT:        456  MISS:          9
cpu0_STLB RFO       ACCESS:        240  HIT:        214  MISS:         26
cpu0_STLB PREFETCH  ACCESS:          0  HIT:          0  MISS:          0
cpu0_STLB WRITEBACK ACCESS:          0  HIT:          0  MISS:          0
cpu0_L1D TOTAL     ACCESS:     313377  HIT:     310424  MISS:       2953
cpu0_L1D LOAD      ACCESS:     213788  HIT:     212218  MISS:       1570
cpu0_L1D RFO       ACCESS:      99558  HIT:      98178  MISS:       1380
cpu0_L1D PREFETCH  ACCESS:          0  HIT:          0  MISS:          0
cpu0_L1D WRITEBACK ACCESS:          0  HIT:          0  MISS:          0
cpu0_L2C TOTAL     ACCESS:       9401  HIT:       7970  MISS:       1431
cpu0_L2C LOAD      ACCESS:       6235  HIT:       5930  MISS:        305
cpu0_L2C RFO       ACCESS:       1378  HIT:        258  MISS:       1120
cpu0_L2C PREFETCH  ACCESS:          0  HIT:          0  MISS:          0
cpu0_L2C WRITEBACK ACCESS:       1785  HIT:       1779  MISS:          6
LLC TOTAL     ACCESS:       1984  HIT:        663  MISS:       1321
LLC LOAD      ACCESS:        305  HIT:         93  MISS:        212
LLC RFO       ACCESS:       1120  HIT:         11  MISS:       1109
LLC PREFETCH  ACCESS:          0  HIT:          0  MISS:          0
LLC WRITEBACK ACCESS:        559  HIT:        559  MISS:          0
Heartbeat CPU 0 instructions: 54000000 cycles: 14260823 heartbeat IPC: 2.28549 cumulative IPC: 2.47584 (Simulation time: 0 hr 23 min 23 sec) 

Region of Interest Statistics
cpu0_DTLB TOTAL     ACCESS:     497921  HIT:     494485  MISS:       3436
cpu0_DTLB LOAD      ACCESS:     362567  HIT:     360108  MISS:       2459
cpu0_DTLB RFO       ACCESS:     135354  HIT:     134377  MISS:        977
cpu0_DTLB PREFETCH  ACCESS:          0  HIT:          0  MISS:          0
cpu0_DTLB WRITEBACK ACCESS:          0  HIT:          0  MISS:          0
cpu0_ITLB TOTAL     ACCESS:     182233  HIT:     182192  MISS:         41
cpu0_ITLB LOAD      ACCESS:     182233  HIT:     182192  MISS:         41
cpu0_ITLB RFO       ACCESS:          0  HIT:          0  MISS:          0
cpu0_ITLB PREFETCH  ACCESS:          0  HIT:          0  MISS:          0
cpu0_ITLB WRITEBACK ACCESS:          0  HIT:          0  MISS:          0
cpu0_L1I TOTAL     ACCESS:     159374  HIT:     137531  MISS:      21843
cpu0_L1I LOAD      ACCESS:     159374  HIT:     137531  MISS:      21843
cpu0_L1I RFO       ACCESS:          0  HIT:          0  MISS:          0
cpu0_L1I PREFETCH  ACCESS:          0  HIT:          0  MISS:          0
cpu0_L1I WRITEBACK ACCESS:          0  HIT:          0  MISS:          0
cpu0_STLB TOTAL     ACCESS:       3477  HIT:       3398  MISS:         79
cpu0_STLB LOAD      ACCESS:       2500  HIT:       2449  MISS:         51
cpu0_STLB RFO       ACCESS:        977  HIT:        949  MISS:         28
cpu0_STLB PREFETCH  ACCESS:          0  HIT:          0  MISS:          0
cpu0_STLB WRITEBACK ACCESS:          0  HIT:          0  MISS:          0
cpu0_L1D TOTAL     ACCESS:     627978  HIT:     622036  MISS:       5942
cpu0_L1D LOAD      ACCESS:     382551  HIT:     378637  MISS:       3914
cpu0_L1D RFO       ACCESS:     245352  HIT:     243331  MISS:       2021
cpu0_L1D PREFETCH  ACCESS:          0  HIT:          0  MISS:          0
cpu0_L1D WRITEBACK ACCESS:          0  HIT:          0  MISS:          0
cpu0_L2C TOTAL     ACCESS:      30406  HIT:      27747  MISS:       2659
cpu0_L2C LOAD      ACCESS:      25756  HIT:      24441  MISS:       1315
cpu0_L2C RFO       ACCESS:       2012  HIT:        675  MISS:       1337
cpu0_L2C PREFETCH  ACCESS:          0  HIT:          0  MISS:          0
cpu0_L2C WRITEBACK ACCESS:       2631  HIT:       2625  MISS:          6
LLC TOTAL     ACCESS:       3777  HIT:       1460  MISS:       2317
LLC LOAD      ACCESS:       1315  HIT:        323  MISS:        992
LLC RFO       ACCESS:       1337  HIT:         12  MISS:       1325
LLC PREFETCH  ACCESS:          0  HIT:          0  MISS:          0
LLC WRITEBACK ACCESS:       1124  HIT:       1124  MISS:          0
Heartbeat CPU 0 instructions: 56000004 cycles: 15107446 heartbeat IPC: 2.36233 cumulative IPC: 2.43681 (Simulation time: 0 hr 24 min 14 sec) 

Region of Interest Statistics
cpu0_DTLB TOTAL     ACCESS:     734415  HIT:     728218  MISS:       6197
cpu0_DTLB LOAD      ACCESS:     537716  HIT:     533415  MISS:       4301
cpu0_DTLB RFO       ACCESS:     196699  HIT:     194803  MISS:       1896
cpu0_DTLB PREFETCH  ACCESS:          0  HIT:          0  MISS:          0
cpu0_DTLB WRITEBACK ACCESS:          0  HIT:          0  MISS:          0
cpu0_ITLB TOTAL     ACCESS:     292712  HIT:     292662  MISS:         50
cpu0_ITLB LOAD      ACCESS:     292712  HIT:     292662  MISS:         50
cpu0_ITLB RFO       ACCESS:          0  HIT:          0  MISS:          0
cpu0_ITLB PREFETCH  ACCESS:          0  HIT:          0  MISS:          0
cpu0_ITLB WRITEBACK ACCESS:          0  HIT:          0  MISS:          0
cpu0_L1I TOTAL     ACCESS:     268199  HIT:     229557  MISS:      38642
cpu0_L1I LOAD      ACCESS:     268199  HIT:     229557  MISS:      38642
cpu0_L1I RFO       ACCESS:          0  HIT:          0  MISS:          0
cpu0_L1I PREFETCH  ACCESS:          0  HIT:          0  MISS:          0
cpu0_L1I WRITEBACK ACCESS:          0  HIT:          0  MISS:          0
cpu0_STLB TOTAL     ACCESS:       6247  HIT:       6162  MISS:         85
cpu0_STLB LOAD      ACCESS:       4351  HIT:       4294  MISS:         57
cpu0_STLB RFO       ACCESS:       1896  HIT:       1868  MISS:         28
cpu0_STLB PREFETCH  ACCESS:          0  HIT:          0  MISS:          0
cpu0_STLB WRITEBACK ACCESS:          0  HIT:          0  MISS:          0
cpu0_L1D TOTAL     ACCESS:     934434  HIT:     925995  MISS:       8439
cpu0_L1D LOAD      ACCESS:     543949  HIT:     538165  MISS:       5784
cpu0_L1D RFO       ACCESS:     390404  HIT:     387757  MISS:       2647
cpu0_L1D PREFETCH  ACCESS:          0  HIT:          0  MISS:          0
cpu0_L1D WRITEBACK ACCESS:          0  HIT:          0  MISS:          0
cpu0_L2C TOTAL     ACCESS:      50299  HIT:      46401  MISS:       3898
cpu0_L2C LOAD      ACCESS:      44425  HIT:      42167  MISS:       2258
cpu0_L2C RFO       ACCESS:       2631  HIT:        999  MISS:       1632
cpu0_L2C PREFETCH  ACCESS:          0  HIT:          0  MISS:          0
cpu0_L2C WRITEBACK ACCESS:       3235  HIT:       3228  MISS:          7
LLC TOTAL     ACCESS:       5608  HIT:       2129  MISS:       3479
LLC LOAD      ACCESS:       2258  HIT:        394  MISS:       1864
LLC RFO       ACCESS:       1632  HIT:         17  MISS:       1615
LLC PREFETCH  ACCESS:          0  HIT:          0  MISS:          0
LLC WRITEBACK ACCESS:       1717  HIT:       1717  MISS:          0
Heartbeat CPU 0 instructions: 58000002 cycles: 15896348 heartbeat IPC: 2.53517 cumulative IPC: 2.46068 (Simulation time: 0 hr 25 min 1 sec) 

Region of Interest Statistics
cpu0_DTLB TOTAL     ACCESS:     982732  HIT:     975663  MISS:       7069
cpu0_DTLB LOAD      ACCESS:     715648  HIT:     710808  MISS:       4840
cpu0_DTLB RFO       ACCESS:     267084  HIT:     264855  MISS:       2229
cpu0_DTLB PREFETCH  ACCESS:          0  HIT:          0  MISS:          0
cpu0_DTLB WRITEBACK ACCESS:          0  HIT:          0  MISS:          0
cpu0_ITLB TOTAL     ACCESS:     378517  HIT:     378466  MISS:         51
cpu0_ITLB LOAD      ACCESS:     378517  HIT:     378466  MISS:         51
cpu0_ITLB RFO       ACCESS:          0  HIT:          0  MISS:          0
cpu0_ITLB PREFETCH  ACCESS:          0  HIT:          0  MISS:          0
cpu0_ITLB WRITEBACK ACCESS:          0  HIT:          0  MISS:          0
cpu0_L1I TOTAL     ACCESS:     337051  HIT:     291129  MISS:      45922
cpu0_L1I LOAD      ACCESS:     337051  HIT:     291129  MISS:      45922
cpu0_L1I RFO       ACCESS:          0  HIT:          0  MISS:          0
cpu0_L1I PREFETCH  ACCESS:          0  HIT:          0  MISS:          0
cpu0_L1I WRITEBACK ACCESS:          0  HIT:          0  MISS:          0
cpu0_STLB TOTAL     ACCESS:       7120  HIT:       7025  MISS:         95
cpu0_STLB LOAD      ACCESS:       4891  HIT:       4834  MISS:         57
cpu0_STLB RFO       ACCESS:       2229  HIT:       2191  MISS:         38
cpu0_STLB PREFETCH  ACCESS:          0  HIT:          0  MISS:          0
cpu0_STLB WRITEBACK ACCESS:          0  HIT:          0  MISS:          0
cpu0_L1D TOTAL     ACCESS:    1250988  HIT:    1240367  MISS:      10621
cpu0_L1D LOAD      ACCESS:     744528  HIT:     737478  MISS:       7050
cpu0_L1D RFO       ACCESS:     506369  HIT:     502808  MISS:       3561
cpu0_L1D PREFETCH  ACCESS:          0  HIT:          0  MISS:          0
cpu0_L1D WRITEBACK ACCESS:          0  HIT:          0  MISS:          0
cpu0_L2C TOTAL     ACCESS:      60871  HIT:      55865  MISS:       5006
cpu0_L2C LOAD      ACCESS:      52971  HIT:      50402  MISS:       2569
cpu0_L2C RFO       ACCESS:       3545  HIT:       1128  MISS:       2417
cpu0_L2C PREFETCH  ACCESS:          0  HIT:          0  MISS:          0
cpu0_L2C WRITEBACK ACCESS:       4345  HIT:       4326  MISS:         19
LLC TOTAL     ACCESS:       7317  HIT:       2854  MISS:       4463
LLC LOAD      ACCESS:       2569  HIT:        476  MISS:       2093
LLC RFO       ACCESS:       2417  HIT:         47  MISS:       2370
LLC PREFETCH  ACCESS:          0  HIT:          0  MISS:          0
LLC WRITEBACK ACCESS:       2330  HIT:       2330  MISS:          0
Heartbeat CPU 0 instructions: 60000004 cycles: 16715002 heartbeat IPC: 2.44304 cumulative IPC: 2.45713 (Simulation time: 0 hr 25 min 54 sec) 

Region of Interest Statistics
cpu0_DTLB TOTAL     ACCESS:    1230135  HIT:    1220468  MISS:       9667
cpu0_DTLB LOAD      ACCESS:     897217  HIT:     890477  MISS:       6740
cpu0_DTLB RFO       ACCESS:     332918  HIT:     329991  MISS:       2927
cpu0_DTLB PREFETCH  ACCESS:          0  HIT:          0  MISS:          0
cpu0_DTLB WRITEBACK ACCESS:          0  HIT:          0  MISS:          0
cpu0_ITLB TOTAL     ACCESS:     474988  HIT:     474927  MISS:         61
cpu0_ITLB LOAD      ACCESS:     474988  HIT:     474927  MISS:         61
cpu0_ITLB RFO       ACCESS:          0  HIT:          0  MISS:          0
cpu0_ITLB PREFETCH  ACCESS:          0  HIT:          0  MISS:          0
cpu0_ITLB WRITEBACK ACCESS:          0  HIT:          0  MISS:          0
cpu0_L1I TOTAL     ACCESS:     426052  HIT:     366624  MISS:      59428
cpu0_L1I LOAD      ACCESS:     426052  HIT:     366624  MISS:      59428
cpu0_L1I RFO       ACCESS:          0  HIT:          0  MISS:          0
cpu0_L1I PREFETCH  ACCESS:          0  HIT:          0  MISS:          0
cpu0_L1I WRITEBACK ACCESS:          0  HIT:          0  MISS:          0
cpu0_STLB TOTAL     ACCESS:       9728  HIT:       9586  MISS:        142
cpu0_STLB LOAD      ACCESS:       6801  HIT:       6711  MISS:         90
cpu0_STLB RFO       ACCESS:       2927  HIT:       2875  MISS:         52
cpu0_STLB PREFETCH  ACCESS:          0  HIT:          0  MISS:          0
cpu0_STLB WRITEBACK ACCESS:          0  HIT:          0  MISS:          0
cpu0_L1D TOTAL     ACCESS:    1561717  HIT:    1548062  MISS:      13655
cpu0_L1D LOAD      ACCESS:     925963  HIT:     916841  MISS:       9122
cpu0_L1D RFO       ACCESS:     635621  HIT:     631102  MISS:       4519
cpu0_L1D PREFETCH  ACCESS:          0  HIT:          0  MISS:          0
cpu0_L1D WRITEBACK ACCESS:          0  HIT:          0  MISS:          0
cpu0_L2C TOTAL     ACCESS:      78741  HIT:      72173  MISS:       6568
cpu0_L2C LOAD      ACCESS:      68549  HIT:      65046  MISS:       3503
cpu0_L2C RFO       ACCESS:       4495  HIT:       1450  MISS:       3045
cpu0_L2C PREFETCH  ACCESS:          0  HIT:          0  MISS:          0
cpu0_L2C WRITEBACK ACCESS:       5683  HIT:       5664  MISS:         19
LLC TOTAL     ACCESS:       9462  HIT:       3628  MISS:       5834
LLC LOAD      ACCESS:       3503  HIT:        642  MISS:       2861
LLC RFO       ACCESS:       3045  HIT:         73  MISS:       2972
LLC PREFETCH  ACCESS:          0  HIT:          0  MISS:          0
LLC WRITEBACK ACCESS:       2913  HIT:       2912  MISS:          1
Heartbeat CPU 0 instructions: 62000003 cycles: 17569443 heartbeat IPC: 2.34071 cumulative IPC: 2.43693 (Simulation time: 0 hr 26 min 40 sec) 

Region of Interest Statistics
cpu0_DTLB TOTAL     ACCESS:    1468033  HIT:    1455305  MISS:      12728
cpu0_DTLB LOAD      ACCESS:    1071587  HIT:    1062687  MISS:       8900
cpu0_DTLB RFO       ACCESS:     396446  HIT:     392618  MISS:       3828
cpu0_DTLB PREFETCH  ACCESS:          0  HIT:          0  MISS:          0
cpu0_DTLB WRITEBACK ACCESS:          0  HIT:          0  MISS:          0
cpu0_ITLB TOTAL     ACCESS:     586052  HIT:     585951  MISS:        101
cpu0_ITLB LOAD      ACCESS:     586052  HIT:     585951  MISS:        101
cpu0_ITLB RFO       ACCESS:          0  HIT:          0  MISS:          0
cpu0_ITLB PREFETCH  ACCESS:          0  HIT:          0  MISS:          0
cpu0_ITLB WRITEBACK ACCESS:          0  HIT:          0  MISS:          0
cpu0_L1I TOTAL     ACCESS:     535355  HIT:     459996  MISS:      75359
cpu0_L1I LOAD      ACCESS:     535355  HIT:     459996  MISS:      75359
cpu0_L1I RFO       ACCESS:          0  HIT:          0  MISS:          0
cpu0_L1I PREFETCH  ACCESS:          0  HIT:          0  MISS:          0
cpu0_L1I WRITEBACK ACCESS:          0  HIT:          0  MISS:          0
cpu0_STLB TOTAL     ACCESS:      12829  HIT:      12670  MISS:        159
cpu0_STLB LOAD      ACCESS:       9001  HIT:       8894  MISS:        107
cpu0_STLB RFO       ACCESS:       3828  HIT:       3776  MISS:         52
cpu0_STLB PREFETCH  ACCESS:          0  HIT:          0  MISS:          0
cpu0_STLB WRITEBACK ACCESS:          0  HIT:          0  MISS:          0
cpu0_L1D TOTAL     ACCESS:    1875651  HIT:    1859616  MISS:      16035
cpu0_L1D LOAD      ACCESS:    1090092  HIT:    1079112  MISS:      10980
cpu0_L1D RFO       ACCESS:     785409  HIT:     780368  MISS:       5041
cpu0_L1D PREFETCH  ACCESS:          0  HIT:          0  MISS:          0
cpu0_L1D WRITEBACK ACCESS:          0  HIT:          0  MISS:          0
cpu0_L2C TOTAL     ACCESS:      97570  HIT:      89709  MISS:       7861
cpu0_L2C LOAD      ACCESS:      86339  HIT:      81817  MISS:       4522
cpu0_L2C RFO       ACCESS:       5013  HIT:       1694  MISS:       3319
cpu0_L2C PREFETCH  ACCESS:          0  HIT:          0  MISS:          0
cpu0_L2C WRITEBACK ACCESS:       6204  HIT:       6185  MISS:         19
LLC TOTAL     ACCESS:      11341  HIT:       4345  MISS:       6996
LLC LOAD      ACCESS:       4522  HIT:        775  MISS:       3747
LLC RFO       ACCESS:       3319  HIT:         75  MISS:       3244
LLC PREFETCH  ACCESS:          0  HIT:          0  MISS:          0
LLC WRITEBACK ACCESS:       3499  HIT:       3494  MISS:          5
Heartbeat CPU 0 instructions: 64000000 cycles: 18441224 heartbeat IPC: 2.29415 cumulative IPC: 2.41545 (Simulation time: 0 hr 27 min 29 sec) 

Region of Interest Statistics
cpu0_DTLB TOTAL     ACCESS:    1710292  HIT:    1695784  MISS:      14508
cpu0_DTLB LOAD      ACCESS:    1249094  HIT:    1238941  MISS:      10153
cpu0_DTLB RFO       ACCESS:     461198  HIT:     456843  MISS:       4355
cpu0_DTLB PREFETCH  ACCESS:          0  HIT:          0  MISS:          0
cpu0_DTLB WRITEBACK ACCESS:          0  HIT:          0  MISS:          0
cpu0_ITLB TOTAL     ACCESS:     697587  HIT:     697485  MISS:        102
cpu0_ITLB LOAD      ACCESS:     697587  HIT:     697485  MISS:        102
cpu0_ITLB RFO       ACCESS:          0  HIT:          0  MISS:          0
cpu0_ITLB PREFETCH  ACCESS:          0  HIT:          0  MISS:          0
cpu0_ITLB WRITEBACK ACCESS:          0  HIT:          0  MISS:          0
cpu0_L1I TOTAL     ACCESS:     624048  HIT:     536760  MISS:      87288
cpu0_L1I LOAD      ACCESS:     624048  HIT:     536760  MISS:      87288
cpu0_L1I RFO       ACCESS:          0  HIT:          0  MISS:          0
cpu0_L1I PREFETCH  ACCESS:          0  HIT:          0  MISS:          0
cpu0_L1I WRITEBACK ACCESS:          0  HIT:          0  MISS:          0
cpu0_STLB TOTAL     ACCESS:      14610  HIT:      14448  MISS:        162
cpu0_STLB LOAD      ACCESS:      10255  HIT:      10148  MISS:        107
cpu0_STLB RFO       ACCESS:       4355  HIT:       4300  MISS:         55
cpu0_STLB PREFETCH  ACCESS:          0  HIT:          0  MISS:          0
cpu0_STLB WRITEBACK ACCESS:          0  HIT:          0  MISS:          0
cpu0_L1D TOTAL     ACCESS:    2193385  HIT:    2174829  MISS:      18556
cpu0_L1D LOAD      ACCESS:    1271818  HIT:    1259053  MISS:      12765
cpu0_L1D RFO       ACCESS:     921414  HIT:     915638  MISS:       5776
cpu0_L1D PREFETCH  ACCESS:          0  HIT:          0  MISS:          0
cpu0_L1D WRITEBACK ACCESS:          0  HIT:          0  MISS:          0
cpu0_L2C TOTAL     ACCESS:     112958  HIT:     104206  MISS:       8752
cpu0_L2C LOAD      ACCESS:     100052  HIT:      94972  MISS:       5080
cpu0_L2C RFO       ACCESS:       5744  HIT:       2097  MISS:       3647
cpu0_L2C PREFETCH  ACCESS:          0  HIT:          0  MISS:          0
cpu0_L2C WRITEBACK ACCESS:       7147  HIT:       7123  MISS:         24
LLC TOTAL     ACCESS:      12617  HIT:       4910  MISS:       7707
LLC LOAD      ACCESS:       5080  HIT:        938  MISS:       4142
LLC RFO       ACCESS:       3647  HIT:         87  MISS:       3560
LLC PREFETCH  ACCESS:          0  HIT:          0  MISS:          0
LLC WRITEBACK ACCESS:       3889  HIT:       3884  MISS:          5
Heartbeat CPU 0 instructions: 66000000 cycles: 19165065 heartbeat IPC: 2.76304 cumulative IPC: 2.45404 (Simulation time: 0 hr 28 min 20 sec) 

Region of Interest Statistics
cpu0_DTLB TOTAL     ACCESS:    1960429  HIT:    1944610  MISS:      15819
cpu0_DTLB LOAD      ACCESS:    1427483  HIT:    1416407  MISS:      11076
cpu0_DTLB RFO       ACCESS:     532946  HIT:     528203  MISS:       4743
cpu0_DTLB PREFETCH  ACCESS:          0  HIT:          0  MISS:          0
cpu0_DTLB WRITEBACK ACCESS:          0  HIT:          0  MISS:          0
cpu0_ITLB TOTAL     ACCESS:     767219  HIT:     767109  MISS:        110
cpu0_ITLB LOAD      ACCESS:     767219  HIT:     767109  MISS:        110
cpu0_ITLB RFO       ACCESS:          0  HIT:          0  MISS:          0
cpu0_ITLB PREFETCH  ACCESS:          0  HIT:          0  MISS:          0
cpu0_ITLB WRITEBACK ACCESS:          0  HIT:          0  MISS:          0
cpu0_L1I TOTAL     ACCESS:     693683  HIT:     597420  MISS:      96263
cpu0_L1I LOAD      ACCESS:     693683  HIT:     597420  MISS:      96263
cpu0_L1I RFO       ACCESS:          0  HIT:          0  MISS:          0
cpu0_L1I PREFETCH  ACCESS:          0  HIT:          0  MISS:          0
cpu0_L1I WRITEBACK ACCESS:          0  HIT:          0  MISS:          0
cpu0_STLB TOTAL     ACCESS:      15929  HIT:      15732  MISS:        197
cpu0_STLB LOAD      ACCESS:      11186  HIT:      11065  MISS:        121
cpu0_STLB RFO       ACCESS:       4743  HIT:       4667  MISS:         76
cpu0_STLB PREFETCH  ACCESS:          0  HIT:          0  MISS:          0
cpu0_STLB WRITEBACK ACCESS:          0  HIT:          0  MISS:          0
cpu0_L1D TOTAL     ACCESS:    2500000  HIT:    2478376  MISS:      21624
cpu0_L1D LOAD      ACCESS:    1469486  HIT:    1455021  MISS:      14465
cpu0_L1D RFO       ACCESS:    1030330  HIT:    1023189  MISS:       7141
cpu0_L1D PREFETCH  ACCESS:          0  HIT:          0  MISS:          0
cpu0_L1D WRITEBACK ACCESS:          0  HIT:          0  MISS:          0
cpu0_L2C TOTAL     ACCESS:     126758  HIT:     116363  MISS:      10395
cpu0_L2C LOAD      ACCESS:     110727  HIT:     105019  MISS:       5708
cpu0_L2C RFO       ACCESS:       7107  HIT:       2445  MISS:       4662
cpu0_L2C PREFETCH  ACCESS:          0  HIT:          0  MISS:          0
cpu0_L2C WRITEBACK ACCESS:       8906  HIT:       8882  MISS:         24
LLC TOTAL     ACCESS:      14932  HIT:       5704  MISS:       9228
LLC LOAD      ACCESS:       5708  HIT:       1052  MISS:       4656
LLC RFO       ACCESS:       4662  HIT:         95  MISS:       4567
LLC PREFETCH  ACCESS:          0  HIT:          0  MISS:          0
LLC WRITEBACK ACCESS:       4561  HIT:       4556  MISS:          5
Heartbeat CPU 0 instructions: 68000001 cycles: 20048235 heartbeat IPC: 2.26457 cumulative IPC: 2.43144 (Simulation time: 0 hr 29 min 12 sec) 

Region of Interest Statistics
cpu0_DTLB TOTAL     ACCESS:    2205853  HIT:    2187402  MISS:      18451
cpu0_DTLB LOAD      ACCESS:    1606357  HIT:    1593382  MISS:      12975
cpu0_DTLB RFO       ACCESS:     599496  HIT:     594020  MISS:       5476
cpu0_DTLB PREFETCH  ACCESS:          0  HIT:          0  MISS:          0
cpu0_DTLB WRITEBACK ACCESS:          0  HIT:          0  MISS:          0
cpu0_ITLB TOTAL     ACCESS:     882742  HIT:     882581  MISS:        161
cpu0_ITLB LOAD      ACCESS:     882742  HIT:     882581  MISS:        161
cpu0_ITLB RFO       ACCESS:          0  HIT:          0  MISS:          0
cpu0_ITLB PREFETCH  ACCESS:          0  HIT:          0  MISS:          0
cpu0_ITLB WRITEBACK ACCESS:          0  HIT:          0  MISS:          0
cpu0_L1I TOTAL     ACCESS:     801486  HIT:     689918  MISS:     111568
cpu0_L1I LOAD      ACCESS:     801486  HIT:     689918  MISS:     111568
cpu0_L1I RFO       ACCESS:          0  HIT:          0  MISS:          0
cpu0_L1I PREFETCH  ACCESS:          0  HIT:          0  MISS:          0
cpu0_L1I WRITEBACK ACCESS:          0  HIT:          0  MISS:          0
cpu0_STLB TOTAL     ACCESS:      18612  HIT:      18388  MISS:        224
cpu0_STLB LOAD      ACCESS:      13136  HIT:      12989  MISS:        147
cpu0_STLB RFO       ACCESS:       5476  HIT:       5399  MISS:         77
cpu0_STLB PREFETCH  ACCESS:          0  HIT:          0  MISS:          0
cpu0_STLB WRITEBACK ACCESS:          0  HIT:          0  MISS:          0
cpu0_L1D TOTAL     ACCESS:    2824510  HIT:    2800056  MISS:      24454
cpu0_L1D LOAD      ACCESS:    1639782  HIT:    1623093  MISS:      16689
cpu0_L1D RFO       ACCESS:    1184517  HIT:    1176771  MISS:       7746
cpu0_L1D PREFETCH  ACCESS:          0  HIT:          0  MISS:          0
cpu0_L1D WRITEBACK ACCESS:          0  HIT:          0  MISS:          0
cpu0_L2C TOTAL     ACCESS:     145523  HIT:     133838  MISS:      11685
cpu0_L2C LOAD      ACCESS:     128255  HIT:     121502  MISS:       6753
cpu0_L2C RFO       ACCESS:       7698  HIT:       2791  MISS:       4907
cpu0_L2C PREFETCH  ACCESS:          0  HIT:          0  MISS:          0
cpu0_L2C WRITEBACK ACCESS:       9551  HIT:       9527  MISS:         24
LLC TOTAL     ACCESS:      16692  HIT:       6425  MISS:      10267
LLC LOAD      ACCESS:       6753  HIT:       1303  MISS:       5450
LLC RFO       ACCESS:       4907  HIT:         95  MISS:       4812
LLC PREFETCH  ACCESS:          0  HIT:          0  MISS:          0
LLC WRITEBACK ACCESS:       5031  HIT:       5026  MISS:          5
Heartbeat CPU 0 instructions: 70000002 cycles: 20906991 heartbeat IPC: 2.32895 cumulative IPC: 2.42079 (Simulation time: 0 hr 30 min 0 sec) 

Region of Interest Statistics
cpu0_DTLB TOTAL     ACCESS:    2441586  HIT:    2420787  MISS:      20799
cpu0_DTLB LOAD      ACCESS:    1778299  HIT:    1763704  MISS:      14595
cpu0_DTLB RFO       ACCESS:     663287  HIT:     657083  MISS:       6204
cpu0_DTLB PREFETCH  ACCESS:          0  HIT:          0  MISS:          0
cpu0_DTLB WRITEBACK ACCESS:          0  HIT:          0  MISS:          0
cpu0_ITLB TOTAL     ACCESS:     991934  HIT:     991764  MISS:        170
cpu0_ITLB LOAD      ACCESS:     991934  HIT:     991764  MISS:        170
cpu0_ITLB RFO       ACCESS:          0  HIT:          0  MISS:          0
cpu0_ITLB PREFETCH  ACCESS:          0  HIT:          0  MISS:          0
cpu0_ITLB WRITEBACK ACCESS:          0  HIT:          0  MISS:          0
cpu0_L1I TOTAL     ACCESS:     911729  HIT:     782646  MISS:     129083
cpu0_L1I LOAD      ACCESS:     911729  HIT:     782646  MISS:     129083
cpu0_L1I RFO       ACCESS:          0  HIT:          0  MISS:          0
cpu0_L1I PREFETCH  ACCESS:          0  HIT:          0  MISS:          0
cpu0_L1I WRITEBACK ACCESS:          0  HIT:          0  MISS:          0
cpu0_STLB TOTAL     ACCESS:      20969  HIT:      20722  MISS:        247
cpu0_STLB LOAD      ACCESS:      14765  HIT:      14595  MISS:        170
cpu0_STLB RFO       ACCESS:       6204  HIT:       6127  MISS:         77
cpu0_STLB PREFETCH  ACCESS:          0  HIT:          0  MISS:          0
cpu0_STLB WRITEBACK ACCESS:          0  HIT:          0  MISS:          0
cpu0_L1D TOTAL     ACCESS:    3136608  HIT:    3110354  MISS:      26254
cpu0_L1D LOAD      ACCESS:    1800868  HIT:    1782817  MISS:      18051
cpu0_L1D RFO       ACCESS:    1335506  HIT:    1327323  MISS:       8183
cpu0_L1D PREFETCH  ACCESS:          0  HIT:          0  MISS:          0
cpu0_L1D WRITEBACK ACCESS:          0  HIT:          0  MISS:          0
cpu0_L2C TOTAL     ACCESS:     165275  HIT:     152518  MISS:      12757
cpu0_L2C LOAD      ACCESS:     147132  HIT:     139552  MISS:       7580
cpu0_L2C RFO       ACCESS:       8127  HIT:       2976  MISS:       5151
cpu0_L2C PREFETCH  ACCESS:          0  HIT:          0  MISS:          0
cpu0_L2C WRITEBACK ACCESS:       9996  HIT:       9971  MISS:         25
LLC TOTAL     ACCESS:      18236  HIT:       7016  MISS:      11220
LLC LOAD      ACCESS:       7580  HIT:       1421  MISS:       6159
LLC RFO       ACCESS:       5151  HIT:         95  MISS:       5056
LLC PREFETCH  ACCESS:          0  HIT:          0  MISS:          0
LLC WRITEBACK ACCESS:       5504  HIT:       5499  MISS:          5
Heartbeat CPU 0 instructions: 72000004 cycles: 21648358 heartbeat IPC: 2.69772 cumulative IPC: 2.44359 (Simulation time: 0 hr 30 min 47 sec) 

Region of Interest Statistics
cpu0_DTLB TOTAL     ACCESS:    2694421  HIT:    2673125  MISS:      21296
cpu0_DTLB LOAD      ACCESS:    1958613  HIT:    1943709  MISS:      14904
cpu0_DTLB RFO       ACCESS:     735808  HIT:     729416  MISS:       6392
cpu0_DTLB PREFETCH  ACCESS:          0  HIT:          0  MISS:          0
cpu0_DTLB WRITEBACK ACCESS:          0  HIT:          0  MISS:          0
cpu0_ITLB TOTAL     ACCESS:    1061517  HIT:    1061336  MISS:        181
cpu0_ITLB LOAD      ACCESS:    1061517  HIT:    1061336  MISS:        181
cpu0_ITLB RFO       ACCESS:          0  HIT:          0  MISS:          0
cpu0_ITLB PREFETCH  ACCESS:          0  HIT:          0  MISS:          0
cpu0_ITLB WRITEBACK ACCESS:          0  HIT:          0  MISS:          0
cpu0_L1I TOTAL     ACCESS:     961453  HIT:     828865  MISS:     132588
cpu0_L1I LOAD      ACCESS:     961453  HIT:     828865  MISS:     132588
cpu0_L1I RFO       ACCESS:          0  HIT:          0  MISS:          0
cpu0_L1I PREFETCH  ACCESS:          0  HIT:          0  MISS:          0
cpu0_L1I WRITEBACK ACCESS:          0  HIT:          0  MISS:          0
cpu0_STLB TOTAL     ACCESS:      21477  HIT:      21198  MISS:        279
cpu0_STLB LOAD      ACCESS:      15085  HIT:      14908  MISS:        177
cpu0_STLB RFO       ACCESS:       6392  HIT:       6290  MISS:        102
cpu0_STLB PREFETCH  ACCESS:          0  HIT:          0  MISS:          0
cpu0_STLB WRITEBACK ACCESS:          0  HIT:          0  MISS:          0
cpu0_L1D TOTAL     ACCESS:    3448674  HIT:    3419691  MISS:      28983
cpu0_L1D LOAD      ACCESS:    2017706  HIT:    1998261  MISS:      19445
cpu0_L1D RFO       ACCESS:    1430708  HIT:    1421193  MISS:       9515
cpu0_L1D PREFETCH  ACCESS:          0  HIT:          0  MISS:          0
cpu0_L1D WRITEBACK ACCESS:          0  HIT:          0  MISS:          0
cpu0_L2C TOTAL     ACCESS:     173220  HIT:     159082  MISS:      14138
cpu0_L2C LOAD      ACCESS:     152031  HIT:     144182  MISS:       7849
cpu0_L2C RFO       ACCESS:       9459  HIT:       3202  MISS:       6257
cpu0_L2C PREFETCH  ACCESS:          0  HIT:          0  MISS:          0
cpu0_L2C WRITEBACK ACCESS:      11707  HIT:      11678  MISS:         29
LLC TOTAL     ACCESS:      20179  HIT:       7748  MISS:      12431
LLC LOAD      ACCESS:       7849  HIT:       1574  MISS:       6275
LLC RFO       ACCESS:       6257  HIT:        107  MISS:       6150
LLC PREFETCH  ACCESS:          0  HIT:          0  MISS:          0
LLC WRITEBACK ACCESS:       6070  HIT:       6065  MISS:          5
Heartbeat CPU 0 instructions: 74000000 cycles: 22560767 heartbeat IPC: 2.192 cumulative IPC: 2.42044 (Simulation time: 0 hr 31 min 40 sec) 

Region of Interest Statistics
cpu0_DTLB TOTAL     ACCESS:    2947124  HIT:    2923259  MISS:      23865
cpu0_DTLB LOAD      ACCESS:    2142186  HIT:    2125429  MISS:      16757
cpu0_DTLB RFO       ACCESS:     804938  HIT:     797830  MISS:       7108
cpu0_DTLB PREFETCH  ACCESS:          0  HIT:          0  MISS:          0
cpu0_DTLB WRITEBACK ACCESS:          0  HIT:          0  MISS:          0
cpu0_ITLB TOTAL     ACCESS:    1180324  HIT:    1180105  MISS:        219
cpu0_ITLB LOAD      ACCESS:    1180324  HIT:    1180105  MISS:        219
cpu0_ITLB RFO       ACCESS:          0  HIT:          0  MISS:          0
cpu0_ITLB PREFETCH  ACCESS:          0  HIT:          0  MISS:          0
cpu0_ITLB WRITEBACK ACCESS:          0  HIT:          0  MISS:          0
cpu0_L1I TOTAL     ACCESS:    1071498  HIT:     922963  MISS:     148535
cpu0_L1I LOAD      ACCESS:    1071498  HIT:     922963  MISS:     148535
cpu0_L1I RFO       ACCESS:          0  HIT:          0  MISS:          0
cpu0_L1I PREFETCH  ACCESS:          0  HIT:          0  MISS:          0
cpu0_L1I WRITEBACK ACCESS:          0  HIT:          0  MISS:          0
cpu0_STLB TOTAL     ACCESS:      24084  HIT:      23755  MISS:        329
cpu0_STLB LOAD      ACCESS:      16976  HIT:      16752  MISS:        224
cpu0_STLB RFO       ACCESS:       7108  HIT:       7003  MISS:        105
cpu0_STLB PREFETCH  ACCESS:          0  HIT:          0  MISS:          0
cpu0_STLB WRITEBACK ACCESS:          0  HIT:          0  MISS:          0
cpu0_L1D TOTAL     ACCESS:    3779779  HIT:    3748070  MISS:      31709
cpu0_L1D LOAD      ACCESS:    2190921  HIT:    2169209  MISS:      21712
cpu0_L1D RFO       ACCESS:    1588549  HIT:    1578581  MISS:       9968
cpu0_L1D PREFETCH  ACCESS:          0  HIT:          0  MISS:          0
cpu0_L1D WRITEBACK ACCESS:          0  HIT:          0  MISS:          0
cpu0_L2C TOTAL     ACCESS:     192564  HIT:     176992  MISS:      15572
cpu0_L2C LOAD      ACCESS:     170245  HIT:     161163  MISS:       9082
cpu0_L2C RFO       ACCESS:       9911  HIT:       3456  MISS:       6455
cpu0_L2C PREFETCH  ACCESS:          0  HIT:          0  MISS:          0
cpu0_L2C WRITEBACK ACCESS:      12379  HIT:      12350  MISS:         29
LLC TOTAL     ACCESS:      22102  HIT:       8643  MISS:      13459
LLC LOAD      ACCESS:       9082  HIT:       1977  MISS:       7105
LLC RFO       ACCESS:       6455  HIT:        107  MISS:       6348
LLC PREFETCH  ACCESS:          0  HIT:          0  MISS:          0
LLC WRITEBACK ACCESS:       6559  HIT:       6554  MISS:          5
Heartbeat CPU 0 instructions: 76000004 cycles: 23418968 heartbeat IPC: 2.33046 cumulative IPC: 2.41327 (Simulation time: 0 hr 32 min 29 sec) 

Region of Interest Statistics
cpu0_DTLB TOTAL     ACCESS:    3185721  HIT:    3158900  MISS:      26821
cpu0_DTLB LOAD      ACCESS:    2318563  HIT:    2299733  MISS:      18830
cpu0_DTLB RFO       ACCESS:     867158  HIT:     859167  MISS:       7991
cpu0_DTLB PREFETCH  ACCESS:          0  HIT:          0  MISS:          0
cpu0_DTLB WRITEBACK ACCESS:          0  HIT:          0  MISS:          0
cpu0_ITLB TOTAL     ACCESS:    1292604  HIT:    1292363  MISS:        241
cpu0_ITLB LOAD      ACCESS:    1292604  HIT:    1292363  MISS:        241
cpu0_ITLB RFO       ACCESS:          0  HIT:          0  MISS:          0
cpu0_ITLB PREFETCH  ACCESS:          0  HIT:          0  MISS:          0
cpu0_ITLB WRITEBACK ACCESS:          0  HIT:          0  MISS:          0
cpu0_L1I TOTAL     ACCESS:    1178602  HIT:    1014028  MISS:     164574
cpu0_L1I LOAD      ACCESS:    1178602  HIT:    1014028  MISS:     164574
cpu0_L1I RFO       ACCESS:          0  HIT:          0  MISS:          0
cpu0_L1I PREFETCH  ACCESS:          0  HIT:          0  MISS:          0
cpu0_L1I WRITEBACK ACCESS:          0  HIT:          0  MISS:          0
cpu0_STLB TOTAL     ACCESS:      27062  HIT:      26715  MISS:        347
cpu0_STLB LOAD      ACCESS:      19071  HIT:      18829  MISS:        242
cpu0_STLB RFO       ACCESS:       7991  HIT:       7886  MISS:        105
cpu0_STLB PREFETCH  ACCESS:          0  HIT:          0  MISS:          0
cpu0_STLB WRITEBACK ACCESS:          0  HIT:          0  MISS:          0
cpu0_L1D TOTAL     ACCESS:    4089878  HIT:    4055513  MISS:      34365
cpu0_L1D LOAD      ACCESS:    2355017  HIT:    2331257  MISS:      23760
cpu0_L1D RFO       ACCESS:    1734534  HIT:    1723959  MISS:      10575
cpu0_L1D PREFETCH  ACCESS:          0  HIT:          0  MISS:          0
cpu0_L1D WRITEBACK ACCESS:          0  HIT:          0  MISS:          0
cpu0_L2C TOTAL     ACCESS:     211850  HIT:     194897  MISS:      16953
cpu0_L2C LOAD      ACCESS:     188332  HIT:     178164  MISS:      10168
cpu0_L2C RFO       ACCESS:      10516  HIT:       3769  MISS:       6747
cpu0_L2C PREFETCH  ACCESS:          0  HIT:          0  MISS:          0
cpu0_L2C WRITEBACK ACCESS:      12972  HIT:      12940  MISS:         32
LLC TOTAL     ACCESS:      24036  HIT:       9442  MISS:      14594
LLC LOAD      ACCESS:      10168  HIT:       2221  MISS:       7947
LLC RFO       ACCESS:       6747  HIT:        107  MISS:       6640
LLC PREFETCH  ACCESS:          0  HIT:          0  MISS:          0
LLC WRITEBACK ACCESS:       7115  HIT:       7109  MISS:          6
Heartbeat CPU 0 instructions: 78000003 cycles: 24249684 heartbeat IPC: 2.40756 cumulative IPC: 2.41286 (Simulation time: 0 hr 33 min 16 sec) 

Region of Interest Statistics
cpu0_DTLB TOTAL     ACCESS:    3429899  HIT:    3401805  MISS:      28094
cpu0_DTLB LOAD      ACCESS:    2496179  HIT:    2476471  MISS:      19708
cpu0_DTLB RFO       ACCESS:     933720  HIT:     925334  MISS:       8386
cpu0_DTLB PREFETCH  ACCESS:          0  HIT:          0  MISS:          0
cpu0_DTLB WRITEBACK ACCESS:          0  HIT:          0  MISS:          0
cpu0_ITLB TOTAL     ACCESS:    1392567  HIT:    1392325  MISS:        242
cpu0_ITLB LOAD      ACCESS:    1392567  HIT:    1392325  MISS:        242
cpu0_ITLB RFO       ACCESS:          0  HIT:          0  MISS:          0
cpu0_ITLB PREFETCH  ACCESS:          0  HIT:          0  MISS:          0
cpu0_ITLB WRITEBACK ACCESS:          0  HIT:          0  MISS:          0
cpu0_L1I TOTAL     ACCESS:    1254388  HIT:    1080564  MISS:     173824
cpu0_L1I LOAD      ACCESS:    1254388  HIT:    1080564  MISS:     173824
cpu0_L1I RFO       ACCESS:          0  HIT:          0  MISS:          0
cpu0_L1I PREFETCH  ACCESS:          0  HIT:          0  MISS:          0
cpu0_L1I WRITEBACK ACCESS:          0  HIT:          0  MISS:          0
cpu0_STLB TOTAL     ACCESS:      28336  HIT:      27982  MISS:        354
cpu0_STLB LOAD      ACCESS:      19950  HIT:      19708  MISS:        242
cpu0_STLB RFO       ACCESS:       8386  HIT:       8274  MISS:        112
cpu0_STLB PREFETCH  ACCESS:          0  HIT:          0  MISS:          0
cpu0_STLB WRITEBACK ACCESS:          0  HIT:          0  MISS:          0
cpu0_L1D TOTAL     ACCESS:    4405372  HIT:    4368939  MISS:      36433
cpu0_L1D LOAD      ACCESS:    2547728  HIT:    2522605  MISS:      25123
cpu0_L1D RFO       ACCESS:    1857310  HIT:    1846032  MISS:      11278
cpu0_L1D PREFETCH  ACCESS:          0  HIT:          0  MISS:          0
cpu0_L1D WRITEBACK ACCESS:          0  HIT:          0  MISS:          0
cpu0_L2C TOTAL     ACCESS:     224086  HIT:     206090  MISS:      17996
cpu0_L2C LOAD      ACCESS:     198945  HIT:     188274  MISS:      10671
cpu0_L2C RFO       ACCESS:      11218  HIT:       3938  MISS:       7280
cpu0_L2C PREFETCH  ACCESS:          0  HIT:          0  MISS:          0
cpu0_L2C WRITEBACK ACCESS:      13891  HIT:      13852  MISS:         39
LLC TOTAL     ACCESS:      25472  HIT:      10026  MISS:      15446
LLC LOAD      ACCESS:      10671  HIT:       2399  MISS:       8272
LLC RFO       ACCESS:       7280  HIT:        113  MISS:       7167
LLC PREFETCH  ACCESS:          0  HIT:          0  MISS:          0
LLC WRITEBACK ACCESS:       7515  HIT:       7509  MISS:          6
Heartbeat CPU 0 instructions: 80000002 cycles: 25023509 heartbeat IPC: 2.58456 cumulative IPC: 2.4236 (Simulation time: 0 hr 34 min 6 sec) 

Region of Interest Statistics
cpu0_DTLB TOTAL     ACCESS:    3676456  HIT:    3646586  MISS:      29870
cpu0_DTLB LOAD      ACCESS:    2671631  HIT:    2650597  MISS:      21034
cpu0_DTLB RFO       ACCESS:    1004825  HIT:     995989  MISS:       8836
cpu0_DTLB PREFETCH  ACCESS:          0  HIT:          0  MISS:          0
cpu0_DTLB WRITEBACK ACCESS:          0  HIT:          0  MISS:          0
cpu0_ITLB TOTAL     ACCESS:    1473964  HIT:    1473694  MISS:        270
cpu0_ITLB LOAD      ACCESS:    1473964  HIT:    1473694  MISS:        270
cpu0_ITLB RFO       ACCESS:          0  HIT:          0  MISS:          0
cpu0_ITLB PREFETCH  ACCESS:          0  HIT:          0  MISS:          0
cpu0_ITLB WRITEBACK ACCESS:          0  HIT:          0  MISS:          0
cpu0_L1I TOTAL     ACCESS:    1337609  HIT:    1151990  MISS:     185619
cpu0_L1I LOAD      ACCESS:    1337609  HIT:    1151990  MISS:     185619
cpu0_L1I RFO       ACCESS:          0  HIT:          0  MISS:          0
cpu0_L1I PREFETCH  ACCESS:          0  HIT:          0  MISS:          0
cpu0_L1I WRITEBACK ACCESS:          0  HIT:          0  MISS:          0
cpu0_STLB TOTAL     ACCESS:      30140  HIT:      29758  MISS:        382
cpu0_STLB LOAD      ACCESS:      21304  HIT:      21052  MISS:        252
cpu0_STLB RFO       ACCESS:       8836  HIT:       8706  MISS:        130
cpu0_STLB PREFETCH  ACCESS:          0  HIT:          0  MISS:          0
cpu0_STLB WRITEBACK ACCESS:          0  HIT:          0  MISS:          0
cpu0_L1D TOTAL     ACCESS:    4716792  HIT:    4677548  MISS:      39244
cpu0_L1D LOAD      ACCESS:    2734463  HIT:    2707662  MISS:      26801
cpu0_L1D RFO       ACCESS:    1981972  HIT:    1969565  MISS:      12407
cpu0_L1D PREFETCH  ACCESS:          0  HIT:          0  MISS:          0
cpu0_L1D WRITEBACK ACCESS:          0  HIT:          0  MISS:          0
cpu0_L2C TOTAL     ACCESS:     240171  HIT:     220657  MISS:      19514
cpu0_L2C LOAD      ACCESS:     212418  HIT:     201030  MISS:      11388
cpu0_L2C RFO       ACCESS:      12343  HIT:       4266  MISS:       8077
cpu0_L2C PREFETCH  ACCESS:          0  HIT:          0  MISS:          0
cpu0_L2C WRITEBACK ACCESS:      15374  HIT:      15333  MISS:         41
LLC TOTAL     ACCESS:      27455  HIT:      10710  MISS:      16745
LLC LOAD      ACCESS:      11388  HIT:       2602  MISS:       8786
LLC RFO       ACCESS:       8077  HIT:        126  MISS:       7951
LLC PREFETCH  ACCESS:          0  HIT:          0  MISS:          0
LLC WRITEBACK ACCESS:       7982  HIT:       7975  MISS:          7
Heartbeat CPU 0 instructions: 82000000 cycles: 25900033 heartbeat IPC: 2.28174 cumulative IPC: 2.41422 (Simulation time: 0 hr 34 min 58 sec) 

Region of Interest Statistics
cpu0_DTLB TOTAL     ACCESS:    3921357  HIT:    3888558  MISS:      32799
cpu0_DTLB LOAD      ACCESS:    2852320  HIT:    2829119  MISS:      23201
cpu0_DTLB RFO       ACCESS:    1069037  HIT:    1059439  MISS:       9598
cpu0_DTLB PREFETCH  ACCESS:          0  HIT:          0  MISS:          0
cpu0_DTLB WRITEBACK ACCESS:          0  HIT:          0  MISS:          0
cpu0_ITLB TOTAL     ACCESS:    1590564  HIT:    1590238  MISS:        326
cpu0_ITLB LOAD      ACCESS:    1590564  HIT:    1590238  MISS:        326
cpu0_ITLB RFO       ACCESS:          0  HIT:          0  MISS:          0
cpu0_ITLB PREFETCH  ACCESS:          0  HIT:          0  MISS:          0
cpu0_ITLB WRITEBACK ACCESS:          0  HIT:          0  MISS:          0
cpu0_L1I TOTAL     ACCESS:    1443801  HIT:    1243010  MISS:     200791
cpu0_L1I LOAD      ACCESS:    1443801  HIT:    1243010  MISS:     200791
cpu0_L1I RFO       ACCESS:          0  HIT:          0  MISS:          0
cpu0_L1I PREFETCH  ACCESS:          0  HIT:          0  MISS:          0
cpu0_L1I WRITEBACK ACCESS:          0  HIT:          0  MISS:          0
cpu0_STLB TOTAL     ACCESS:      33125  HIT:      32738  MISS:        387
cpu0_STLB LOAD      ACCESS:      23527  HIT:      23271  MISS:        256
cpu0_STLB RFO       ACCESS:       9598  HIT:       9467  MISS:        131
cpu0_STLB PREFETCH  ACCESS:          0  HIT:          0  MISS:          0
cpu0_STLB WRITEBACK ACCESS:          0  HIT:          0  MISS:          0
cpu0_L1D TOTAL     ACCESS:    5035565  HIT:    4993233  MISS:      42332
cpu0_L1D LOAD      ACCESS:    2904294  HIT:    2874894  MISS:      29400
cpu0_L1D RFO       ACCESS:    2130909  HIT:    2118015  MISS:      12894
cpu0_L1D PREFETCH  ACCESS:          0  HIT:          0  MISS:          0
cpu0_L1D WRITEBACK ACCESS:          0  HIT:          0  MISS:          0
cpu0_L2C TOTAL     ACCESS:     258985  HIT:     237926  MISS:      21059
cpu0_L2C LOAD      ACCESS:     230189  HIT:     217483  MISS:      12706
cpu0_L2C RFO       ACCESS:      12827  HIT:       4524  MISS:       8303
cpu0_L2C PREFETCH  ACCESS:          0  HIT:          0  MISS:          0
cpu0_L2C WRITEBACK ACCESS:      15931  HIT:      15890  MISS:         41
LLC TOTAL     ACCESS:      29621  HIT:      11894  MISS:      17727
LLC LOAD      ACCESS:      12706  HIT:       3164  MISS:       9542
LLC RFO       ACCESS:       8303  HIT:        126  MISS:       8177
LLC PREFETCH  ACCESS:          0  HIT:          0  MISS:          0
LLC WRITEBACK ACCESS:       8603  HIT:       8596  MISS:          7
Heartbeat CPU 0 instructions: 84000001 cycles: 26757253 heartbeat IPC: 2.33312 cumulative IPC: 2.40929 (Simulation time: 0 hr 35 min 46 sec) 

Region of Interest Statistics
cpu0_DTLB TOTAL     ACCESS:    4156268  HIT:    4120414  MISS:      35854
cpu0_DTLB LOAD      ACCESS:    3023937  HIT:    2998520  MISS:      25417
cpu0_DTLB RFO       ACCESS:    1132331  HIT:    1121894  MISS:      10437
cpu0_DTLB PREFETCH  ACCESS:          0  HIT:          0  MISS:          0
cpu0_DTLB WRITEBACK ACCESS:          0  HIT:          0  MISS:          0
cpu0_ITLB TOTAL     ACCESS:    1699067  HIT:    1698726  MISS:        341
cpu0_ITLB LOAD      ACCESS:    1699067  HIT:    1698726  MISS:        341
cpu0_ITLB RFO       ACCESS:          0  HIT:          0  MISS:          0
cpu0_ITLB PREFETCH  ACCESS:          0  HIT:          0  MISS:          0
cpu0_ITLB WRITEBACK ACCESS:          0  HIT:          0  MISS:          0
cpu0_L1I TOTAL     ACCESS:    1554082  HIT:    1336019  MISS:     218063
cpu0_L1I LOAD      ACCESS:    1554082  HIT:    1336019  MISS:     218063
cpu0_L1I RFO       ACCESS:          0  HIT:          0  MISS:          0
cpu0_L1I PREFETCH  ACCESS:          0  HIT:          0  MISS:          0
cpu0_L1I WRITEBACK ACCESS:          0  HIT:          0  MISS:          0
cpu0_STLB TOTAL     ACCESS:      36195  HIT:      35808  MISS:        387
cpu0_STLB LOAD      ACCESS:      25758  HIT:      25502  MISS:        256
cpu0_STLB RFO       ACCESS:      10437  HIT:      10306  MISS:        131
cpu0_STLB PREFETCH  ACCESS:          0  HIT:          0  MISS:          0
cpu0_STLB WRITEBACK ACCESS:          0  HIT:          0  MISS:          0
cpu0_L1D TOTAL     ACCESS:    5346886  HIT:    5302508  MISS:      44378
cpu0_L1D LOAD      ACCESS:    3065231  HIT:    3034264  MISS:      30967
cpu0_L1D RFO       ACCESS:    2281293  HIT:    2267920  MISS:      13373
cpu0_L1D PREFETCH  ACCESS:          0  HIT:          0  MISS:          0
cpu0_L1D WRITEBACK ACCESS:          0  HIT:          0  MISS:          0
cpu0_L2C TOTAL     ACCESS:     278742  HIT:     256536  MISS:      22206
cpu0_L2C LOAD      ACCESS:     249028  HIT:     235432  MISS:      13596
cpu0_L2C RFO       ACCESS:      13304  HIT:       4744  MISS:       8560
cpu0_L2C PREFETCH  ACCESS:          0  HIT:          0  MISS:          0
cpu0_L2C WRITEBACK ACCESS:      16372  HIT:      16331  MISS:         41
LLC TOTAL     ACCESS:      31340  HIT:      12606  MISS:      18734
LLC LOAD      ACCESS:      13596  HIT:       3304  MISS:      10292
LLC RFO       ACCESS:       8560  HIT:        126  MISS:       8434
LLC PREFETCH  ACCESS:          0  HIT:          0  MISS:          0
LLC WRITEBACK ACCESS:       9175  HIT:       9168  MISS:          7
Heartbeat CPU 0 instructions: 86000003 cycles: 27502262 heartbeat IPC: 2.68453 cumulative IPC: 2.42309 (Simulation time: 0 hr 36 min 34 sec) 

Region of Interest Statistics
cpu0_DTLB TOTAL     ACCESS:    4409846  HIT:    4373522  MISS:      36324
cpu0_DTLB LOAD      ACCESS:    3205345  HIT:    3179605  MISS:      25740
cpu0_DTLB RFO       ACCESS:    1204501  HIT:    1193917  MISS:      10584
cpu0_DTLB PREFETCH  ACCESS:          0  HIT:          0  MISS:          0
cpu0_DTLB WRITEBACK ACCESS:          0  HIT:          0  MISS:          0
cpu0_ITLB TOTAL     ACCESS:    1770874  HIT:    1770518  MISS:        356
cpu0_ITLB LOAD      ACCESS:    1770874  HIT:    1770518  MISS:        356
cpu0_ITLB RFO       ACCESS:          0  HIT:          0  MISS:          0
cpu0_ITLB PREFETCH  ACCESS:          0  HIT:          0  MISS:          0
cpu0_ITLB WRITEBACK ACCESS:          0  HIT:          0  MISS:          0
cpu0_L1I TOTAL     ACCESS:    1600403  HIT:    1378994  MISS:     221409
cpu0_L1I LOAD      ACCESS:    1600403  HIT:    1378994  MISS:     221409
cpu0_L1I RFO       ACCESS:          0  HIT:          0  MISS:          0
cpu0_L1I PREFETCH  ACCESS:          0  HIT:          0  MISS:          0
cpu0_L1I WRITEBACK ACCESS:          0  HIT:          0  MISS:          0
cpu0_STLB TOTAL     ACCESS:      36681  HIT:      36264  MISS:        417
cpu0_STLB LOAD      ACCESS:      26097  HIT:      25834  MISS:        263
cpu0_STLB RFO       ACCESS:      10584  HIT:      10430  MISS:        154
cpu0_STLB PREFETCH  ACCESS:          0  HIT:          0  MISS:          0
cpu0_STLB WRITEBACK ACCESS:          0  HIT:          0  MISS:          0
cpu0_L1D TOTAL     ACCESS:    5658637  HIT:    5611520  MISS:      47117
cpu0_L1D LOAD      ACCESS:    3283232  HIT:    3250828  MISS:      32404
cpu0_L1D RFO       ACCESS:    2375019  HIT:    2360347  MISS:      14672
cpu0_L1D PREFETCH  ACCESS:          0  HIT:          0  MISS:          0
cpu0_L1D WRITEBACK ACCESS:          0  HIT:          0  MISS:          0
cpu0_L2C TOTAL     ACCESS:     286571  HIT:     262818  MISS:      23753
cpu0_L2C LOAD      ACCESS:     253811  HIT:     239765  MISS:      14046
cpu0_L2C RFO       ACCESS:      14603  HIT:       4952  MISS:       9651
cpu0_L2C PREFETCH  ACCESS:          0  HIT:          0  MISS:          0
cpu0_L2C WRITEBACK ACCESS:      18116  HIT:      18071  MISS:         45
LLC TOTAL     ACCESS:      33538  HIT:      13569  MISS:      19969
LLC LOAD      ACCESS:      14046  HIT:       3591  MISS:      10455
LLC RFO       ACCESS:       9651  HIT:        148  MISS:       9503
LLC PREFETCH  ACCESS:          0  HIT:          0  MISS:          0
LLC WRITEBACK ACCESS:       9830  HIT:       9821  MISS:          9
Heartbeat CPU 0 instructions: 88000003 cycles: 28381992 heartbeat IPC: 2.27342 cumulative IPC: 2.41473 (Simulation time: 0 hr 37 min 23 sec) 

Region of Interest Statistics
cpu0_DTLB TOTAL     ACCESS:    4659027  HIT:    4620166  MISS:      38861
cpu0_DTLB LOAD      ACCESS:    3387632  HIT:    3359980  MISS:      27652
cpu0_DTLB RFO       ACCESS:    1271395  HIT:    1260186  MISS:      11209
cpu0_DTLB PREFETCH  ACCESS:          0  HIT:          0  MISS:          0
cpu0_DTLB WRITEBACK ACCESS:          0  HIT:          0  MISS:          0
cpu0_ITLB TOTAL     ACCESS:    1888661  HIT:    1888251  MISS:        410
cpu0_ITLB LOAD      ACCESS:    1888661  HIT:    1888251  MISS:        410
cpu0_ITLB RFO       ACCESS:          0  HIT:          0  MISS:          0
cpu0_ITLB PREFETCH  ACCESS:          0  HIT:          0  MISS:          0
cpu0_ITLB WRITEBACK ACCESS:          0  HIT:          0  MISS:          0
cpu0_L1I TOTAL     ACCESS:    1708375  HIT:    1470737  MISS:     237638
cpu0_L1I LOAD      ACCESS:    1708375  HIT:    1470737  MISS:     237638
cpu0_L1I RFO       ACCESS:          0  HIT:          0  MISS:          0
cpu0_L1I PREFETCH  ACCESS:          0  HIT:          0  MISS:          0
cpu0_L1I WRITEBACK ACCESS:          0  HIT:          0  MISS:          0
cpu0_STLB TOTAL     ACCESS:      39271  HIT:      38851  MISS:        420
cpu0_STLB LOAD      ACCESS:      28062  HIT:      27798  MISS:        264
cpu0_STLB RFO       ACCESS:      11209  HIT:      11053  MISS:        156
cpu0_STLB PREFETCH  ACCESS:          0  HIT:          0  MISS:          0
cpu0_STLB WRITEBACK ACCESS:          0  HIT:          0  MISS:          0
cpu0_L1D TOTAL     ACCESS:    5984029  HIT:    5934097  MISS:      49932
cpu0_L1D LOAD      ACCESS:    3454747  HIT:    3420073  MISS:      34674
cpu0_L1D RFO       ACCESS:    2528893  HIT:    2513679  MISS:      15214
cpu0_L1D PREFETCH  ACCESS:          0  HIT:          0  MISS:          0
cpu0_L1D WRITEBACK ACCESS:          0  HIT:          0  MISS:          0
cpu0_L2C TOTAL     ACCESS:     306331  HIT:     281442  MISS:      24889
cpu0_L2C LOAD      ACCESS:     272310  HIT:     257340  MISS:      14970
cpu0_L2C RFO       ACCESS:      15135  HIT:       5273  MISS:       9862
cpu0_L2C PREFETCH  ACCESS:          0  HIT:          0  MISS:          0
cpu0_L2C WRITEBACK ACCESS:      18842  HIT:      18797  MISS:         45
LLC TOTAL     ACCESS:      34961  HIT:      14358  MISS:      20603
LLC LOAD      ACCESS:      14970  HIT:       4091  MISS:      10879
LLC RFO       ACCESS:       9862  HIT:        149  MISS:       9713
LLC PREFETCH  ACCESS:          0  HIT:          0  MISS:          0
LLC WRITEBACK ACCESS:      10117  HIT:      10108  MISS:          9
Heartbeat CPU 0 instructions: 90000003 cycles: 29248691 heartbeat IPC: 2.30761 cumulative IPC: 2.40913 (Simulation time: 0 hr 38 min 14 sec) 

Region of Interest Statistics
cpu0_DTLB TOTAL     ACCESS:    4899656  HIT:    4858245  MISS:      41411
cpu0_DTLB LOAD      ACCESS:    3566139  HIT:    3536662  MISS:      29477
cpu0_DTLB RFO       ACCESS:    1333517  HIT:    1321583  MISS:      11934
cpu0_DTLB PREFETCH  ACCESS:          0  HIT:          0  MISS:          0
cpu0_DTLB WRITEBACK ACCESS:          0  HIT:          0  MISS:          0
cpu0_ITLB TOTAL     ACCESS:    2002643  HIT:    2002192  MISS:        451
cpu0_ITLB LOAD      ACCESS:    2002643  HIT:    2002192  MISS:        451
cpu0_ITLB RFO       ACCESS:          0  HIT:          0  MISS:          0
cpu0_ITLB PREFETCH  ACCESS:          0  HIT:          0  MISS:          0
cpu0_ITLB WRITEBACK ACCESS:          0  HIT:          0  MISS:          0
cpu0_L1I TOTAL     ACCESS:    1814190  HIT:    1560667  MISS:     253523
cpu0_L1I LOAD      ACCESS:    1814190  HIT:    1560667  MISS:     253523
cpu0_L1I RFO       ACCESS:          0  HIT:          0  MISS:          0
cpu0_L1I PREFETCH  ACCESS:          0  HIT:          0  MISS:          0
cpu0_L1I WRITEBACK ACCESS:          0  HIT:          0  MISS:          0
cpu0_STLB TOTAL     ACCESS:      41862  HIT:      41439  MISS:        423
cpu0_STLB LOAD      ACCESS:      29928  HIT:      29662  MISS:        266
cpu0_STLB RFO       ACCESS:      11934  HIT:      11777  MISS:        157
cpu0_STLB PREFETCH  ACCESS:          0  HIT:          0  MISS:          0
cpu0_STLB WRITEBACK ACCESS:          0  HIT:          0  MISS:          0
cpu0_L1D TOTAL     ACCESS:    6296688  HIT:    6243353  MISS:      53335
cpu0_L1D LOAD      ACCESS:    3621091  HIT:    3583713  MISS:      37378
cpu0_L1D RFO       ACCESS:    2675205  HIT:    2659294  MISS:      15911
cpu0_L1D PREFETCH  ACCESS:          0  HIT:          0  MISS:          0
cpu0_L1D WRITEBACK ACCESS:          0  HIT:          0  MISS:          0
cpu0_L2C TOTAL     ACCESS:     326358  HIT:     299939  MISS:      26419
cpu0_L2C LOAD      ACCESS:     290899  HIT:     274645  MISS:      16254
cpu0_L2C RFO       ACCESS:      15825  HIT:       5719  MISS:      10106
cpu0_L2C PREFETCH  ACCESS:          0  HIT:          0  MISS:          0
cpu0_L2C WRITEBACK ACCESS:      19588  HIT:      19542  MISS:         46
LLC TOTAL     ACCESS:      37076  HIT:      15369  MISS:      21707
LLC LOAD      ACCESS:      16254  HIT:       4515  MISS:      11739
LLC RFO       ACCESS:      10106  HIT:        149  MISS:       9957
LLC PREFETCH  ACCESS:          0  HIT:          0  MISS:          0
LLC WRITEBACK ACCESS:      10703  HIT:      10694  MISS:          9
Heartbeat CPU 0 instructions: 92000001 cycles: 30128606 heartbeat IPC: 2.27294 cumulative IPC: 2.40228 (Simulation time: 0 hr 39 min 0 sec) 

Region of Interest Statistics
cpu0_DTLB TOTAL     ACCESS:    5137632  HIT:    5094714  MISS:      42918
cpu0_DTLB LOAD      ACCESS:    3742516  HIT:    3712014  MISS:      30502
cpu0_DTLB RFO       ACCESS:    1395116  HIT:    1382700  MISS:      12416
cpu0_DTLB PREFETCH  ACCESS:          0  HIT:          0  MISS:          0
cpu0_DTLB WRITEBACK ACCESS:          0  HIT:          0  MISS:          0
cpu0_ITLB TOTAL     ACCESS:    2125250  HIT:    2124798  MISS:        452
cpu0_ITLB LOAD      ACCESS:    2125250  HIT:    2124798  MISS:        452
cpu0_ITLB RFO       ACCESS:          0  HIT:          0  MISS:          0
cpu0_ITLB PREFETCH  ACCESS:          0  HIT:          0  MISS:          0
cpu0_ITLB WRITEBACK ACCESS:          0  HIT:          0  MISS:          0
cpu0_L1I TOTAL     ACCESS:    1904510  HIT:    1636993  MISS:     267517
cpu0_L1I LOAD      ACCESS:    1904510  HIT:    1636993  MISS:     267517
cpu0_L1I RFO       ACCESS:          0  HIT:          0  MISS:          0
cpu0_L1I PREFETCH  ACCESS:          0  HIT:          0  MISS:          0
cpu0_L1I WRITEBACK ACCESS:          0  HIT:          0  MISS:          0
cpu0_STLB TOTAL     ACCESS:      43370  HIT:      42947  MISS:        423
cpu0_STLB LOAD      ACCESS:      30954  HIT:      30688  MISS:        266
cpu0_STLB RFO       ACCESS:      12416  HIT:      12259  MISS:        157
cpu0_STLB PREFETCH  ACCESS:          0  HIT:          0  MISS:          0
cpu0_STLB WRITEBACK ACCESS:          0  HIT:          0  MISS:          0
cpu0_L1D TOTAL     ACCESS:    6611130  HIT:    6555960  MISS:      55170
cpu0_L1D LOAD      ACCESS:    3796232  HIT:    3757404  MISS:      38828
cpu0_L1D RFO       ACCESS:    2814506  HIT:    2798210  MISS:      16296
cpu0_L1D PREFETCH  ACCESS:          0  HIT:          0  MISS:          0
cpu0_L1D WRITEBACK ACCESS:          0  HIT:          0  MISS:          0
cpu0_L2C TOTAL     ACCESS:     342679  HIT:     315479  MISS:      27200
cpu0_L2C LOAD      ACCESS:     306343  HIT:     289480  MISS:      16863
cpu0_L2C RFO       ACCESS:      16206  HIT:       5930  MISS:      10276
cpu0_L2C PREFETCH  ACCESS:          0  HIT:          0  MISS:          0
cpu0_L2C WRITEBACK ACCESS:      20084  HIT:      20036  MISS:         48
LLC TOTAL     ACCESS:      38224  HIT:      15889  MISS:      22335
LLC LOAD      ACCESS:      16863  HIT:       4663  MISS:      12200
LLC RFO       ACCESS:      10276  HIT:        152  MISS:      10124
LLC PREFETCH  ACCESS:          0  HIT:          0  MISS:          0
LLC WRITEBACK ACCESS:      11072  HIT:      11063  MISS:          9
Heartbeat CPU 0 instructions: 94000002 cycles: 30842315 heartbeat IPC: 2.80226 cumulative IPC: 2.41797 (Simulation time: 0 hr 39 min 50 sec) 

Region of Interest Statistics
cpu0_DTLB TOTAL     ACCESS:    5389683  HIT:    5345833  MISS:      43850
cpu0_DTLB LOAD      ACCESS:    3920915  HIT:    3889735  MISS:      31180
cpu0_DTLB RFO       ACCESS:    1468768  HIT:    1456098  MISS:      12670
cpu0_DTLB PREFETCH  ACCESS:          0  HIT:          0  MISS:          0
cpu0_DTLB WRITEBACK ACCESS:          0  HIT:          0  MISS:          0
cpu0_ITLB TOTAL     ACCESS:    2185561  HIT:    2185090  MISS:        471
cpu0_ITLB LOAD      ACCESS:    2185561  HIT:    2185090  MISS:        471
cpu0_ITLB RFO       ACCESS:          0  HIT:          0  MISS:          0
cpu0_ITLB PREFETCH  ACCESS:          0  HIT:          0  MISS:          0
cpu0_ITLB WRITEBACK ACCESS:          0  HIT:          0  MISS:          0
cpu0_L1I TOTAL     ACCESS:    1966022  HIT:    1691967  MISS:     274055
cpu0_L1I LOAD      ACCESS:    1966022  HIT:    1691967  MISS:     274055
cpu0_L1I RFO       ACCESS:          0  HIT:          0  MISS:          0
cpu0_L1I PREFETCH  ACCESS:          0  HIT:          0  MISS:          0
cpu0_L1I WRITEBACK ACCESS:          0  HIT:          0  MISS:          0
cpu0_STLB TOTAL     ACCESS:      44321  HIT:      43867  MISS:        454
cpu0_STLB LOAD      ACCESS:      31651  HIT:      31378  MISS:        273
cpu0_STLB RFO       ACCESS:      12670  HIT:      12489  MISS:        181
cpu0_STLB PREFETCH  ACCESS:          0  HIT:          0  MISS:          0
cpu0_STLB WRITEBACK ACCESS:          0  HIT:          0  MISS:          0
cpu0_L1D TOTAL     ACCESS:    6919302  HIT:    6861347  MISS:      57955
cpu0_L1D LOAD      ACCESS:    4002994  HIT:    3962756  MISS:      40238
cpu0_L1D RFO       ACCESS:    2915891  HIT:    2898223  MISS:      17668
cpu0_L1D PREFETCH  ACCESS:          0  HIT:          0  MISS:          0
cpu0_L1D WRITEBACK ACCESS:          0  HIT:          0  MISS:          0
cpu0_L2C TOTAL     ACCESS:     353853  HIT:     324943  MISS:      28910
cpu0_L2C LOAD      ACCESS:     314291  HIT:     296866  MISS:      17425
cpu0_L2C RFO       ACCESS:      17577  HIT:       6161  MISS:      11416
cpu0_L2C PREFETCH  ACCESS:          0  HIT:          0  MISS:          0
cpu0_L2C WRITEBACK ACCESS:      21936  HIT:      21881  MISS:         55
LLC TOTAL     ACCESS:      40538  HIT:      16641  MISS:      23897
LLC LOAD      ACCESS:      17425  HIT:       4801  MISS:      12624
LLC RFO       ACCESS:      11416  HIT:        154  MISS:      11262
LLC PREFETCH  ACCESS:          0  HIT:          0  MISS:          0
LLC WRITEBACK ACCESS:      11683  HIT:      11674  MISS:          9
Heartbeat CPU 0 instructions: 96000002 cycles: 31718596 heartbeat IPC: 2.28237 cumulative IPC: 2.41174 (Simulation time: 0 hr 40 min 38 sec) 

Region of Interest Statistics
cpu0_DTLB TOTAL     ACCESS:    5636357  HIT:    5589910  MISS:      46447
cpu0_DTLB LOAD      ACCESS:    4100895  HIT:    4067794  MISS:      33101
cpu0_DTLB RFO       ACCESS:    1535462  HIT:    1522116  MISS:      13346
cpu0_DTLB PREFETCH  ACCESS:          0  HIT:          0  MISS:          0
cpu0_DTLB WRITEBACK ACCESS:          0  HIT:          0  MISS:          0
cpu0_ITLB TOTAL     ACCESS:    2301946  HIT:    2301405  MISS:        541
cpu0_ITLB LOAD      ACCESS:    2301946  HIT:    2301405  MISS:        541
cpu0_ITLB RFO       ACCESS:          0  HIT:          0  MISS:          0
cpu0_ITLB PREFETCH  ACCESS:          0  HIT:          0  MISS:          0
cpu0_ITLB WRITEBACK ACCESS:          0  HIT:          0  MISS:          0
cpu0_L1I TOTAL     ACCESS:    2075052  HIT:    1785159  MISS:     289893
cpu0_L1I LOAD      ACCESS:    2075052  HIT:    1785159  MISS:     289893
cpu0_L1I RFO       ACCESS:          0  HIT:          0  MISS:          0
cpu0_L1I PREFETCH  ACCESS:          0  HIT:          0  MISS:          0
cpu0_L1I WRITEBACK ACCESS:          0  HIT:          0  MISS:          0
cpu0_STLB TOTAL     ACCESS:      46988  HIT:      46532  MISS:        456
cpu0_STLB LOAD      ACCESS:      33642  HIT:      33368  MISS:        274
cpu0_STLB RFO       ACCESS:      13346  HIT:      13164  MISS:        182
cpu0_STLB PREFETCH  ACCESS:          0  HIT:          0  MISS:          0
cpu0_STLB WRITEBACK ACCESS:          0  HIT:          0  MISS:          0
cpu0_L1D TOTAL     ACCESS:    7245113  HIT:    7184355  MISS:      60758
cpu0_L1D LOAD      ACCESS:    4173451  HIT:    4130827  MISS:      42624
cpu0_L1D RFO       ACCESS:    3071243  HIT:    3053160  MISS:      18083
cpu0_L1D PREFETCH  ACCESS:          0  HIT:          0  MISS:          0
cpu0_L1D WRITEBACK ACCESS:          0  HIT:          0  MISS:          0
cpu0_L2C TOTAL     ACCESS:     372945  HIT:     342793  MISS:      30152
cpu0_L2C LOAD      ACCESS:     332515  HIT:     314061  MISS:      18454
cpu0_L2C RFO       ACCESS:      17988  HIT:       6359  MISS:      11629
cpu0_L2C PREFETCH  ACCESS:          0  HIT:          0  MISS:          0
cpu0_L2C WRITEBACK ACCESS:      22391  HIT:      22336  MISS:         55
LLC TOTAL     ACCESS:      42229  HIT:      17612  MISS:      24617
LLC LOAD      ACCESS:      18454  HIT:       5323  MISS:      13131
LLC RFO       ACCESS:      11629  HIT:        154  MISS:      11475
LLC PREFETCH  ACCESS:          0  HIT:          0  MISS:          0
LLC WRITEBACK ACCESS:      12132  HIT:      12123  MISS:          9
Heartbeat CPU 0 instructions: 98000004 cycles: 32571610 heartbeat IPC: 2.34463 cumulative IPC: 2.40886 (Simulation time: 0 hr 41 min 29 sec) 

Region of Interest Statistics
cpu0_DTLB TOTAL     ACCESS:    5876032  HIT:    5826786  MISS:      49246
cpu0_DTLB LOAD      ACCESS:    4280240  HIT:    4245125  MISS:      35115
cpu0_DTLB RFO       ACCESS:    1595792  HIT:    1581661  MISS:      14131
cpu0_DTLB PREFETCH  ACCESS:          0  HIT:          0  MISS:          0
cpu0_DTLB WRITEBACK ACCESS:          0  HIT:          0  MISS:          0
cpu0_ITLB TOTAL     ACCESS:    2415348  HIT:    2414767  MISS:        581
cpu0_ITLB LOAD      ACCESS:    2415348  HIT:    2414767  MISS:        581
cpu0_ITLB RFO       ACCESS:          0  HIT:          0  MISS:          0
cpu0_ITLB PREFETCH  ACCESS:          0  HIT:          0  MISS:          0
cpu0_ITLB WRITEBACK ACCESS:          0  HIT:          0  MISS:          0
cpu0_L1I TOTAL     ACCESS:    2179088  HIT:    1872418  MISS:     306670
cpu0_L1I LOAD      ACCESS:    2179088  HIT:    1872418  MISS:     306670
cpu0_L1I RFO       ACCESS:          0  HIT:          0  MISS:          0
cpu0_L1I PREFETCH  ACCESS:          0  HIT:          0  MISS:          0
cpu0_L1I WRITEBACK ACCESS:          0  HIT:          0  MISS:          0
cpu0_STLB TOTAL     ACCESS:      49827  HIT:      49363  MISS:        464
cpu0_STLB LOAD      ACCESS:      35696  HIT:      35417  MISS:        279
cpu0_STLB RFO       ACCESS:      14131  HIT:      13946  MISS:        185
cpu0_STLB PREFETCH  ACCESS:          0  HIT:          0  MISS:          0
cpu0_STLB WRITEBACK ACCESS:          0  HIT:          0  MISS:          0
cpu0_L1D TOTAL     ACCESS:    7554068  HIT:    7490581  MISS:      63487
cpu0_L1D LOAD      ACCESS:    4339284  HIT:    4294548  MISS:      44736
cpu0_L1D RFO       ACCESS:    3214358  HIT:    3195662  MISS:      18696
cpu0_L1D PREFETCH  ACCESS:          0  HIT:          0  MISS:          0
cpu0_L1D WRITEBACK ACCESS:          0  HIT:          0  MISS:          0
cpu0_L2C TOTAL     ACCESS:     393072  HIT:     361764  MISS:      31308
cpu0_L2C LOAD      ACCESS:     351404  HIT:     332026  MISS:      19378
cpu0_L2C RFO       ACCESS:      18593  HIT:       6734  MISS:      11859
cpu0_L2C PREFETCH  ACCESS:          0  HIT:          0  MISS:          0
cpu0_L2C WRITEBACK ACCESS:      23020  HIT:      22963  MISS:         57
LLC TOTAL     ACCESS:      43910  HIT:      18450  MISS:      25460
LLC LOAD      ACCESS:      19378  HIT:       5635  MISS:      13743
LLC RFO       ACCESS:      11859  HIT:        154  MISS:      11705
LLC PREFETCH  ACCESS:          0  HIT:          0  MISS:          0
LLC WRITEBACK ACCESS:      12659  HIT:      12649  MISS:         10
Heartbeat CPU 0 instructions: 100000003 cycles: 33388886 heartbeat IPC: 2.44715 cumulative IPC: 2.41037 (Simulation time: 0 hr 42 min 17 sec) 

Region of Interest Statistics
cpu0_DTLB TOTAL     ACCESS:    6123482  HIT:    6073037  MISS:      50445
cpu0_DTLB LOAD      ACCESS:    4461129  HIT:    4425200  MISS:      35929
cpu0_DTLB RFO       ACCESS:    1662353  HIT:    1647837  MISS:      14516
cpu0_DTLB PREFETCH  ACCESS:          0  HIT:          0  MISS:          0
cpu0_DTLB WRITEBACK ACCESS:          0  HIT:          0  MISS:          0
cpu0_ITLB TOTAL     ACCESS:    2519790  HIT:    2519208  MISS:        582
cpu0_ITLB LOAD      ACCESS:    2519790  HIT:    2519208  MISS:        582
cpu0_ITLB RFO       ACCESS:          0  HIT:          0  MISS:          0
cpu0_ITLB PREFETCH  ACCESS:          0  HIT:          0  MISS:          0
cpu0_ITLB WRITEBACK ACCESS:          0  HIT:          0  MISS:          0
cpu0_L1I TOTAL     ACCESS:    2246572  HIT:    1931344  MISS:     315228
cpu0_L1I LOAD      ACCESS:    2246572  HIT:    1931344  MISS:     315228
cpu0_L1I RFO       ACCESS:          0  HIT:          0  MISS:          0
cpu0_L1I PREFETCH  ACCESS:          0  HIT:          0  MISS:          0
cpu0_L1I WRITEBACK ACCESS:          0  HIT:          0  MISS:          0
cpu0_STLB TOTAL     ACCESS:      51027  HIT:      50556  MISS:        471
cpu0_STLB LOAD      ACCESS:      36511  HIT:      36232  MISS:        279
cpu0_STLB RFO       ACCESS:      14516  HIT:      14324  MISS:        192
cpu0_STLB PREFETCH  ACCESS:          0  HIT:          0  MISS:          0
cpu0_STLB WRITEBACK ACCESS:          0  HIT:          0  MISS:          0
cpu0_L1D TOTAL     ACCESS:    7871152  HIT:    7805387  MISS:      65765
cpu0_L1D LOAD      ACCESS:    4536956  HIT:    4490696  MISS:      46260
cpu0_L1D RFO       ACCESS:    3333763  HIT:    3314314  MISS:      19449
cpu0_L1D PREFETCH  ACCESS:          0  HIT:          0  MISS:          0
cpu0_L1D WRITEBACK ACCESS:          0  HIT:          0  MISS:          0
cpu0_L2C TOTAL     ACCESS:     404927  HIT:     372557  MISS:      32370
cpu0_L2C LOAD      ACCESS:     361486  HIT:     341584  MISS:      19902
cpu0_L2C RFO       ACCESS:      19342  HIT:       6959  MISS:      12383
cpu0_L2C PREFETCH  ACCESS:          0  HIT:          0  MISS:          0
cpu0_L2C WRITEBACK ACCESS:      24043  HIT:      23972  MISS:         71
LLC TOTAL     ACCESS:      45291  HIT:      19053  MISS:      26238
LLC LOAD      ACCESS:      19902  HIT:       5895  MISS:      14007
LLC RFO       ACCESS:      12383  HIT:        164  MISS:      12219
LLC PREFETCH  ACCESS:          0  HIT:          0  MISS:          0
LLC WRITEBACK ACCESS:      12992  HIT:      12982  MISS:         10
Heartbeat CPU 0 instructions: 102000003 cycles: 34140564 heartbeat IPC: 2.66071 cumulative IPC: 2.41913 (Simulation time: 0 hr 43 min 6 sec) 

Region of Interest Statistics
cpu0_DTLB TOTAL     ACCESS:    6366946  HIT:    6314667  MISS:      52279
cpu0_DTLB LOAD      ACCESS:    4636367  HIT:    4599083  MISS:      37284
cpu0_DTLB RFO       ACCESS:    1730579  HIT:    1715584  MISS:      14995
cpu0_DTLB PREFETCH  ACCESS:          0  HIT:          0  MISS:          0
cpu0_DTLB WRITEBACK ACCESS:          0  HIT:          0  MISS:          0
cpu0_ITLB TOTAL     ACCESS:    2600877  HIT:    2600249  MISS:        628
cpu0_ITLB LOAD      ACCESS:    2600877  HIT:    2600249  MISS:        628
cpu0_ITLB RFO       ACCESS:          0  HIT:          0  MISS:          0
cpu0_ITLB PREFETCH  ACCESS:          0  HIT:          0  MISS:          0
cpu0_ITLB WRITEBACK ACCESS:          0  HIT:          0  MISS:          0
cpu0_L1I TOTAL     ACCESS:    2328356  HIT:    2001848  MISS:     326508
cpu0_L1I LOAD      ACCESS:    2328356  HIT:    2001848  MISS:     326508
cpu0_L1I RFO       ACCESS:          0  HIT:          0  MISS:          0
cpu0_L1I PREFETCH  ACCESS:          0  HIT:          0  MISS:          0
cpu0_L1I WRITEBACK ACCESS:          0  HIT:          0  MISS:          0
cpu0_STLB TOTAL     ACCESS:      52907  HIT:      52412  MISS:        495
cpu0_STLB LOAD      ACCESS:      37912  HIT:      37626  MISS:        286
cpu0_STLB RFO       ACCESS:      14995  HIT:      14786  MISS:        209
cpu0_STLB PREFETCH  ACCESS:          0  HIT:          0  MISS:          0
cpu0_STLB WRITEBACK ACCESS:          0  HIT:          0  MISS:          0
cpu0_L1D TOTAL     ACCESS:    8177423  HIT:    8108552  MISS:      68871
cpu0_L1D LOAD      ACCESS:    4722811  HIT:    4674569  MISS:      48242
cpu0_L1D RFO       ACCESS:    3454159  HIT:    3433588  MISS:      20571
cpu0_L1D PREFETCH  ACCESS:          0  HIT:          0  MISS:          0
cpu0_L1D WRITEBACK ACCESS:          0  HIT:          0  MISS:          0
cpu0_L2C TOTAL     ACCESS:     420834  HIT:     386969  MISS:      33865
cpu0_L2C LOAD      ACCESS:     374748  HIT:     354138  MISS:      20610
cpu0_L2C RFO       ACCESS:      20463  HIT:       7293  MISS:      13170
cpu0_L2C PREFETCH  ACCESS:          0  HIT:          0  MISS:          0
cpu0_L2C WRITEBACK ACCESS:      25565  HIT:      25494  MISS:         71
LLC TOTAL     ACCESS:      47281  HIT:      19869  MISS:      27412
LLC LOAD      ACCESS:      20610  HIT:       6204  MISS:      14406
LLC RFO       ACCESS:      13170  HIT:        176  MISS:      12994
LLC PREFETCH  ACCESS:          0  HIT:          0  MISS:          0
LLC WRITEBACK ACCESS:      13487  HIT:      13477  MISS:         10
Heartbeat CPU 0 instructions: 104000002 cycles: 35000515 heartbeat IPC: 2.32571 cumulative IPC: 2.41553 (Simulation time: 0 hr 43 min 50 sec) 

Region of Interest Statistics
cpu0_DTLB TOTAL     ACCESS:    6610260  HIT:    6555123  MISS:      55137
cpu0_DTLB LOAD      ACCESS:    4815092  HIT:    4775737  MISS:      39355
cpu0_DTLB RFO       ACCESS:    1795168  HIT:    1779386  MISS:      15782
cpu0_DTLB PREFETCH  ACCESS:          0  HIT:          0  MISS:          0
cpu0_DTLB WRITEBACK ACCESS:          0  HIT:          0  MISS:          0
cpu0_ITLB TOTAL     ACCESS:    2715776  HIT:    2715077  MISS:        699
cpu0_ITLB LOAD      ACCESS:    2715776  HIT:    2715077  MISS:        699
cpu0_ITLB RFO       ACCESS:          0  HIT:          0  MISS:          0
cpu0_ITLB PREFETCH  ACCESS:          0  HIT:          0  MISS:          0
cpu0_ITLB WRITEBACK ACCESS:          0  HIT:          0  MISS:          0
cpu0_L1I TOTAL     ACCESS:    2436717  HIT:    2094897  MISS:     341820
cpu0_L1I LOAD      ACCESS:    2436717  HIT:    2094897  MISS:     341820
cpu0_L1I RFO       ACCESS:          0  HIT:          0  MISS:          0
cpu0_L1I PREFETCH  ACCESS:          0  HIT:          0  MISS:          0
cpu0_L1I WRITEBACK ACCESS:          0  HIT:          0  MISS:          0
cpu0_STLB TOTAL     ACCESS:      55836  HIT:      55340  MISS:        496
cpu0_STLB LOAD      ACCESS:      40054  HIT:      39768  MISS:        286
cpu0_STLB RFO       ACCESS:      15782  HIT:      15572  MISS:        210
cpu0_STLB PREFETCH  ACCESS:          0  HIT:          0  MISS:          0
cpu0_STLB WRITEBACK ACCESS:          0  HIT:          0  MISS:          0
cpu0_L1D TOTAL     ACCESS:    8497026  HIT:    8425533  MISS:      71493
cpu0_L1D LOAD      ACCESS:    4890165  HIT:    4839806  MISS:      50359
cpu0_L1D RFO       ACCESS:    3606407  HIT:    3585332  MISS:      21075
cpu0_L1D PREFETCH  ACCESS:          0  HIT:          0  MISS:          0
cpu0_L1D WRITEBACK ACCESS:          0  HIT:          0  MISS:          0
cpu0_L2C TOTAL     ACCESS:     439271  HIT:     404181  MISS:      35090
cpu0_L2C LOAD      ACCESS:     392177  HIT:     370604  MISS:      21573
cpu0_L2C RFO       ACCESS:      20966  HIT:       7534  MISS:      13432
cpu0_L2C PREFETCH  ACCESS:          0  HIT:          0  MISS:          0
cpu0_L2C WRITEBACK ACCESS:      26069  HIT:      25998  MISS:         71
LLC TOTAL     ACCESS:      49070  HIT:      20854  MISS:      28216
LLC LOAD      ACCESS:      21573  HIT:       6625  MISS:      14948
LLC RFO       ACCESS:      13432  HIT:        176  MISS:      13256
LLC PREFETCH  ACCESS:          0  HIT:          0  MISS:          0
LLC WRITEBACK ACCESS:      14051  HIT:      14041  MISS:         10
Heartbeat CPU 0 instructions: 106000003 cycles: 35850718 heartbeat IPC: 2.35238 cumulative IPC: 2.41322 (Simulation time: 0 hr 44 min 33 sec) 

Region of Interest Statistics
cpu0_DTLB TOTAL     ACCESS:    6847375  HIT:    6789360  MISS:      58015
cpu0_DTLB LOAD      ACCESS:    4991123  HIT:    4949605  MISS:      41518
cpu0_DTLB RFO       ACCESS:    1856252  HIT:    1839755  MISS:      16497
cpu0_DTLB PREFETCH  ACCESS:          0  HIT:          0  MISS:          0
cpu0_DTLB WRITEBACK ACCESS:          0  HIT:          0  MISS:          0
cpu0_ITLB TOTAL     ACCESS:    2826337  HIT:    2825631  MISS:        706
cpu0_ITLB LOAD      ACCESS:    2826337  HIT:    2825631  MISS:        706
cpu0_ITLB RFO       ACCESS:          0  HIT:          0  MISS:          0
cpu0_ITLB PREFETCH  ACCESS:          0  HIT:          0  MISS:          0
cpu0_ITLB WRITEBACK ACCESS:          0  HIT:          0  MISS:          0
cpu0_L1I TOTAL     ACCESS:    2541474  HIT:    2181353  MISS:     360121
cpu0_L1I LOAD      ACCESS:    2541474  HIT:    2181353  MISS:     360121
cpu0_L1I RFO       ACCESS:          0  HIT:          0  MISS:          0
cpu0_L1I PREFETCH  ACCESS:          0  HIT:          0  MISS:          0
cpu0_L1I WRITEBACK ACCESS:          0  HIT:          0  MISS:          0
cpu0_STLB TOTAL     ACCESS:      58721  HIT:      58224  MISS:        497
cpu0_STLB LOAD      ACCESS:      42224  HIT:      41937  MISS:        287
cpu0_STLB RFO       ACCESS:      16497  HIT:      16287  MISS:        210
cpu0_STLB PREFETCH  ACCESS:          0  HIT:          0  MISS:          0
cpu0_STLB WRITEBACK ACCESS:          0  HIT:          0  MISS:          0
cpu0_L1D TOTAL     ACCESS:    8805268  HIT:    8731458  MISS:      73810
cpu0_L1D LOAD      ACCESS:    5053836  HIT:    5001777  MISS:      52059
cpu0_L1D RFO       ACCESS:    3750977  HIT:    3729286  MISS:      21691
cpu0_L1D PREFETCH  ACCESS:          0  HIT:          0  MISS:          0
cpu0_L1D WRITEBACK ACCESS:          0  HIT:          0  MISS:          0
cpu0_L2C TOTAL     ACCESS:     460525  HIT:     424476  MISS:      36049
cpu0_L2C LOAD      ACCESS:     412178  HIT:     389869  MISS:      22309
cpu0_L2C RFO       ACCESS:      21575  HIT:       7922  MISS:      13653
cpu0_L2C PREFETCH  ACCESS:          0  HIT:          0  MISS:          0
cpu0_L2C WRITEBACK ACCESS:      26712  HIT:      26640  MISS:         72
[...]
cpu0_DTLB LOAD      ACCESS:  140057398  HIT:  138904693  MISS:    1152705
cpu0_DTLB RFO       ACCESS:   52574936  HIT:   52119115  MISS:     455821
cpu0_DTLB PREFETCH  ACCESS:          0  HIT:          0  MISS:          0
cpu0_DTLB WRITEBACK ACCESS:          0  HIT:          0  MISS:          0
cpu0_ITLB TOTAL     ACCESS:   82680069  HIT:   82674677  MISS:       5392
cpu0_ITLB LOAD      ACCESS:   82680069  HIT:   82674677  MISS:       5392
cpu0_ITLB RFO       ACCESS:          0  HIT:          0  MISS:          0
cpu0_ITLB PREFETCH  ACCESS:          0  HIT:          0  MISS:          0
cpu0_ITLB WRITEBACK ACCESS:          0  HIT:          0  MISS:          0
cpu0_L1I TOTAL     ACCESS:   56582079  HIT:   52329874  MISS:    4252205
cpu0_L1I LOAD      ACCESS:   56582079  HIT:   52329874  MISS:    4252205
cpu0_L1I RFO       ACCESS:          0  HIT:          0  MISS:          0
cpu0_L1I PREFETCH  ACCESS:          0  HIT:          0  MISS:          0
cpu0_L1I WRITEBACK ACCESS:          0  HIT:          0  MISS:          0
cpu0_STLB TOTAL     ACCESS:    1613918  HIT:    1589765  MISS:      24153
cpu0_STLB LOAD      ACCESS:    1158097  HIT:    1142556  MISS:      15541
cpu0_STLB RFO       ACCESS:     455821  HIT:     447209  MISS:       8612
cpu0_STLB PREFETCH  ACCESS:          0  HIT:          0  MISS:          0
cpu0_STLB WRITEBACK ACCESS:          0  HIT:          0  MISS:          0
cpu0_L1D TOTAL     ACCESS:  224851770  HIT:  221902862  MISS:    2948908
cpu0_L1D LOAD      ACCESS:  125855401  HIT:  123720567  MISS:    2134834
cpu0_L1D RFO       ACCESS:   98973476  HIT:   98161926  MISS:     811550
cpu0_L1D PREFETCH  ACCESS:          0  HIT:          0  MISS:          0
cpu0_L1D WRITEBACK ACCESS:          0  HIT:          0  MISS:          0
cpu0_L2C TOTAL     ACCESS:    8187234  HIT:    6362612  MISS:    1824622
cpu0_L2C LOAD      ACCESS:    6386981  HIT:    5118425  MISS:    1268556
cpu0_L2C RFO       ACCESS:     806960  HIT:     253563  MISS:     553397
cpu0_L2C PREFETCH  ACCESS:          0  HIT:          0  MISS:          0
cpu0_L2C WRITEBACK ACCESS:     990769  HIT:     988446  MISS:       2323
LLC TOTAL     ACCESS:    2481214  HIT:    1151396  MISS:    1329818
LLC LOAD      ACCESS:    1268535  HIT:     487067  MISS:     781468
LLC RFO       ACCESS:     553353  HIT:       6577  MISS:     546776
LLC PREFETCH  ACCESS:          0  HIT:          0  MISS:          0
LLC WRITEBACK ACCESS:     658980  HIT:     657519  MISS:       1461
Heartbeat CPU 0 instructions: 1550000002 cycles: 655521587 heartbeat IPC: 2.41636 cumulative IPC: 2.33326 (Simulation time: 11 hr 20 min 42 sec) 

Region of Interest Statistics
cpu0_DTLB TOTAL     ACCESS:  192886556  HIT:  191273390  MISS:    1613166
cpu0_DTLB LOAD      ACCESS:  140238576  HIT:  139082498  MISS:    1156078
cpu0_DTLB RFO       ACCESS:   52647980  HIT:   52190892  MISS:     457088
cpu0_DTLB PREFETCH  ACCESS:          0  HIT:          0  MISS:          0
cpu0_DTLB WRITEBACK ACCESS:          0  HIT:          0  MISS:          0
cpu0_ITLB TOTAL     ACCESS:   82793604  HIT:   82788212  MISS:       5392
cpu0_ITLB LOAD      ACCESS:   82793604  HIT:   82788212  MISS:       5392
cpu0_ITLB RFO       ACCESS:          0  HIT:          0  MISS:          0
cpu0_ITLB PREFETCH  ACCESS:          0  HIT:          0  MISS:          0
cpu0_ITLB WRITEBACK ACCESS:          0  HIT:          0  MISS:          0
cpu0_L1I TOTAL     ACCESS:   56681724  HIT:   52419508  MISS:    4262216
cpu0_L1I LOAD      ACCESS:   56681724  HIT:   52419508  MISS:    4262216
cpu0_L1I RFO       ACCESS:          0  HIT:          0  MISS:          0
cpu0_L1I PREFETCH  ACCESS:          0  HIT:          0  MISS:          0
cpu0_L1I WRITEBACK ACCESS:          0  HIT:          0  MISS:          0
cpu0_STLB TOTAL     ACCESS:    1618558  HIT:    1594374  MISS:      24184
cpu0_STLB LOAD      ACCESS:    1161470  HIT:    1145907  MISS:      15563
cpu0_STLB RFO       ACCESS:     457088  HIT:     448467  MISS:       8621
cpu0_STLB PREFETCH  ACCESS:          0  HIT:          0  MISS:          0
cpu0_STLB WRITEBACK ACCESS:          0  HIT:          0  MISS:          0
cpu0_L1D TOTAL     ACCESS:  225175983  HIT:  222222349  MISS:    2953634
cpu0_L1D LOAD      ACCESS:  126017851  HIT:  123879481  MISS:    2138370
cpu0_L1D RFO       ACCESS:   99135213  HIT:   98322478  MISS:     812735
cpu0_L1D PREFETCH  ACCESS:          0  HIT:          0  MISS:          0
cpu0_L1D WRITEBACK ACCESS:          0  HIT:          0  MISS:          0
cpu0_L2C TOTAL     ACCESS:    8203110  HIT:    6376535  MISS:    1826575
cpu0_L2C LOAD      ACCESS:    6400528  HIT:    5130528  MISS:    1270000
cpu0_L2C RFO       ACCESS:     808127  HIT:     254229  MISS:     553898
cpu0_L2C PREFETCH  ACCESS:          0  HIT:          0  MISS:          0
cpu0_L2C WRITEBACK ACCESS:     991926  HIT:     989595  MISS:       2331
LLC TOTAL     ACCESS:    2483745  HIT:    1152056  MISS:    1331689
LLC LOAD      ACCESS:    1269979  HIT:     487138  MISS:     782841
LLC RFO       ACCESS:     553854  HIT:       6580  MISS:     547274
LLC PREFETCH  ACCESS:          0  HIT:          0  MISS:          0
LLC WRITEBACK ACCESS:     659566  HIT:     658105  MISS:       1461
Finished CPU 0 instructions: 1500000001 cycles: 642876377 cumulative IPC: 2.33326 (Simulation time: 11 hr 20 min 42 sec) 

ChampSim completed all CPUs

Region of Interest Statistics

CPU 0 cumulative IPC: 2.33326 instructions: 1500000001 cycles: 642876377
cpu0_DTLB TOTAL     ACCESS:  192886556  HIT:  191273390  MISS:    1613166
cpu0_DTLB LOAD      ACCESS:  140238576  HIT:  139082498  MISS:    1156078
cpu0_DTLB RFO       ACCESS:   52647980  HIT:   52190892  MISS:     457088
cpu0_DTLB PREFETCH  ACCESS:          0  HIT:          0  MISS:          0
cpu0_DTLB WRITEBACK ACCESS:          0  HIT:          0  MISS:          0
cpu0_DTLB TRANSLATION ACCESS:          0  HIT:          0  MISS:          0
cpu0_DTLB PREFETCH  REQUESTED:          0  ISSUED:          0  USEFUL:          0  USELESS:          0
cpu0_DTLB AVERAGE MISS LATENCY: 11.3343 cycles
cpu0_ITLB TOTAL     ACCESS:   82793604  HIT:   82788212  MISS:       5392
cpu0_ITLB LOAD      ACCESS:   82793604  HIT:   82788212  MISS:       5392
cpu0_ITLB RFO       ACCESS:          0  HIT:          0  MISS:          0
cpu0_ITLB PREFETCH  ACCESS:          0  HIT:          0  MISS:          0
cpu0_ITLB WRITEBACK ACCESS:          0  HIT:          0  MISS:          0
cpu0_ITLB TRANSLATION ACCESS:          0  HIT:          0  MISS:          0
cpu0_ITLB PREFETCH  REQUESTED:          0  ISSUED:          0  USEFUL:          0  USELESS:          0
cpu0_ITLB AVERAGE MISS LATENCY: 13.2621 cycles
cpu0_L1I TOTAL     ACCESS:   56681724  HIT:   52419508  MISS:    4262216
cpu0_L1I LOAD      ACCESS:   56681724  HIT:   52419508  MISS:    4262216
cpu0_L1I RFO       ACCESS:          0  HIT:          0  MISS:          0
cpu0_L1I PREFETCH  ACCESS:          0  HIT:          0  MISS:          0
cpu0_L1I WRITEBACK ACCESS:          0  HIT:          0  MISS:          0
cpu0_L1I TRANSLATION ACCESS:          0  HIT:          0  MISS:          0
cpu0_L1I PREFETCH  REQUESTED:          0  ISSUED:          0  USEFUL:          0  USELESS:          0
cpu0_L1I AVERAGE MISS LATENCY: 11.8599 cycles
cpu0_STLB TOTAL     ACCESS:    1618558  HIT:    1594374  MISS:      24184
cpu0_STLB LOAD      ACCESS:    1161470  HIT:    1145907  MISS:      15563
cpu0_STLB RFO       ACCESS:     457088  HIT:     448467  MISS:       8621
cpu0_STLB PREFETCH  ACCESS:          0  HIT:          0  MISS:          0
cpu0_STLB WRITEBACK ACCESS:          0  HIT:          0  MISS:          0
cpu0_STLB TRANSLATION ACCESS:          0  HIT:          0  MISS:          0
cpu0_STLB PREFETCH  REQUESTED:          0  ISSUED:          0  USEFUL:          0  USELESS:          0
cpu0_STLB AVERAGE MISS LATENCY: 153.684 cycles
cpu0_L1D TOTAL     ACCESS:  225175983  HIT:  222222349  MISS:    2953634
cpu0_L1D LOAD      ACCESS:  126017851  HIT:  123879481  MISS:    2138370
cpu0_L1D RFO       ACCESS:   99135213  HIT:   98322478  MISS:     812735
cpu0_L1D PREFETCH  ACCESS:          0  HIT:          0  MISS:          0
cpu0_L1D WRITEBACK ACCESS:          0  HIT:          0  MISS:          0
cpu0_L1D TRANSLATION ACCESS:      22919  HIT:      20390  MISS:       2529
cpu0_L1D PREFETCH  REQUESTED:          0  ISSUED:          0  USEFUL:          0  USELESS:          0
cpu0_L1D AVERAGE MISS LATENCY: 182.098 cycles
cpu0_L2C TOTAL     ACCESS:    8203110  HIT:    6376535  MISS:    1826575
cpu0_L2C LOAD      ACCESS:    6400528  HIT:    5130528  MISS:    1270000
cpu0_L2C RFO       ACCESS:     808127  HIT:     254229  MISS:     553898
cpu0_L2C PREFETCH  ACCESS:          0  HIT:          0  MISS:          0
cpu0_L2C WRITEBACK ACCESS:     991926  HIT:     989595  MISS:       2331
cpu0_L2C TRANSLATION ACCESS:       2529  HIT:       2183  MISS:        346
cpu0_L2C PREFETCH  REQUESTED:          0  ISSUED:          0  USEFUL:          0  USELESS:          0
cpu0_L2C AVERAGE MISS LATENCY: 278.526 cycles
LLC TOTAL     ACCESS:    2483745  HIT:    1152056  MISS:    1331689
LLC LOAD      ACCESS:    1269979  HIT:     487138  MISS:     782841
LLC RFO       ACCESS:     553854  HIT:       6580  MISS:     547274
LLC PREFETCH  ACCESS:          0  HIT:          0  MISS:          0
LLC WRITEBACK ACCESS:     659566  HIT:     658105  MISS:       1461
LLC TRANSLATION ACCESS:        346  HIT:        233  MISS:        113
LLC PREFETCH  REQUESTED:          0  ISSUED:          0  USEFUL:          0  USELESS:          0
LLC AVERAGE MISS LATENCY: 353.265 cycles
~~~~~~~~~~Reuse Distance Profiler output~~~~~~~~~~
0	0	0
1	0	0
2	0	0
3	0	0
4	0	0
5	0	0
6	0	0
7	0	0
8	0	0
9	0	0
10	0	0
11	0	0
12	0	0
13	0	0
14	0	0
15	0	0
16	0	0
17	0	0
18	0	0
19	0	0
20	0	0
21	0	0
22	0	0
23	0	0
24	0	0
25	0	0
26	0	0
27	0	0
28	0	0
29	0	0
30	0	0
31	0	0
32	0	0
33	0	0
34	0	0
35	0	0
36	0	0
37	0	0
38	0	0
39	0	0
40	0	0
41	0	0
42	0	0
43	0	0
44	0	0
45	0	0
46	0	0
47	0	0
48	0	0
49	0	0
50	0	0
51	0	0
52	0	0
53	0	0
54	0	0
55	0	0
56	0	0
57	0	0
58	0	0
59	0	0
60	0	0
61	0	0
62	0	0
63	0	0
64	0	0
66	0	0
68	0	0
70	0	0
72	0	0
74	0	0
76	0	0
78	0	0
80	0	0
82	0	0
84	0	0
86	0	0
88	0	0
90	0	0
92	0	0
94	0	0
96	0	0
98	0	0
100	0	0
102	0	0
104	0	0
106	0	0
108	0	0
110	0	0
112	0	0
114	0	0
116	0	0
118	0	0
120	0	0
122	0	0
124	0	0
126	0	0
128	0	0
132	0	0
136	0	0
140	0	0
144	0	0
148	0	0
152	0	0
156	0	0
160	0	0
164	0	0
168	0	0
172	0	0
176	0	0
180	0	0
184	0	0
188	0	0
192	0	0
196	0	0
200	0	0
204	0	0
208	0	0
212	0	0
216	0	0
220	0	0
224	0	0
228	0	0
232	0	0
236	0	0
240	0	0
244	0	0
248	0	0
252	0	0
256	0	0
264	0	0
272	0	0
280	0	0
288	0	0
296	0	0
304	0	0
312	0	0
320	0	0
328	0	0
336	0	0
344	0	0
352	0	0
360	0	0
368	0	0
376	0	0
384	0	0
392	0	0
400	0	0
408	0	0
416	0	0
424	0	0
432	0	0
440	0	0
448	0	0
456	0	0
464	0	0
472	0	0
480	0	0
488	0	0
496	0	0
504	0	0
512	0	0
528	0	0
544	0	0
560	0	0
576	0	0
592	0	0
608	0	0
624	0	0
640	0	0
656	0	0
672	0	0
688	0	0
704	0	0
720	0	0
736	0	0
752	0	0
768	0	0
784	0	0
800	0	0
816	0	0
832	0	0
848	0	0
864	0	0
880	0	0
896	0	0
912	0	0
928	0	0
944	0	0
960	0	0
976	0	0
992	0	0
1008	0	0
1024	0	0
1056	0	0
1088	0	0
1120	0	0
1152	0	0
1184	0	0
1216	0	0
1248	0	0
1280	0	0
1312	0	0
1344	0	0
1376	0	0
1408	0	0
1440	0	0
1472	0	0
1504	0	0
1536	0	0
1568	0	0
1600	0	0
1632	0	0
1664	0	0
1696	0	0
1728	0	0
1760	0	0
1792	0	0
1824	0	0
1856	0	0
1888	0	0
1920	0	0
1952	0	0
1984	0	0
2016	0	0
2048	0	0
2112	0	0
2176	0	0
2240	0	0
2304	0	0
2368	0	0
2432	0	0
2496	0	0
2560	0	0
2624	0	0
2688	0	0
2752	0	0
2816	0	0
2880	0	0
2944	0	0
3008	0	0
3072	0	0
3136	0	0
3200	0	0
3264	0	0
3328	0	0
3392	0	0
3456	0	0
3520	0	0
3584	0	0
3648	0	0
3712	0	0
3776	0	0
3840	0	0
3904	0	0
3968	0	0
4032	0	0
4096	0	0
4224	0	0
4352	0	0
4480	0	0
4608	0	0
4736	0	0
4864	0	0
4992	0	0
5120	0	0
5248	0	0
5376	0	0
5504	0	0
5632	0	0
5760	0	0
5888	0	0
6016	0	0
6144	0	0
6272	0	0
6400	0	0
6528	0	0
6656	0	0
6784	0	0
6912	0	0
7040	0	0
7168	0	0
7296	0	0
7424	0	0
7552	0	0
7680	0	0
7808	0	0
7936	0	0
8064	0	0
8192	0	0
8448	0	0
8704	0	0
8960	0	0
9216	0	0
9472	0	0
9728	0	0
9984	0	0
10240	0	0
10496	0	0
10752	0	0
11008	0	0
11264	0	0
11520	0	0
11776	0	0
12032	0	0
12288	0	0
12544	0	0
12800	0	0
13056	0	0
13312	0	0
13568	0	0
13824	0	0
14080	0	0
14336	0	0
14592	0	0
14848	0	0
15104	0	0
15360	0	0
15616	0	0
15872	0	0
16128	0	0
16384	0	0
16896	0	0
17408	0	0
17920	0	0
18432	0	0
18944	0	0
19456	0	0
19968	0	0
20480	0	0
20992	0	0
21504	0	0
22016	0	0
22528	0	0
23040	0	0
23552	0	0
24064	0	0
24576	0	0
25088	0	0
25600	0	0
26112	0	0
26624	0	0
27136	0	0
27648	0	0
28160	0	0
28672	0	0
29184	0	0
29696	0	0
30208	0	0
30720	0	0
31232	0	0
31744	0	0
32256	0	0
32768	0	0
33792	0	0
34816	0	0
35840	0	0
36864	0	0
37888	0	0
38912	0	0
39936	0	0
40960	0	0
41984	0	0
43008	0	0
44032	0	0
45056	0	0
46080	0	0
47104	0	0
48128	0	0
49152	0	0
50176	0	0
51200	0	0
52224	0	0
53248	0	0
54272	0	0
55296	0	0
56320	0	0
57344	0	0
58368	0	0
59392	0	0
60416	0	0
61440	0	0
62464	0	0
63488	0	0
64512	0	0
65536	0	0
67584	0	0
69632	0	0
71680	0	0
73728	0	0
75776	0	0
77824	0	0
79872	0	0
81920	0	0
83968	0	0
86016	0	0
88064	0	0
90112	0	0
92160	0	0
94208	0	0
96256	0	0
98304	0	0
100352	0	0
102400	0	0
104448	0	0
106496	0	0
108544	0	0
110592	0	0
112640	0	0
114688	0	0
116736	0	0
118784	0	0
120832	0	0
122880	0	0
124928	0	0
126976	0	0
129024	0	0
131072	0	0
135168	0	0
139264	0	0
143360	0	0
147456	0	0
151552	0	0
155648	0	0
159744	0	0
163840	0	0
167936	0	0
172032	0	0
176128	0	0
180224	0	0
184320	0	0
188416	0	0
192512	0	0
196608	0	0
200704	0	0
204800	0	0
208896	0	0
212992	0	0
217088	0	0
221184	0	0
225280	0	0
229376	0	0
233472	0	0
237568	0	0
241664	0	0
245760	0	0
249856	0	0
253952	0	0
258048	0	0
262144	0	0
270336	0	0
278528	0	0
286720	0	0
294912	0	0
303104	0	0
311296	0	0
319488	0	0
327680	0	0
335872	0	0
344064	0	0
352256	0	0
360448	0	0
368640	0	0
376832	0	0
385024	0	0
393216	0	0
401408	0	0
409600	0	0
417792	0	0
425984	0	0
434176	0	0
442368	0	0
450560	0	0
458752	0	0
466944	0	0
475136	0	0
483328	0	0
491520	0	0
499712	0	0
507904	0	0
516096	0	0
524288	0	0
540672	0	0
557056	0	0
573440	0	0
589824	0	0
606208	0	0
622592	0	0
638976	0	0
655360	0	0
671744	0	0
688128	0	0
704512	0	0
720896	0	0
737280	0	0
753664	0	0
770048	0	0
786432	0	0
802816	0	0
819200	0	0
835584	0	0
851968	0	0
868352	0	0
884736	0	0
901120	0	0
917504	0	0
933888	0	0
950272	0	0
966656	0	0
983040	0	0
999424	0	0
1015808	0	0
1032192	0	0
1048576	0	0
1081344	0	0
1114112	0	0
1146880	0	0
1179648	0	0
1212416	0	0
1245184	0	0
1277952	0	0
1310720	0	0
1343488	0	0
1376256	0	0
1409024	0	0
1441792	0	0
1474560	0	0
1507328	0	0
1540096	0	0
1572864	0	0
1605632	0	0
1638400	0	0
1671168	0	0
1703936	0	0
1736704	0	0
1769472	0	0
1802240	0	0
1835008	0	0
1867776	0	0
1900544	0	0
1933312	0	0
1966080	0	0
1998848	0	0
2031616	0	0
2064384	0	0
2097152	0	0
2162688	0	0
2228224	0	0
2293760	0	0
2359296	0	0
2424832	0	0
2490368	0	0
2555904	0	0
2621440	0	0
2686976	0	0
2752512	0	0
2818048	0	0
2883584	0	0
2949120	0	0
3014656	0	0
3080192	0	0
3145728	0	0
3211264	0	0
3276800	0	0
3342336	0	0
3407872	0	0
3473408	0	0
3538944	0	0
3604480	0	0
3670016	0	0
3735552	0	0
3801088	0	0
3866624	0	0
3932160	0	0
3997696	0	0
4063232	0	0
4128768	0	0
4194304	0	0
4325376	0	0
4456448	0	0
4587520	0	0
4718592	0	0
4849664	0	0
4980736	0	0
5111808	0	0
5242880	0	0
5373952	0	0
5505024	0	0
5636096	0	0
5767168	0	0
5898240	0	0
6029312	0	0
6160384	0	0
6291456	0	0
6422528	0	0
6553600	0	0
6684672	0	0
6815744	0	0
6946816	0	0
7077888	0	0
7208960	0	0
7340032	0	0
7471104	0	0
7602176	0	0
7733248	0	0
7864320	0	0
7995392	0	0
8126464	0	0
8257536	0	0
8388608	0	0
8650752	0	0
8912896	0	0
9175040	0	0
9437184	0	0
9699328	0	0
9961472	0	0
10223616	0	0
10485760	0	0
10747904	0	0
11010048	0	0
11272192	0	0
11534336	0	0
11796480	0	0
12058624	0	0
12320768	0	0
12582912	0	0
12845056	0	0
13107200	0	0
13369344	0	0
13631488	0	0
13893632	0	0
14155776	0	0
14417920	0	0
14680064	0	0
14942208	0	0
15204352	0	0
15466496	0	0
15728640	0	0
15990784	0	0
16252928	0	0
16515072	0	0
16777216	0	0
17301504	0	0
17825792	0	0
18350080	0	0
18874368	0	0
19398656	0	0
19922944	0	0
20447232	0	0
20971520	0	0
21495808	0	0
22020096	0	0
22544384	0	0
23068672	0	0
23592960	0	0
24117248	0	0
24641536	0	0
25165824	0	0
25690112	0	0
26214400	0	0
26738688	0	0
27262976	0	0
27787264	0	0
28311552	0	0
28835840	0	0
29360128	0	0
29884416	0	0
30408704	0	0
30932992	0	0
31457280	0	0
31981568	0	0
32505856	0	0
33030144	0	0
33554432	0	0
34603008	0	0
35651584	0	0
36700160	0	0
37748736	0	0
38797312	0	0
39845888	0	0
40894464	0	0
41943040	0	0
42991616	0	0
44040192	0	0
45088768	0	0
46137344	0	0
47185920	0	0
48234496	0	0
49283072	0	0
50331648	0	0
51380224	0	0
52428800	0	0
53477376	0	0
54525952	0	0
55574528	0	0
56623104	0	0
57671680	0	0
58720256	0	0
59768832	0	0
60817408	0	0
61865984	0	0
62914560	0	0
63963136	0	0
65011712	0	0
66060288	0	0
67108864	0	0
69206016	0	0
71303168	0	0
73400320	0	0
75497472	0	0
77594624	0	0
79691776	0	0
81788928	0	0
83886080	0	0
85983232	0	0
88080384	0	0
90177536	0	0
92274688	0	0
94371840	0	0
96468992	0	0
98566144	0	0
100663296	0	0
102760448	0	0
104857600	0	0
106954752	0	0
109051904	0	0
111149056	0	0
113246208	0	0
115343360	0	0
117440512	0	0
119537664	0	0
121634816	0	0
123731968	0	0
125829120	0	0
127926272	0	0
130023424	0	0
132120576	0	0
134217728	0	0
138412032	0	0
142606336	0	0
146800640	0	0
150994944	0	0
155189248	0	0
159383552	0	0
163577856	0	0
167772160	0	0
171966464	0	0
176160768	0	0
180355072	0	0
184549376	0	0
188743680	0	0
192937984	0	0
197132288	0	0
201326592	0	0
205520896	0	0
209715200	0	0
213909504	0	0
218103808	0	0
222298112	0	0
226492416	0	0
230686720	0	0
234881024	0	0
239075328	0	0
243269632	0	0
247463936	0	0
251658240	0	0
255852544	0	0
260046848	0	0
264241152	0	0
268435456	0	0
276824064	0	0
285212672	0	0
293601280	0	0
301989888	0	0
310378496	0	0
318767104	0	0
327155712	0	0
335544320	0	0
343932928	0	0
352321536	0	0
360710144	0	0
369098752	0	0
377487360	0	0
385875968	0	0
394264576	0	0
402653184	0	0
411041792	0	0
419430400	0	0
427819008	0	0
436207616	0	0
444596224	0	0
452984832	0	0
461373440	0	0
469762048	0	0
478150656	0	0
486539264	0	0
494927872	0	0
503316480	0	0
511705088	0	0
520093696	0	0
528482304	0	0
536870912	0	0
553648128	0	0
570425344	0	0
587202560	0	0
603979776	0	0
620756992	0	0
637534208	0	0
654311424	0	0
671088640	0	0
687865856	0	0
704643072	0	0
721420288	0	0
738197504	0	0
754974720	0	0
771751936	0	0
788529152	0	0
805306368	0	0
822083584	0	0
838860800	0	0
855638016	0	0
872415232	0	0
889192448	0	0
905969664	0	0
922746880	0	0
939524096	0	0
956301312	0	0
973078528	0	0
989855744	0	0
1006632960	0	0
1023410176	0	0
1040187392	0	0
1056964608	0	0
1073741824	0	0
1107296256	0	0
1140850688	0	0
1174405120	0	0
1207959552	0	0
1241513984	0	0
1275068416	0	0
1308622848	0	0
1342177280	0	0
1375731712	0	0
1409286144	0	0
1442840576	0	0
1476395008	0	0
1509949440	0	0
1543503872	0	0
1577058304	0	0
1610612736	0	0
1644167168	0	0
1677721600	0	0
1711276032	0	0
1744830464	0	0
1778384896	0	0
1811939328	0	0
1845493760	0	0
1879048192	0	0
1912602624	0	0
1946157056	0	0
1979711488	0	0
2013265920	0	0
2046820352	0	0
2080374784	0	0
2113929216	0	0
2147483648	0	0
2214592512	0	0
2281701376	0	0
2348810240	0	0
2415919104	0	0
2483027968	0	0
2550136832	0	0
2617245696	0	0
2684354560	0	0
2751463424	0	0
2818572288	0	0
2885681152	0	0
2952790016	0	0
3019898880	0	0
3087007744	0	0
3154116608	0	0
3221225472	0	0
3288334336	0	0
3355443200	0	0
3422552064	0	0
3489660928	0	0
3556769792	0	0
3623878656	0	0
3690987520	0	0
3758096384	0	0
3825205248	0	0
3892314112	0	0
3959422976	0	0
4026531840	0	0
4093640704	0	0
4160749568	0	0
4227858432	0	0
~~~~~~~~~~Reuse Distance Profiler output end~~~~~~~~~~

Sampler size:0

DRAM Statistics
 CHANNEL 0
 RQ ROW_BUFFER_HIT:     119173  ROW_BUFFER_MISS:    1210782
 DBUS AVG_CONGESTED_CYCLE:    3.95305
 WQ ROW_BUFFER_HIT:      88678  ROW_BUFFER_MISS:     545503  FULL:          0


CPU 0 Branch Prediction Accuracy: 86.2373% MPKI: 5.69618 Average ROB Occupancy at Mispredict: 87.4835
Branch type MPKI
BRANCH_DIRECT_JUMP: 0.000114
BRANCH_INDIRECT: 0.00154467
BRANCH_CONDITIONAL: 5.59207
BRANCH_DIRECT_CALL: 0.000199333
BRANCH_INDIRECT_CALL: 0.0317653
BRANCH_RETURN: 0.070492

